@<TRIPOS>MOLECULE
*****
 23 27 0 0 0
SMALL
GASTEIGER

@<TRIPOS>ATOM
      1 O          -5.5127  -14.8240   23.5156 O.3     1  UNL1       -0.3867
      2 C          -6.3384  -15.2272   24.7012 C.3     1  UNL1        0.0896
      3 C          -7.6669  -15.8935   24.4983 C.3     1  UNL1        0.0270
      4 C          -8.4925  -16.2967   25.6839 C.3     1  UNL1        0.0036
      5 C          -7.9897  -16.0336   27.0724 C.3     1  UNL1        0.0002
      6 C          -6.6612  -15.3673   27.2753 C.3     1  UNL1        0.0036
      7 C          -5.8356  -14.9641   26.0897 C.3     1  UNL1        0.0270
      8 C          -7.1124  -15.6200   24.0286 C.3     1  UNL1        0.0146
      9 C          -8.1697  -16.1567   23.1098 C.3     1  UNL1        0.0445
     10 C          -8.9953  -16.5599   24.2954 C.3     1  UNL1        0.0146
     11 C          -6.8412  -15.4903   23.3127 C.3     1  UNL1        0.0413
     12 H          -4.6901  -14.4099   23.8202 H       1  UNL1        0.2102
     13 N          -8.6725  -16.4198   21.7213 N.3     1  UNL1       -0.2944
     14 H          -8.7384  -17.4325   21.6190 H       1  UNL1        0.1235
     15 C          -9.9896  -15.8533   21.2807 C.3     1  UNL1        0.1186
     16 C         -11.2630  -16.5776   21.6031 C.ar    1  UNL1        0.1162
     17 C         -11.8028  -16.8429   22.9773 C.ar    1  UNL1        0.0550
     18 C         -13.0936  -17.5930   22.8314 C.ar    1  UNL1        0.1537
     19 O         -13.3516  -17.7911   21.3671 O.2     1  UNL1       -0.3581
     20 N         -12.2203  -17.1636   20.6079 N.ar    1  UNL1       -0.0804
     21 C         -13.9721  -18.0624   23.9529 C.3     1  UNL1        0.0602
     22 C         -15.3205  -18.4832   24.4579 C.3     1  UNL1        0.0081
     23 C         -14.1457  -18.4546   25.3903 C.3     1  UNL1        0.0081
@<TRIPOS>BOND
     1     1     2    1
     2     2     3    1
     3     3     4    1
     4     4     5    1
     5     5     6    1
     6     6     7    1
     7     6     8    1
     8     8     9    1
     9     9    13    1
    10    13    15    1
    11    15    16    1
    12    16    17   ar
    13    17    18   ar
    14    18    21    1
    15    21    22    1
    16    22    23    1
    17    18    19   ar
    18    19    20   ar
    19     9    10    1
    20     9    11    1
    21     7     2    1
    22    20    16   ar
    23    11     2    1
    24    10     4    1
    25    23    21    1
    26     1    12    1
    27    13    14    1
@<TRIPOS>MOLECULE
*****
 23 27 0 0 0
SMALL
GASTEIGER

@<TRIPOS>ATOM
      1 O          -3.6439  -18.1414   23.2026 O.3     1  UNL1       -0.3867
      2 C          -2.9741  -18.0813   21.8618 C.3     1  UNL1        0.0896
      3 C          -3.5347  -18.8586   20.7079 C.3     1  UNL1        0.0270
      4 C          -2.8649  -18.7984   19.3671 C.3     1  UNL1        0.0036
      5 C          -1.6345  -17.9610   19.1802 C.3     1  UNL1        0.0002
      6 C          -1.0740  -17.1837   20.3341 C.3     1  UNL1        0.0036
      7 C          -1.7438  -17.2438   21.6749 C.3     1  UNL1        0.0270
      8 C          -3.7311  -18.7638   21.4531 C.3     1  UNL1        0.0146
      9 C          -4.7650  -19.6960   20.8947 C.3     1  UNL1        0.0445
     10 C          -4.0952  -19.6359   19.5540 C.3     1  UNL1        0.0146
     11 C          -4.2045  -18.9187   22.0486 C.3     1  UNL1        0.0413
     12 H          -3.1579  -17.5860   23.8320 H       1  UNL1        0.2102
     13 N          -5.9953  -20.5335   21.0816 N.3     1  UNL1       -0.2944
     14 H          -5.6788  -21.4885   21.2495 H       1  UNL1        0.1235
     15 C          -6.9696  -20.2020   22.1728 C.3     1  UNL1        0.1186
     16 C          -7.9305  -19.0633   22.0000 C.ar    1  UNL1        0.1162
     17 C          -9.3432  -19.0176   22.5023 C.ar    1  UNL1        0.0550
     18 C          -9.9332  -17.6963   22.1072 C.ar    1  UNL1        0.1537
     19 O          -8.8852  -16.9253   21.3608 O.2     1  UNL1       -0.3581
     20 N          -7.6474  -17.7701   21.2945 N.ar    1  UNL1       -0.0804
     21 C         -11.3265  -17.2282   22.4061 C.3     1  UNL1        0.0602
     22 C         -12.3348  -16.1208   22.4903 C.3     1  UNL1        0.0081
     23 C         -12.7316  -17.5246   22.8396 C.3     1  UNL1        0.0081
@<TRIPOS>BOND
     1     1     2    1
     2     2     3    1
     3     3     4    1
     4     4     5    1
     5     5     6    1
     6     6     7    1
     7     6     8    1
     8     8     9    1
     9     9    13    1
    10    13    15    1
    11    15    16    1
    12    16    17   ar
    13    17    18   ar
    14    18    21    1
    15    21    22    1
    16    22    23    1
    17    18    19   ar
    18    19    20   ar
    19     9    10    1
    20     9    11    1
    21     7     2    1
    22    20    16   ar
    23    11     2    1
    24    10     4    1
    25    23    21    1
    26     1    12    1
    27    13    14    1
@<TRIPOS>MOLECULE
*****
 23 27 0 0 0
SMALL
GASTEIGER

@<TRIPOS>ATOM
      1 O          -5.9630  -14.9035   23.2844 O.3     1  UNL1       -0.3867
      2 C          -6.5733  -15.2659   24.6059 C.3     1  UNL1        0.0896
      3 C          -7.9348  -15.8933   24.6564 C.3     1  UNL1        0.0270
      4 C          -8.5450  -16.2556   25.9779 C.3     1  UNL1        0.0036
      5 C          -7.7937  -15.9905   27.2488 C.3     1  UNL1        0.0002
      6 C          -6.4322  -15.3631   27.1983 C.3     1  UNL1        0.0036
      7 C          -5.8220  -15.0008   25.8768 C.3     1  UNL1        0.0270
      8 C          -7.4663  -15.6431   24.0900 C.3     1  UNL1        0.0146
      9 C          -8.6861  -16.1584   23.3855 C.3     1  UNL1        0.0445
     10 C          -9.2963  -16.5207   24.7070 C.3     1  UNL1        0.0146
     11 C          -7.3246  -15.5310   23.3350 C.3     1  UNL1        0.0413
     12 H          -5.0878  -14.5112   23.4291 H       1  UNL1        0.2102
     13 N          -9.4374  -16.4235   22.1146 N.3     1  UNL1       -0.2944
     14 H          -9.0391  -15.8100   21.4036 H       1  UNL1        0.1235
     15 C          -9.4599  -17.8051   21.5309 C.3     1  UNL1        0.1186
     16 C          -8.2558  -18.6911   21.6540 C.ar    1  UNL1        0.1162
     17 C          -6.9732  -18.5467   20.8899 C.ar    1  UNL1        0.0550
     18 C          -6.0475  -19.6434   21.3265 C.ar    1  UNL1        0.1537
     19 O          -6.7582  -20.4655   22.3605 O.2     1  UNL1       -0.3581
     20 N          -8.1230  -19.8770   22.5629 N.ar    1  UNL1       -0.0804
     21 C          -4.6557  -19.8770   20.8184 C.3     1  UNL1        0.0602
     22 C          -3.7170  -20.1511   19.6809 C.3     1  UNL1        0.0081
     23 C          -3.1837  -20.0073   21.0756 C.3     1  UNL1        0.0081
@<TRIPOS>BOND
     1     1     2    1
     2     2     3    1
     3     3     4    1
     4     4     5    1
     5     5     6    1
     6     6     7    1
     7     6     8    1
     8     8     9    1
     9     9    13    1
    10    13    15    1
    11    15    16    1
    12    16    17   ar
    13    17    18   ar
    14    18    21    1
    15    21    22    1
    16    22    23    1
    17    18    19   ar
    18    19    20   ar
    19     9    10    1
    20     9    11    1
    21     7     2    1
    22    20    16   ar
    23    11     2    1
    24    10     4    1
    25    23    21    1
    26     1    12    1
    27    13    14    1
@<TRIPOS>MOLECULE
*****
 23 27 0 0 0
SMALL
GASTEIGER

@<TRIPOS>ATOM
      1 O         -11.8359  -16.9280   19.6295 O.3     1  UNL1       -0.3867
      2 C         -11.9897  -17.4411   21.0306 C.3     1  UNL1        0.0896
      3 C         -11.2876  -18.6984   21.4503 C.3     1  UNL1        0.0270
      4 C         -11.4414  -19.2113   22.8514 C.3     1  UNL1        0.0036
      5 C         -12.2974  -18.4670   23.8329 C.3     1  UNL1        0.0002
      6 C         -12.9995  -17.2097   23.4132 C.3     1  UNL1        0.0036
      7 C         -12.8456  -16.6967   22.0121 C.3     1  UNL1        0.0270
      8 C         -11.3311  -18.2871   20.7931 C.3     1  UNL1        0.0146
      9 C         -10.4316  -19.4427   20.4688 C.3     1  UNL1        0.0445
     10 C         -10.5855  -19.9557   21.8699 C.3     1  UNL1        0.0146
     11 C         -11.1337  -18.1854   20.0492 C.3     1  UNL1        0.0413
     12 H         -12.3512  -16.1129   19.5252 H       1  UNL1        0.2102
     13 N          -9.5757  -20.1871   19.4873 N.3     1  UNL1       -0.2944
     14 H         -10.1501  -20.3509   18.6606 H       1  UNL1        0.1235
     15 C          -8.2881  -19.5854   19.0077 C.3     1  UNL1        0.1186
     16 C          -7.2636  -19.1180   19.9986 C.ar    1  UNL1        0.1162
     17 C          -5.8400  -19.5834   20.0808 C.ar    1  UNL1        0.0550
     18 C          -5.1793  -18.8562   21.2143 C.ar    1  UNL1        0.1537
     19 O          -6.1946  -17.9415   21.8326 O.2     1  UNL1       -0.3581
     20 N          -7.4828  -18.1032   21.0813 N.ar    1  UNL1       -0.0804
     21 C          -3.7537  -19.0158   21.6526 C.3     1  UNL1        0.0602
     22 C          -2.4821  -19.8113   21.6727 C.3     1  UNL1        0.0081
     23 C          -2.5560  -18.4968   22.3916 C.3     1  UNL1        0.0081
@<TRIPOS>BOND
     1     1     2    1
     2     2     3    1
     3     3     4    1
     4     4     5    1
     5     5     6    1
     6     6     7    1
     7     6     8    1
     8     8     9    1
     9     9    13    1
    10    13    15    1
    11    15    16    1
    12    16    17   ar
    13    17    18   ar
    14    18    21    1
    15    21    22    1
    16    22    23    1
    17    18    19   ar
    18    19    20   ar
    19     9    10    1
    20     9    11    1
    21     7     2    1
    22    20    16   ar
    23    11     2    1
    24    10     4    1
    25    23    21    1
    26     1    12    1
    27    13    14    1
@<TRIPOS>MOLECULE
*****
 23 27 0 0 0
SMALL
GASTEIGER

@<TRIPOS>ATOM
      1 O          -9.0165  -16.5127   21.3060 O.3     1  UNL1       -0.3867
      2 C         -10.2462  -17.0237   21.9964 C.3     1  UNL1        0.0896
      3 C         -10.2325  -18.3729   22.6516 C.3     1  UNL1        0.0270
      4 C         -11.4622  -18.8839   23.3420 C.3     1  UNL1        0.0036
      5 C         -12.7056  -18.0457   23.3772 C.3     1  UNL1        0.0002
      6 C         -12.7193  -16.6964   22.7220 C.3     1  UNL1        0.0036
      7 C         -11.4896  -16.1855   22.0316 C.3     1  UNL1        0.0270
      8 C          -9.7149  -17.9483   22.2585 C.3     1  UNL1        0.0146
      9 C          -8.9891  -19.2112   22.6164 C.3     1  UNL1        0.0445
     10 C         -10.2188  -19.7222   23.3068 C.3     1  UNL1        0.0146
     11 C          -9.0028  -17.8620   21.9612 C.3     1  UNL1        0.0413
     12 H          -9.1939  -15.6325   20.9389 H       1  UNL1        0.2102
     13 N          -7.7457  -20.0495   22.5812 N.3     1  UNL1       -0.2944
     14 H          -8.0351  -21.0128   22.7506 H       1  UNL1        0.1235
     15 C          -6.8864  -20.0653   21.3519 C.3     1  UNL1        0.1186
     16 C          -5.6006  -19.2932   21.3256 C.ar    1  UNL1        0.1162
     17 C          -4.5444  -19.3754   20.2636 C.ar    1  UNL1        0.0550
     18 C          -3.4363  -18.4364   20.6382 C.ar    1  UNL1        0.1537
     19 O          -3.8076  -17.7739   21.9318 O.2     1  UNL1       -0.3581
     20 N          -5.1452  -18.3034   22.3566 N.ar    1  UNL1       -0.0804
     21 C          -2.1779  -18.2012   19.8567 C.3     1  UNL1        0.0602
     22 C          -0.6802  -18.1490   19.7908 C.3     1  UNL1        0.0081
     23 C          -1.4957  -17.8460   18.5688 C.3     1  UNL1        0.0081
@<TRIPOS>BOND
     1     1     2    1
     2     2     3    1
     3     3     4    1
     4     4     5    1
     5     5     6    1
     6     6     7    1
     7     6     8    1
     8     8     9    1
     9     9    13    1
    10    13    15    1
    11    15    16    1
    12    16    17   ar
    13    17    18   ar
    14    18    21    1
    15    21    22    1
    16    22    23    1
    17    18    19   ar
    18    19    20   ar
    19     9    10    1
    20     9    11    1
    21     7     2    1
    22    20    16   ar
    23    11     2    1
    24    10     4    1
    25    23    21    1
    26     1    12    1
    27    13    14    1
@<TRIPOS>MOLECULE
*****
 23 27 0 0 0
SMALL
GASTEIGER

@<TRIPOS>ATOM
      1 O         -10.1893  -19.6381   25.3971 O.3     1  UNL1       -0.3867
      2 C         -11.0691  -18.8999   24.4322 C.3     1  UNL1        0.0896
      3 C         -10.4867  -18.3245   23.1753 C.3     1  UNL1        0.0270
      4 C         -11.3665  -17.5863   22.2105 C.3     1  UNL1        0.0036
      5 C         -12.8288  -17.4235   22.5025 C.3     1  UNL1        0.0002
      6 C         -13.4112  -17.9989   23.7594 C.3     1  UNL1        0.0036
      7 C         -12.5314  -18.7371   24.7242 C.3     1  UNL1        0.0270
      8 C         -10.2049  -18.7255   23.7776 C.3     1  UNL1        0.0146
      9 C          -9.0244  -18.4874   22.8833 C.3     1  UNL1        0.0445
     10 C          -9.9043  -17.7492   21.9185 C.3     1  UNL1        0.0146
     11 C          -9.6069  -19.0627   24.1402 C.3     1  UNL1        0.0413
     12 H         -10.7194  -19.9424   26.1503 H       1  UNL1        0.2102
     13 N          -7.5622  -18.6502   22.5913 N.3     1  UNL1       -0.2944
     14 H          -7.0628  -18.4184   23.4500 H       1  UNL1        0.1235
     15 C          -7.0331  -19.9746   22.1268 C.3     1  UNL1        0.1186
     16 C          -5.8288  -20.0299   21.2343 C.ar    1  UNL1        0.1162
     17 C          -4.7565  -18.9858   21.1346 C.ar    1  UNL1        0.0550
     18 C          -3.7503  -19.4496   20.1234 C.ar    1  UNL1        0.1537
     19 O          -4.2008  -20.7804   19.5980 O.2     1  UNL1       -0.3581
     20 N          -5.4854  -21.1391   20.2846 N.ar    1  UNL1       -0.0804
     21 C          -2.5113  -18.7121   19.7101 C.3     1  UNL1        0.0602
     22 C          -1.7995  -17.8020   18.7534 C.3     1  UNL1        0.0081
     23 C          -1.0770  -18.3448   19.9507 C.3     1  UNL1        0.0081
@<TRIPOS>BOND
     1     1     2    1
     2     2     3    1
     3     3     4    1
     4     4     5    1
     5     5     6    1
     6     6     7    1
     7     6     8    1
     8     8     9    1
     9     9    13    1
    10    13    15    1
    11    15    16    1
    12    16    17   ar
    13    17    18   ar
    14    18    21    1
    15    21    22    1
    16    22    23    1
    17    18    19   ar
    18    19    20   ar
    19     9    10    1
    20     9    11    1
    21     7     2    1
    22    20    16   ar
    23    11     2    1
    24    10     4    1
    25    23    21    1
    26     1    12    1
    27    13    14    1
@<TRIPOS>MOLECULE
*****
 23 27 0 0 0
SMALL
GASTEIGER

@<TRIPOS>ATOM
      1 O          -1.9030  -17.7893   22.5561 O.3     1  UNL1       -0.3867
      2 C          -2.9208  -18.6579   21.8780 C.3     1  UNL1        0.0896
      3 C          -4.3760  -18.5058   22.2083 C.3     1  UNL1        0.0270
      4 C          -5.3937  -19.3744   21.5303 C.3     1  UNL1        0.0036
      5 C          -4.9562  -20.3950   20.5219 C.3     1  UNL1        0.0002
      6 C          -3.5010  -20.5471   20.1916 C.3     1  UNL1        0.0036
      7 C          -2.4833  -19.6786   20.8697 C.3     1  UNL1        0.0270
      8 C          -3.7207  -18.1622   22.4439 C.3     1  UNL1        0.0146
      9 C          -4.8135  -17.4851   23.2167 C.3     1  UNL1        0.0445
     10 C          -5.8312  -18.3537   22.5386 C.3     1  UNL1        0.0146
     11 C          -3.3583  -17.6372   22.8864 C.3     1  UNL1        0.0413
     12 H          -1.0174  -18.0149   22.2311 H       1  UNL1        0.2102
     13 N          -5.2510  -16.4645   24.2251 N.3     1  UNL1       -0.2944
     14 H          -4.4044  -16.0224   24.5830 H       1  UNL1        0.1235
     15 C          -6.1784  -15.3580   23.8184 C.3     1  UNL1        0.1186
     16 C          -7.4864  -15.6801   23.1584 C.ar    1  UNL1        0.1162
     17 C          -8.6674  -16.3328   23.8136 C.ar    1  UNL1        0.0550
     18 C          -9.7539  -16.4622   22.7876 C.ar    1  UNL1        0.1537
     19 O          -9.2444  -15.8893   21.4982 O.2     1  UNL1       -0.3581
     20 N          -7.8430  -15.4059   21.7274 N.ar    1  UNL1       -0.0804
     21 C         -11.1114  -17.0594   23.0114 C.3     1  UNL1        0.0602
     22 C         -12.6004  -17.0026   22.8378 C.3     1  UNL1        0.0081
     23 C         -11.9741  -18.1506   23.5728 C.3     1  UNL1        0.0081
@<TRIPOS>BOND
     1     1     2    1
     2     2     3    1
     3     3     4    1
     4     4     5    1
     5     5     6    1
     6     6     7    1
     7     6     8    1
     8     8     9    1
     9     9    13    1
    10    13    15    1
    11    15    16    1
    12    16    17   ar
    13    17    18   ar
    14    18    21    1
    15    21    22    1
    16    22    23    1
    17    18    19   ar
    18    19    20   ar
    19     9    10    1
    20     9    11    1
    21     7     2    1
    22    20    16   ar
    23    11     2    1
    24    10     4    1
    25    23    21    1
    26     1    12    1
    27    13    14    1
@<TRIPOS>MOLECULE
*****
 23 27 0 0 0
SMALL
GASTEIGER

@<TRIPOS>ATOM
      1 O          -8.2643  -16.0728   23.3647 O.3     1  UNL1       -0.3867
      2 C          -7.7995  -15.7695   24.7583 C.3     1  UNL1        0.0896
      3 C          -6.3419  -15.8625   25.0997 C.3     1  UNL1        0.0270
      4 C          -5.8772  -15.5592   26.4932 C.3     1  UNL1        0.0036
      5 C          -6.8701  -15.1630   27.5454 C.3     1  UNL1        0.0002
      6 C          -8.3277  -15.0700   27.2040 C.3     1  UNL1        0.0036
      7 C          -8.7924  -15.3733   25.8105 C.3     1  UNL1        0.0270
      8 C          -6.7638  -15.9763   24.4579 C.3     1  UNL1        0.0146
      9 C          -5.3489  -16.2587   24.0475 C.3     1  UNL1        0.0445
     10 C          -4.8842  -15.9554   25.4411 C.3     1  UNL1        0.0146
     11 C          -6.8066  -16.1658   23.7061 C.3     1  UNL1        0.0413
     12 H          -9.2271  -15.9660   23.3145 H       1  UNL1        0.2102
     13 N          -4.3560  -16.6549   22.9953 N.3     1  UNL1       -0.2944
     14 H          -3.4716  -16.2112   23.2431 H       1  UNL1        0.1235
     15 C          -4.0597  -18.1050   22.7518 C.3     1  UNL1        0.1186
     16 C          -4.8521  -18.8720   21.7351 C.ar    1  UNL1        0.1162
     17 C          -6.2883  -18.6337   21.3740 C.ar    1  UNL1        0.0550
     18 C          -6.6714  -19.6264   20.3167 C.ar    1  UNL1        0.1537
     19 O          -5.4718  -20.4783   20.0244 O.2     1  UNL1       -0.3581
     20 N          -4.3474  -20.0121   20.9010 N.ar    1  UNL1       -0.0804
     21 C          -8.0175  -19.7463   19.6660 C.3     1  UNL1        0.0602
     22 C          -9.4601  -19.3439   19.5818 C.3     1  UNL1        0.0081
     23 C          -8.9066  -20.3561   18.6231 C.3     1  UNL1        0.0081
@<TRIPOS>BOND
     1     1     2    1
     2     2     3    1
     3     3     4    1
     4     4     5    1
     5     5     6    1
     6     6     7    1
     7     6     8    1
     8     8     9    1
     9     9    13    1
    10    13    15    1
    11    15    16    1
    12    16    17   ar
    13    17    18   ar
    14    18    21    1
    15    21    22    1
    16    22    23    1
    17    18    19   ar
    18    19    20   ar
    19     9    10    1
    20     9    11    1
    21     7     2    1
    22    20    16   ar
    23    11     2    1
    24    10     4    1
    25    23    21    1
    26     1    12    1
    27    13    14    1
@<TRIPOS>MOLECULE
*****
 23 27 0 0 0
SMALL
GASTEIGER

@<TRIPOS>ATOM
      1 O          -9.6774  -20.4165   23.5120 O.3     1  UNL1       -0.3867
      2 C         -10.8424  -19.4975   23.2921 C.3     1  UNL1        0.0896
      3 C         -11.2209  -19.0860   21.9003 C.3     1  UNL1        0.0270
      4 C         -12.3859  -18.1671   21.6805 C.3     1  UNL1        0.0036
      5 C         -13.1724  -17.6596   22.8526 C.3     1  UNL1        0.0002
      6 C         -12.7939  -18.0711   24.2445 C.3     1  UNL1        0.0036
      7 C         -11.6289  -18.9901   24.4643 C.3     1  UNL1        0.0270
      8 C         -10.6699  -19.5381   22.2084 C.3     1  UNL1        0.0146
      9 C         -10.4344  -19.5934   20.7281 C.3     1  UNL1        0.0445
     10 C         -11.5993  -18.6745   20.5084 C.3     1  UNL1        0.0146
     11 C         -10.0559  -20.0049   22.1200 C.3     1  UNL1        0.0413
     12 H          -9.5699  -20.5808   24.4619 H       1  UNL1        0.2102
     13 N          -9.6478  -20.1009   19.5560 N.3     1  UNL1       -0.2944
     14 H         -10.2688  -20.0662   18.7475 H       1  UNL1        0.1235
     15 C          -8.3750  -19.4166   19.1540 C.3     1  UNL1        0.1186
     16 C          -7.1311  -19.6067   19.9704 C.ar    1  UNL1        0.1162
     17 C          -6.4715  -18.5674   20.8275 C.ar    1  UNL1        0.0550
     18 C          -5.2611  -19.1880   21.4599 C.ar    1  UNL1        0.1537
     19 O          -5.1726  -20.6109   20.9936 O.2     1  UNL1       -0.3581
     20 N          -6.3283  -20.8698   20.0730 N.ar    1  UNL1       -0.0804
     21 C          -4.3068  -18.5055   22.3944 C.3     1  UNL1        0.0602
     22 C          -4.0587  -17.6506   23.6018 C.3     1  UNL1        0.0081
     23 C          -2.9019  -18.1783   22.8058 C.3     1  UNL1        0.0081
@<TRIPOS>BOND
     1     1     2    1
     2     2     3    1
     3     3     4    1
     4     4     5    1
     5     5     6    1
     6     6     7    1
     7     6     8    1
     8     8     9    1
     9     9    13    1
    10    13    15    1
    11    15    16    1
    12    16    17   ar
    13    17    18   ar
    14    18    21    1
    15    21    22    1
    16    22    23    1
    17    18    19   ar
    18    19    20   ar
    19     9    10    1
    20     9    11    1
    21     7     2    1
    22    20    16   ar
    23    11     2    1
    24    10     4    1
    25    23    21    1
    26     1    12    1
    27    13    14    1
