@<TRIPOS>MOLECULE
*****
 38 42 0 0 0
SMALL
GASTEIGER

@<TRIPOS>ATOM
      1 N         -10.6075  -16.7211   21.1106 N.3     1  UNL1       -0.2679
      2 C         -11.3155  -17.3960   22.2478 C.3     1  UNL1        0.0978
      3 C         -12.6778  -16.9284   22.6664 C.3     1  UNL1        0.0224
      4 C         -13.3859  -17.6033   23.8036 C.3     1  UNL1        0.0065
      5 C         -12.7316  -18.7459   24.5221 C.3     1  UNL1        0.0277
      6 C         -11.3693  -19.2135   24.1035 C.ar    1  UNL1       -0.0073
      7 C         -10.7149  -20.3562   24.8220 C.ar    1  UNL1       -0.0015
      8 C          -9.3526  -20.8238   24.4034 C.ar    1  UNL1        0.0203
      9 C          -8.6445  -20.1489   23.2662 C.ar    1  UNL1        0.0985
     10 N          -9.2988  -19.0063   22.5477 N.ar    1  UNL1       -0.2471
     11 C         -10.6612  -18.5386   22.9663 C.ar    1  UNL1        0.0695
     12 C         -10.7327  -17.2672   19.7192 C.3     1  UNL1        0.0725
     13 C         -11.1712  -18.6860   19.5069 C.3     1  UNL1        0.0188
     14 C         -10.1609  -19.7945   19.5292 C.3     1  UNL1        0.0185
     15 C          -8.7837  -19.5651   18.9809 C.3     1  UNL1        0.0686
     16 N          -7.6698  -19.1554   19.8982 N.3     1  UNL1       -0.2975
     17 H          -7.2336  -18.3325   19.4824 H       1  UNL1        0.1232
     18 C          -6.5644  -20.1192   20.2128 C.3     1  UNL1        0.0685
     19 F          -2.4855  -17.8337   23.5266 F       1  UNL1       -0.2043
     20 C          -2.8762  -18.6901   22.3588 C.3     1  UNL1        0.2639
     21 F          -1.3833  -18.8168   22.2869 F       1  UNL1       -0.2043
     22 C          -2.7484  -19.5906   21.1660 C.3     1  UNL1        0.0666
     23 C          -3.9777  -20.0670   20.4507 C.3     1  UNL1        0.0070
     24 C          -5.3349  -19.6428   20.9282 C.3     1  UNL1        0.0161
     25 C          -5.4628  -18.7423   22.1210 C.3     1  UNL1        0.0070
     26 C          -4.2334  -18.2660   22.8363 C.3     1  UNL1        0.0666
     27 C          -9.7742  -15.5001   21.3648 C.3     1  UNL1        0.0886
     28 C          -8.7953  -15.4833   22.5013 C.3     1  UNL1        0.0748
     29 C          -9.2604  -15.7795   23.8962 C.3     1  UNL1        0.0432
     30 C          -8.2815  -15.7628   25.0327 C.ar    1  UNL1       -0.0234
     31 C          -8.7467  -16.0589   26.4276 C.ar    1  UNL1       -0.0045
     32 C          -7.7678  -16.0422   27.5640 C.ar    1  UNL1       -0.0003
     33 C          -6.3237  -15.7293   27.3055 C.ar    1  UNL1       -0.0003
     34 C          -5.8586  -15.4332   25.9106 C.ar    1  UNL1       -0.0032
     35 C          -6.8375  -15.4499   24.7742 C.ar    1  UNL1       -0.0103
     36 C          -6.3723  -15.1538   23.3791 C.3     1  UNL1        0.0953
     37 N          -7.3512  -15.1705   22.2427 N.3     1  UNL1       -0.2934
     38 H          -7.0148  -15.8638   21.5745 H       1  UNL1        0.1236
@<TRIPOS>BOND
     1    19    20    1
     2    20    21    1
     3    20    22    1
     4    22    23    1
     5    23    24    1
     6    24    18    1
     7    18    16    1
     8    16    15    1
     9    15    14    1
    10    14    13    1
    11    13    12    1
    12    12     1    1
    13     1    27    1
    14    28    27    1
    15    28    29    1
    16    29    30    1
    17    30    31   ar
    18    31    32   ar
    19    32    33   ar
    20    33    34   ar
    21    34    35   ar
    22    35    36    1
    23    36    37    1
    24     2     1    1
    25     2     3    1
    26     3     4    1
    27     4     5    1
    28     5     6    1
    29     6     7   ar
    30     7     8   ar
    31     8     9   ar
    32     9    10   ar
    33    10    11   ar
    34    24    25    1
    35    25    26    1
    36    26    20    1
    37    37    28    1
    38    11     2    1
    39    35    30   ar
    40    11     6   ar
    41    16    17    1
    42    37    38    1
@<TRIPOS>MOLECULE
*****
 38 42 0 0 0
SMALL
GASTEIGER

@<TRIPOS>ATOM
      1 N          -9.1716  -18.2490   21.2136 N.3     1  UNL1       -0.2679
      2 C          -9.7128  -18.9189   22.4417 C.3     1  UNL1        0.0978
      3 C          -8.9123  -19.9851   23.1290 C.3     1  UNL1        0.0224
      4 C          -9.4536  -20.6550   24.3571 C.3     1  UNL1        0.0065
      5 C         -10.7954  -20.2587   24.8979 C.3     1  UNL1        0.0277
      6 C         -11.5959  -19.1926   24.2106 C.ar    1  UNL1       -0.0073
      7 C         -12.9378  -18.7963   24.7514 C.ar    1  UNL1       -0.0015
      8 C         -13.7383  -17.7302   24.0641 C.ar    1  UNL1        0.0203
      9 C         -13.1971  -17.0603   22.8359 C.ar    1  UNL1        0.0985
     10 N         -11.8552  -17.4565   22.2951 N.ar    1  UNL1       -0.2471
     11 C         -11.0546  -18.5227   22.9825 C.ar    1  UNL1        0.0695
     12 C          -9.2955  -18.9192   19.8774 C.3     1  UNL1        0.0725
     13 C          -8.0815  -19.4984   19.2133 C.3     1  UNL1        0.0188
     14 C          -7.0761  -20.2620   20.0231 C.3     1  UNL1        0.0185
     15 C          -5.8420  -19.5749   20.5280 C.3     1  UNL1        0.0686
     16 N          -5.6694  -19.3271   21.9973 N.3     1  UNL1       -0.2975
     17 H          -6.0947  -18.4213   22.1950 H       1  UNL1        0.1232
     18 C          -4.2948  -19.3002   22.5970 C.3     1  UNL1        0.0685
     19 F           0.1416  -17.7006   19.3411 F       1  UNL1       -0.2043
     20 C          -0.9029  -17.3625   20.3631 C.3     1  UNL1        0.2639
     21 F          -0.2153  -16.0347   20.2443 F       1  UNL1       -0.2043
     22 C          -1.7086  -16.5632   21.3439 C.3     1  UNL1        0.0666
     23 C          -2.8393  -17.2090   22.0885 C.3     1  UNL1        0.0070
     24 C          -3.1642  -18.6542   21.8523 C.3     1  UNL1        0.0161
     25 C          -2.3584  -19.4535   20.8715 C.3     1  UNL1        0.0070
     26 C          -1.2278  -18.8077   20.1269 C.3     1  UNL1        0.0666
     27 C          -8.5064  -16.9090   21.3217 C.3     1  UNL1        0.0886
     28 C          -7.8492  -16.4993   22.6064 C.3     1  UNL1        0.0748
     29 C          -8.6858  -16.2045   23.8160 C.3     1  UNL1        0.0432
     30 C          -8.0287  -15.7948   25.1007 C.ar    1  UNL1       -0.0234
     31 C          -8.8653  -15.5001   26.3103 C.ar    1  UNL1       -0.0045
     32 C          -8.2081  -15.0904   27.5949 C.ar    1  UNL1       -0.0003
     33 C          -6.7144  -14.9754   27.6699 C.ar    1  UNL1       -0.0003
     34 C          -5.8779  -15.2701   26.4603 C.ar    1  UNL1       -0.0032
     35 C          -6.5350  -15.6798   25.1757 C.ar    1  UNL1       -0.0103
     36 C          -5.6984  -15.9746   23.9660 C.3     1  UNL1        0.0953
     37 N          -6.3555  -16.3843   22.6814 N.3     1  UNL1       -0.2934
     38 H          -5.9771  -17.2991   22.4357 H       1  UNL1        0.1236
@<TRIPOS>BOND
     1    19    20    1
     2    20    21    1
     3    20    22    1
     4    22    23    1
     5    23    24    1
     6    24    18    1
     7    18    16    1
     8    16    15    1
     9    15    14    1
    10    14    13    1
    11    13    12    1
    12    12     1    1
    13     1    27    1
    14    28    27    1
    15    28    29    1
    16    29    30    1
    17    30    31   ar
    18    31    32   ar
    19    32    33   ar
    20    33    34   ar
    21    34    35   ar
    22    35    36    1
    23    36    37    1
    24     2     1    1
    25     2     3    1
    26     3     4    1
    27     4     5    1
    28     5     6    1
    29     6     7   ar
    30     7     8   ar
    31     8     9   ar
    32     9    10   ar
    33    10    11   ar
    34    24    25    1
    35    25    26    1
    36    26    20    1
    37    37    28    1
    38    11     2    1
    39    35    30   ar
    40    11     6   ar
    41    16    17    1
    42    37    38    1
@<TRIPOS>MOLECULE
*****
 38 42 0 0 0
SMALL
GASTEIGER

@<TRIPOS>ATOM
      1 N          -7.1369  -19.7837   21.7832 N.3     1  UNL1       -0.2679
      2 C          -8.1684  -19.3539   22.7839 C.3     1  UNL1        0.0978
      3 C          -9.1471  -20.3519   23.3280 C.3     1  UNL1        0.0224
      4 C         -10.1786  -19.9221   24.3286 C.3     1  UNL1        0.0065
      5 C         -10.2313  -18.4943   24.7852 C.3     1  UNL1        0.0277
      6 C          -9.2526  -17.4963   24.2411 C.ar    1  UNL1       -0.0073
      7 C          -9.3054  -16.0684   24.6976 C.ar    1  UNL1       -0.0015
      8 C          -8.3267  -15.0704   24.1536 C.ar    1  UNL1        0.0203
      9 C          -7.2952  -15.5002   23.1529 C.ar    1  UNL1        0.0985
     10 N          -7.2424  -16.9280   22.6964 N.ar    1  UNL1       -0.2471
     11 C          -8.2211  -17.9261   23.2404 C.ar    1  UNL1        0.0695
     12 C          -7.4806  -19.8287   20.3239 C.3     1  UNL1        0.0725
     13 C          -7.1328  -21.0386   19.5083 C.3     1  UNL1        0.0188
     14 C          -8.1456  -21.6287   18.5724 C.3     1  UNL1        0.0185
     15 C          -9.2536  -20.7748   18.0311 C.3     1  UNL1        0.0686
     16 N         -10.1992  -20.0881   18.9715 N.3     1  UNL1       -0.2975
     17 H         -11.1268  -20.1471   18.5516 H       1  UNL1        0.1232
     18 C          -9.9804  -18.6501   19.3378 C.3     1  UNL1        0.0685
     19 F         -13.5815  -17.0862   23.5125 F       1  UNL1       -0.2043
     20 C         -12.5202  -16.7262   22.5155 C.3     1  UNL1        0.2639
     21 F         -12.7560  -15.3835   23.1413 F       1  UNL1       -0.2043
     22 C         -11.5408  -15.8998   21.7359 C.3     1  UNL1        0.0666
     23 C         -10.6942  -16.5410   20.6767 C.3     1  UNL1        0.0070
     24 C         -10.8270  -18.0087   20.3971 C.3     1  UNL1        0.0161
     25 C         -11.8064  -18.8351   21.1767 C.3     1  UNL1        0.0070
     26 C         -12.6530  -18.1939   22.2360 C.3     1  UNL1        0.0666
     27 C          -5.7616  -20.1686   22.2419 C.3     1  UNL1        0.0886
     28 C          -4.6075  -19.2374   22.0158 C.3     1  UNL1        0.0748
     29 C          -3.7056  -19.4341   20.8336 C.3     1  UNL1        0.0432
     30 C          -2.5515  -18.5029   20.6075 C.ar    1  UNL1       -0.0234
     31 C          -1.6496  -18.6997   19.4252 C.ar    1  UNL1       -0.0045
     32 C          -0.4956  -17.7685   19.1992 C.ar    1  UNL1       -0.0003
     33 C          -0.2435  -16.6406   20.1554 C.ar    1  UNL1       -0.0003
     34 C          -1.1455  -16.4438   21.3376 C.ar    1  UNL1       -0.0032
     35 C          -2.2995  -17.3750   21.5637 C.ar    1  UNL1       -0.0103
     36 C          -3.2015  -17.1783   22.7460 C.3     1  UNL1        0.0953
     37 N          -4.3555  -18.1095   22.9720 N.3     1  UNL1       -0.2934
     38 H          -5.1992  -17.5363   22.9801 H       1  UNL1        0.1236
@<TRIPOS>BOND
     1    19    20    1
     2    20    21    1
     3    20    22    1
     4    22    23    1
     5    23    24    1
     6    24    18    1
     7    18    16    1
     8    16    15    1
     9    15    14    1
    10    14    13    1
    11    13    12    1
    12    12     1    1
    13     1    27    1
    14    28    27    1
    15    28    29    1
    16    29    30    1
    17    30    31   ar
    18    31    32   ar
    19    32    33   ar
    20    33    34   ar
    21    34    35   ar
    22    35    36    1
    23    36    37    1
    24     2     1    1
    25     2     3    1
    26     3     4    1
    27     4     5    1
    28     5     6    1
    29     6     7   ar
    30     7     8   ar
    31     8     9   ar
    32     9    10   ar
    33    10    11   ar
    34    24    25    1
    35    25    26    1
    36    26    20    1
    37    37    28    1
    38    11     2    1
    39    35    30   ar
    40    11     6   ar
    41    16    17    1
    42    37    38    1
@<TRIPOS>MOLECULE
*****
 38 42 0 0 0
SMALL
GASTEIGER

@<TRIPOS>ATOM
      1 N          -7.3796  -19.1551   22.0026 N.3     1  UNL1       -0.2679
      2 C          -6.2149  -19.7343   21.2556 C.3     1  UNL1        0.0978
      3 C          -6.4497  -20.7024   20.1342 C.3     1  UNL1        0.0224
      4 C          -5.2851  -21.2816   19.3871 C.3     1  UNL1        0.0065
      5 C          -3.8856  -20.8928   19.7616 C.3     1  UNL1        0.0277
      6 C          -3.6508  -19.9248   20.8830 C.ar    1  UNL1       -0.0073
      7 C          -2.2512  -19.5359   21.2575 C.ar    1  UNL1       -0.0015
      8 C          -2.0164  -18.5679   22.3790 C.ar    1  UNL1        0.0203
      9 C          -3.1811  -17.9887   23.1260 C.ar    1  UNL1        0.0985
     10 N          -4.5806  -18.3774   22.7516 N.ar    1  UNL1       -0.2471
     11 C          -4.8154  -19.3455   21.6301 C.ar    1  UNL1        0.0695
     12 C          -8.3102  -20.0574   22.7574 C.3     1  UNL1        0.0725
     13 C          -9.7938  -19.9178   22.5855 C.3     1  UNL1        0.0188
     14 C         -10.7165  -20.2768   23.7123 C.3     1  UNL1        0.0185
     15 C         -10.9904  -19.2839   24.8027 C.3     1  UNL1        0.0686
     16 N         -12.3956  -18.8325   25.0705 N.3     1  UNL1       -0.2975
     17 H         -12.9188  -19.6573   25.3645 H       1  UNL1        0.1232
     18 C         -13.1937  -18.1789   23.9816 C.3     1  UNL1        0.0685
     19 F         -10.0771  -14.9587   20.4096 F       1  UNL1       -0.2043
     20 C         -11.0924  -16.0416   20.6250 C.3     1  UNL1        0.2639
     21 F         -11.0347  -16.0330   19.1262 F       1  UNL1       -0.2043
     22 C         -12.0877  -17.1215   20.3198 C.3     1  UNL1        0.0666
     23 C         -12.7882  -17.8340   21.4386 C.3     1  UNL1        0.0070
     24 C         -12.4933  -17.4665   22.8626 C.3     1  UNL1        0.0161
     25 C         -11.4980  -16.3866   23.1679 C.3     1  UNL1        0.0070
     26 C         -10.7976  -15.6741   22.0491 C.3     1  UNL1        0.0666
     27 C          -7.6136  -17.6735   21.9949 C.3     1  UNL1        0.0886
     28 C          -7.2551  -16.8513   23.1973 C.3     1  UNL1        0.0748
     29 C          -8.1615  -16.8353   24.3923 C.3     1  UNL1        0.0432
     30 C          -7.8030  -16.0131   25.5946 C.ar    1  UNL1       -0.0234
     31 C          -8.7093  -15.9971   26.7897 C.ar    1  UNL1       -0.0045
     32 C          -8.3508  -15.1749   27.9919 C.ar    1  UNL1       -0.0003
     33 C          -7.0859  -14.3687   27.9991 C.ar    1  UNL1       -0.0003
     34 C          -6.1795  -14.3847   26.8040 C.ar    1  UNL1       -0.0032
     35 C          -6.5380  -15.2069   25.6018 C.ar    1  UNL1       -0.0103
     36 C          -5.6316  -15.2229   24.4067 C.3     1  UNL1        0.0953
     37 N          -5.9902  -16.0451   23.2045 N.3     1  UNL1       -0.2934
     38 H          -5.2226  -16.7003   23.0562 H       1  UNL1        0.1236
@<TRIPOS>BOND
     1    19    20    1
     2    20    21    1
     3    20    22    1
     4    22    23    1
     5    23    24    1
     6    24    18    1
     7    18    16    1
     8    16    15    1
     9    15    14    1
    10    14    13    1
    11    13    12    1
    12    12     1    1
    13     1    27    1
    14    28    27    1
    15    28    29    1
    16    29    30    1
    17    30    31   ar
    18    31    32   ar
    19    32    33   ar
    20    33    34   ar
    21    34    35   ar
    22    35    36    1
    23    36    37    1
    24     2     1    1
    25     2     3    1
    26     3     4    1
    27     4     5    1
    28     5     6    1
    29     6     7   ar
    30     7     8   ar
    31     8     9   ar
    32     9    10   ar
    33    10    11   ar
    34    24    25    1
    35    25    26    1
    36    26    20    1
    37    37    28    1
    38    11     2    1
    39    35    30   ar
    40    11     6   ar
    41    16    17    1
    42    37    38    1
@<TRIPOS>MOLECULE
*****
 38 42 0 0 0
SMALL
GASTEIGER

@<TRIPOS>ATOM
      1 N          -7.5149  -19.7466   21.7996 N.3     1  UNL1       -0.2679
      2 C          -8.3127  -19.2667   22.9757 C.3     1  UNL1        0.0978
      3 C          -9.2600  -20.1994   23.6703 C.3     1  UNL1        0.0224
      4 C         -10.0578  -19.7195   24.8464 C.3     1  UNL1        0.0065
      5 C          -9.9084  -18.3068   25.3278 C.3     1  UNL1        0.0277
      6 C          -8.9611  -17.3740   24.6332 C.ar    1  UNL1       -0.0073
      7 C          -8.8116  -15.9612   25.1146 C.ar    1  UNL1       -0.0015
      8 C          -7.8643  -15.0284   24.4200 C.ar    1  UNL1        0.0203
      9 C          -7.0665  -15.5084   23.2440 C.ar    1  UNL1        0.0985
     10 N          -7.2159  -16.9211   22.7625 N.ar    1  UNL1       -0.2471
     11 C          -8.1632  -17.8539   23.4571 C.ar    1  UNL1        0.0695
     12 C          -8.0956  -19.6719   20.4187 C.3     1  UNL1        0.0725
     13 C          -9.4028  -18.9721   20.1915 C.3     1  UNL1        0.0188
     14 C         -10.6850  -19.7498   20.2214 C.3     1  UNL1        0.0185
     15 C         -11.3771  -20.0049   21.5275 C.3     1  UNL1        0.0686
     16 N         -12.5627  -19.1752   21.9227 N.3     1  UNL1       -0.2975
     17 H         -13.1983  -19.1711   21.1249 H       1  UNL1        0.1232
     18 C         -12.3739  -17.7449   22.3332 C.3     1  UNL1        0.0685
     19 F          -9.2598  -13.8582   19.4982 F       1  UNL1       -0.2043
     20 C         -10.3930  -14.8405   19.5242 C.3     1  UNL1        0.2639
     21 F         -10.5147  -14.3396   18.1155 F       1  UNL1       -0.2043
     22 C         -11.5686  -15.6489   19.0609 C.3     1  UNL1        0.0666
     23 C         -12.2289  -16.6170   19.9972 C.3     1  UNL1        0.0070
     24 C         -11.7136  -16.7768   21.3968 C.3     1  UNL1        0.0161
     25 C         -10.5381  -15.9684   21.8601 C.3     1  UNL1        0.0070
     26 C          -9.8778  -15.0003   20.9238 C.3     1  UNL1        0.0666
     27 C          -6.1364  -20.3013   22.0046 C.3     1  UNL1        0.0886
     28 C          -4.9392  -19.4106   21.8517 C.3     1  UNL1        0.0748
     29 C          -4.1274  -19.4550   20.5912 C.3     1  UNL1        0.0432
     30 C          -2.9301  -18.5643   20.4383 C.ar    1  UNL1       -0.0234
     31 C          -2.1183  -18.6087   19.1777 C.ar    1  UNL1       -0.0045
     32 C          -0.9212  -17.7181   19.0249 C.ar    1  UNL1       -0.0003
     33 C          -0.5358  -16.7830   20.1326 C.ar    1  UNL1       -0.0003
     34 C          -1.3475  -16.7385   21.3932 C.ar    1  UNL1       -0.0032
     35 C          -2.5447  -17.6292   21.5460 C.ar    1  UNL1       -0.0103
     36 C          -3.3566  -17.5848   22.8066 C.3     1  UNL1        0.0953
     37 N          -4.5537  -18.4755   22.9594 N.3     1  UNL1       -0.2934
     38 H          -5.3552  -17.8660   23.1225 H       1  UNL1        0.1236
@<TRIPOS>BOND
     1    19    20    1
     2    20    21    1
     3    20    22    1
     4    22    23    1
     5    23    24    1
     6    24    18    1
     7    18    16    1
     8    16    15    1
     9    15    14    1
    10    14    13    1
    11    13    12    1
    12    12     1    1
    13     1    27    1
    14    28    27    1
    15    28    29    1
    16    29    30    1
    17    30    31   ar
    18    31    32   ar
    19    32    33   ar
    20    33    34   ar
    21    34    35   ar
    22    35    36    1
    23    36    37    1
    24     2     1    1
    25     2     3    1
    26     3     4    1
    27     4     5    1
    28     5     6    1
    29     6     7   ar
    30     7     8   ar
    31     8     9   ar
    32     9    10   ar
    33    10    11   ar
    34    24    25    1
    35    25    26    1
    36    26    20    1
    37    37    28    1
    38    11     2    1
    39    35    30   ar
    40    11     6   ar
    41    16    17    1
    42    37    38    1
@<TRIPOS>MOLECULE
*****
 38 42 0 0 0
SMALL
GASTEIGER

@<TRIPOS>ATOM
      1 N          -5.7716  -18.9068   21.6572 N.3     1  UNL1       -0.2679
      2 C          -4.3390  -18.5477   21.9190 C.3     1  UNL1        0.0978
      3 C          -3.8256  -18.4898   23.3272 C.3     1  UNL1        0.0224
      4 C          -2.3929  -18.1307   23.5890 C.3     1  UNL1        0.0065
      5 C          -1.4737  -17.8295   22.4427 C.3     1  UNL1        0.0277
      6 C          -1.9871  -17.8874   21.0345 C.ar    1  UNL1       -0.0073
      7 C          -1.0678  -17.5861   19.8880 C.ar    1  UNL1       -0.0015
      8 C          -1.5812  -17.6440   18.4799 C.ar    1  UNL1        0.0203
      9 C          -3.0138  -18.0032   18.2180 C.ar    1  UNL1        0.0985
     10 N          -3.9331  -18.3044   19.3644 N.ar    1  UNL1       -0.2471
     11 C          -3.4197  -18.2465   20.7727 C.ar    1  UNL1        0.0695
     12 C          -6.1583  -20.3400   21.4417 C.3     1  UNL1        0.0725
     13 C          -6.2756  -20.8839   20.0487 C.3     1  UNL1        0.0188
     14 C          -7.6085  -20.9035   19.3610 C.3     1  UNL1        0.0185
     15 C          -8.1586  -19.6462   18.7556 C.3     1  UNL1        0.0686
     16 N          -9.2287  -18.8753   19.4704 N.3     1  UNL1       -0.2975
     17 H          -8.8077  -18.5103   20.3248 H       1  UNL1        0.1232
     18 C         -10.5027  -19.5572   19.8724 C.3     1  UNL1        0.0685
     19 F         -12.6868  -18.6676   25.0955 F       1  UNL1       -0.2043
     20 C         -12.6285  -18.3143   23.6389 C.3     1  UNL1        0.2639
     21 F         -13.6559  -17.3261   24.1057 F       1  UNL1       -0.2043
     22 C         -12.9270  -17.6176   22.3444 C.3     1  UNL1        0.0666
     23 C         -12.2185  -18.0319   21.0889 C.3     1  UNL1        0.0070
     24 C         -11.2114  -19.1429   21.1279 C.3     1  UNL1        0.0161
     25 C         -10.9129  -19.8395   22.4224 C.3     1  UNL1        0.0070
     26 C         -11.6214  -19.4252   23.6778 C.3     1  UNL1        0.0666
     27 C          -6.8176  -17.8328   21.6108 C.3     1  UNL1        0.0886
     28 C          -7.3289  -17.2283   22.8849 C.3     1  UNL1        0.0748
     29 C          -6.3716  -16.6013   23.8546 C.3     1  UNL1        0.0432
     30 C          -6.8829  -15.9968   25.1287 C.ar    1  UNL1       -0.0234
     31 C          -5.9256  -15.3698   26.0984 C.ar    1  UNL1       -0.0045
     32 C          -6.4369  -14.7654   27.3724 C.ar    1  UNL1       -0.0003
     33 C          -7.9056  -14.7879   27.6767 C.ar    1  UNL1       -0.0003
     34 C          -8.8629  -15.4149   26.7070 C.ar    1  UNL1       -0.0032
     35 C          -8.3516  -16.0193   25.4330 C.ar    1  UNL1       -0.0103
     36 C          -9.3089  -16.6464   24.4632 C.3     1  UNL1        0.0953
     37 N          -8.7976  -17.2508   23.1892 N.3     1  UNL1       -0.2934
     38 H          -9.2643  -16.7638   22.4242 H       1  UNL1        0.1236
@<TRIPOS>BOND
     1    19    20    1
     2    20    21    1
     3    20    22    1
     4    22    23    1
     5    23    24    1
     6    24    18    1
     7    18    16    1
     8    16    15    1
     9    15    14    1
    10    14    13    1
    11    13    12    1
    12    12     1    1
    13     1    27    1
    14    28    27    1
    15    28    29    1
    16    29    30    1
    17    30    31   ar
    18    31    32   ar
    19    32    33   ar
    20    33    34   ar
    21    34    35   ar
    22    35    36    1
    23    36    37    1
    24     2     1    1
    25     2     3    1
    26     3     4    1
    27     4     5    1
    28     5     6    1
    29     6     7   ar
    30     7     8   ar
    31     8     9   ar
    32     9    10   ar
    33    10    11   ar
    34    24    25    1
    35    25    26    1
    36    26    20    1
    37    37    28    1
    38    11     2    1
    39    35    30   ar
    40    11     6   ar
    41    16    17    1
    42    37    38    1
@<TRIPOS>MOLECULE
*****
 38 42 0 0 0
SMALL
GASTEIGER

@<TRIPOS>ATOM
      1 N          -7.4160  -17.6578   22.6279 N.3     1  UNL1       -0.2679
      2 C          -6.7440  -16.7178   23.5844 C.3     1  UNL1        0.0978
      3 C          -5.5172  -15.9663   23.1600 C.3     1  UNL1        0.0224
      4 C          -4.8452  -15.0263   24.1164 C.3     1  UNL1        0.0065
      5 C          -5.4000  -14.8378   25.4972 C.3     1  UNL1        0.0277
      6 C          -6.6268  -15.5893   25.9216 C.ar    1  UNL1       -0.0073
      7 C          -7.1816  -15.4009   27.3025 C.ar    1  UNL1       -0.0015
      8 C          -8.4084  -16.1525   27.7269 C.ar    1  UNL1        0.0203
      9 C          -9.0804  -17.0925   26.7704 C.ar    1  UNL1        0.0985
     10 N          -8.5256  -17.2809   25.3896 N.ar    1  UNL1       -0.2471
     11 C          -7.2988  -16.5294   24.9652 C.ar    1  UNL1        0.0695
     12 C          -8.7808  -17.3366   22.0948 C.3     1  UNL1        0.0725
     13 C          -9.1794  -15.9087   21.8653 C.3     1  UNL1        0.0188
     14 C         -10.5096  -15.5912   21.2493 C.3     1  UNL1        0.0185
     15 C         -11.0901  -16.5011   20.2077 C.3     1  UNL1        0.0686
     16 N         -12.5462  -16.8587   20.2514 N.3     1  UNL1       -0.2975
     17 H         -13.0665  -15.9894   20.1332 H       1  UNL1        0.1232
     18 C         -13.1146  -17.5426   21.4593 C.3     1  UNL1        0.0685
     19 F          -9.4562  -21.1619   23.9810 F       1  UNL1       -0.2043
     20 C         -10.4550  -20.0477   24.0863 C.3     1  UNL1        0.2639
     21 F         -10.0955  -20.2129   25.5332 F       1  UNL1       -0.2043
     22 C         -11.3289  -18.9909   24.6941 C.3     1  UNL1        0.0666
     23 C         -12.2154  -18.1559   23.8185 C.3     1  UNL1        0.0070
     24 C         -12.2280  -18.3777   22.3350 C.3     1  UNL1        0.0161
     25 C         -11.3541  -19.4345   21.7272 C.3     1  UNL1        0.0070
     26 C         -10.4676  -20.2695   22.6029 C.3     1  UNL1        0.0666
     27 C          -6.7233  -18.9191   22.2046 C.3     1  UNL1        0.0886
     28 C          -5.2746  -18.8854   21.8171 C.3     1  UNL1        0.0748
     29 C          -4.8714  -18.3753   20.4654 C.3     1  UNL1        0.0432
     30 C          -3.4227  -18.3416   20.0779 C.ar    1  UNL1       -0.0234
     31 C          -3.0195  -17.8315   18.7262 C.ar    1  UNL1       -0.0045
     32 C          -1.5708  -17.7977   18.3388 C.ar    1  UNL1       -0.0003
     33 C          -0.5253  -18.2741   19.3031 C.ar    1  UNL1       -0.0003
     34 C          -0.9285  -18.7842   20.6549 C.ar    1  UNL1       -0.0032
     35 C          -2.3771  -18.8179   21.0423 C.ar    1  UNL1       -0.0103
     36 C          -2.7804  -19.3280   22.3941 C.3     1  UNL1        0.0953
     37 N          -4.2291  -19.3618   22.7815 N.3     1  UNL1       -0.2934
     38 H          -4.3224  -18.7918   23.6222 H       1  UNL1        0.1236
@<TRIPOS>BOND
     1    19    20    1
     2    20    21    1
     3    20    22    1
     4    22    23    1
     5    23    24    1
     6    24    18    1
     7    18    16    1
     8    16    15    1
     9    15    14    1
    10    14    13    1
    11    13    12    1
    12    12     1    1
    13     1    27    1
    14    28    27    1
    15    28    29    1
    16    29    30    1
    17    30    31   ar
    18    31    32   ar
    19    32    33   ar
    20    33    34   ar
    21    34    35   ar
    22    35    36    1
    23    36    37    1
    24     2     1    1
    25     2     3    1
    26     3     4    1
    27     4     5    1
    28     5     6    1
    29     6     7   ar
    30     7     8   ar
    31     8     9   ar
    32     9    10   ar
    33    10    11   ar
    34    24    25    1
    35    25    26    1
    36    26    20    1
    37    37    28    1
    38    11     2    1
    39    35    30   ar
    40    11     6   ar
    41    16    17    1
    42    37    38    1
@<TRIPOS>MOLECULE
*****
 38 42 0 0 0
SMALL
GASTEIGER

@<TRIPOS>ATOM
      1 N          -8.1323  -17.9359   22.7557 N.3     1  UNL1       -0.2679
      2 C          -8.1797  -17.4196   24.1633 C.3     1  UNL1        0.0978
      3 C          -9.2832  -17.8503   25.0834 C.3     1  UNL1        0.0224
      4 C          -9.3306  -17.3340   26.4909 C.3     1  UNL1        0.0065
      5 C          -8.2745  -16.3870   26.9783 C.3     1  UNL1        0.0277
      6 C          -7.1710  -15.9562   26.0582 C.ar    1  UNL1       -0.0073
      7 C          -6.1148  -15.0091   26.5456 C.ar    1  UNL1       -0.0015
      8 C          -5.0113  -14.5783   25.6255 C.ar    1  UNL1        0.0203
      9 C          -4.9639  -15.0946   24.2179 C.ar    1  UNL1        0.0985
     10 N          -6.0200  -16.0417   23.7305 N.ar    1  UNL1       -0.2471
     11 C          -7.1236  -16.4725   24.6507 C.ar    1  UNL1        0.0695
     12 C          -8.9103  -17.2435   21.6763 C.3     1  UNL1        0.0725
     13 C          -9.1346  -15.7619   21.7461 C.3     1  UNL1        0.0188
     14 C         -10.3474  -15.1559   21.1043 C.3     1  UNL1        0.0185
     15 C         -10.7088  -15.5167   19.6939 C.3     1  UNL1        0.0686
     16 N         -12.0985  -15.9800   19.3709 N.3     1  UNL1       -0.2975
     17 H         -12.5823  -15.1875   18.9486 H       1  UNL1        0.1232
     18 C         -12.9882  -16.4997   20.4609 C.3     1  UNL1        0.0685
     19 F         -10.6858  -20.8949   23.3285 F       1  UNL1       -0.2043
     20 C         -11.4498  -19.6041   23.3325 C.3     1  UNL1        0.2639
     21 F         -11.4282  -19.8986   24.8032 F       1  UNL1       -0.2043
     22 C         -12.2063  -18.4155   23.8474 C.3     1  UNL1        0.0666
     23 C         -12.7191  -17.3807   22.8902 C.3     1  UNL1        0.0070
     24 C         -12.4754  -17.5345   21.4182 C.3     1  UNL1        0.0161
     25 C         -11.7189  -18.7230   20.9033 C.3     1  UNL1        0.0070
     26 C         -11.2061  -19.7578   21.8605 C.3     1  UNL1        0.0666
     27 C          -7.3070  -19.1447   22.4276 C.3     1  UNL1        0.0886
     28 C          -6.0613  -19.0014   21.6043 C.3     1  UNL1        0.0748
     29 C          -4.7344  -18.8141   22.2781 C.3     1  UNL1        0.0432
     30 C          -3.4887  -18.6709   21.4548 C.ar    1  UNL1       -0.0234
     31 C          -2.1617  -18.4836   22.1287 C.ar    1  UNL1       -0.0045
     32 C          -0.9161  -18.3404   21.3053 C.ar    1  UNL1       -0.0003
     33 C          -0.9975  -18.3843   19.8082 C.ar    1  UNL1       -0.0003
     34 C          -2.3244  -18.5715   19.1344 C.ar    1  UNL1       -0.0032
     35 C          -3.5700  -18.7148   19.9577 C.ar    1  UNL1       -0.0103
     36 C          -4.8971  -18.9020   19.2839 C.3     1  UNL1        0.0953
     37 N          -6.1427  -19.0453   20.1072 N.3     1  UNL1       -0.2934
     38 H          -6.5565  -19.9445   19.8610 H       1  UNL1        0.1236
@<TRIPOS>BOND
     1    19    20    1
     2    20    21    1
     3    20    22    1
     4    22    23    1
     5    23    24    1
     6    24    18    1
     7    18    16    1
     8    16    15    1
     9    15    14    1
    10    14    13    1
    11    13    12    1
    12    12     1    1
    13     1    27    1
    14    28    27    1
    15    28    29    1
    16    29    30    1
    17    30    31   ar
    18    31    32   ar
    19    32    33   ar
    20    33    34   ar
    21    34    35   ar
    22    35    36    1
    23    36    37    1
    24     2     1    1
    25     2     3    1
    26     3     4    1
    27     4     5    1
    28     5     6    1
    29     6     7   ar
    30     7     8   ar
    31     8     9   ar
    32     9    10   ar
    33    10    11   ar
    34    24    25    1
    35    25    26    1
    36    26    20    1
    37    37    28    1
    38    11     2    1
    39    35    30   ar
    40    11     6   ar
    41    16    17    1
    42    37    38    1
@<TRIPOS>MOLECULE
*****
 38 42 0 0 0
SMALL
GASTEIGER

@<TRIPOS>ATOM
      1 N           7.6181   -5.5644   27.1809 N.3     1  UNL1       -0.2679
      2 C           7.4502   -5.1526   28.6135 C.3     1  UNL1        0.0978
      3 C           7.9892   -6.0209   29.7115 C.3     1  UNL1        0.0224
      4 C           7.8213   -5.6091   31.1441 C.3     1  UNL1        0.0065
      5 C           7.1145   -4.3291   31.4787 C.3     1  UNL1        0.0277
      6 C           6.5756   -3.4609   30.3807 C.ar    1  UNL1       -0.0073
      7 C           5.8687   -2.1808   30.7152 C.ar    1  UNL1       -0.0015
      8 C           5.3298   -1.3126   29.6172 C.ar    1  UNL1        0.0203
      9 C           5.4976   -1.7243   28.1846 C.ar    1  UNL1        0.0985
     10 N           6.2044   -3.0043   27.8501 N.ar    1  UNL1       -0.2471
     11 C           6.7434   -3.8726   28.9481 C.ar    1  UNL1        0.0695
     12 C           6.9230   -6.7900   26.6664 C.3     1  UNL1        0.0725
     13 C           7.7140   -8.0262   26.3560 C.3     1  UNL1        0.0188
     14 C           8.4243   -8.7580   27.4560 C.3     1  UNL1        0.0185
     15 C           8.1341  -10.2092   27.7005 C.3     1  UNL1        0.0686
     16 N           6.7490  -10.6437   28.0786 N.3     1  UNL1       -0.2975
     17 H           6.5533  -10.2395   28.9944 H       1  UNL1        0.1232
     18 C           6.4201  -12.1043   28.1708 C.3     1  UNL1        0.0685
     19 F           1.1472  -14.2863   27.6450 F       1  UNL1       -0.2043
     20 C           2.1270  -13.4342   28.3958 C.3     1  UNL1        0.2639
     21 F           0.9144  -13.2612   29.2616 F       1  UNL1       -0.2043
     22 C           2.6857  -12.5220   29.4473 C.3     1  UNL1        0.0666
     23 C           4.1167  -12.0787   29.3724 C.3     1  UNL1        0.0070
     24 C           4.9890  -12.5476   28.2458 C.3     1  UNL1        0.0161
     25 C           4.4304  -13.4598   27.1943 C.3     1  UNL1        0.0070
     26 C           2.9994  -13.9031   27.2693 C.3     1  UNL1        0.0666
     27 C           8.4810   -4.7505   26.2628 C.3     1  UNL1        0.0886
     28 C           8.0436   -4.4977   24.8504 C.3     1  UNL1        0.0748
     29 C           6.6263   -4.0984   24.5642 C.3     1  UNL1        0.0432
     30 C           6.1889   -3.8456   23.1518 C.ar    1  UNL1       -0.0234
     31 C           4.7717   -3.4463   22.8657 C.ar    1  UNL1       -0.0045
     32 C           4.3343   -3.1936   21.4533 C.ar    1  UNL1       -0.0003
     33 C           5.3142   -3.3402   20.3271 C.ar    1  UNL1       -0.0003
     34 C           6.7314   -3.7395   20.6132 C.ar    1  UNL1       -0.0032
     35 C           7.1688   -3.9922   22.0256 C.ar    1  UNL1       -0.0103
     36 C           8.5861   -4.3916   22.3118 C.3     1  UNL1        0.0953
     37 N           9.0235   -4.6443   23.7242 N.3     1  UNL1       -0.2934
     38 H           9.7900   -3.9991   23.9150 H       1  UNL1        0.1236
@<TRIPOS>BOND
     1    19    20    1
     2    20    21    1
     3    20    22    1
     4    22    23    1
     5    23    24    1
     6    24    18    1
     7    18    16    1
     8    16    15    1
     9    15    14    1
    10    14    13    1
    11    13    12    1
    12    12     1    1
    13     1    27    1
    14    28    27    1
    15    28    29    1
    16    29    30    1
    17    30    31   ar
    18    31    32   ar
    19    32    33   ar
    20    33    34   ar
    21    34    35   ar
    22    35    36    1
    23    36    37    1
    24     2     1    1
    25     2     3    1
    26     3     4    1
    27     4     5    1
    28     5     6    1
    29     6     7   ar
    30     7     8   ar
    31     8     9   ar
    32     9    10   ar
    33    10    11   ar
    34    24    25    1
    35    25    26    1
    36    26    20    1
    37    37    28    1
    38    11     2    1
    39    35    30   ar
    40    11     6   ar
    41    16    17    1
    42    37    38    1
