@<TRIPOS>MOLECULE
*****
 30 34 0 0 0
SMALL
GASTEIGER

@<TRIPOS>ATOM
      1 C          -9.2069  -16.9752   22.2797 C.ar    1  UNL1        0.1346
      2 C          -9.0040  -16.3528   23.6293 C.ar    1  UNL1        0.0500
      3 C          -7.7163  -16.5673   24.3682 C.ar    1  UNL1        0.0752
      4 N          -6.6317  -17.4041   23.7576 N.ar    1  UNL1       -0.2302
      5 C          -6.8345  -18.0266   22.4079 C.ar    1  UNL1        0.1603
      6 N          -8.1222  -17.8121   21.6689 N.ar    1  UNL1       -0.2122
      7 C          -5.7498  -18.8634   21.7972 C.2     1  UNL1        0.0332
      8 C          -6.1015  -19.9746   20.8530 C.2     1  UNL1        0.0501
      9 C          -5.0168  -20.8115   20.2423 C.2     1  UNL1        0.2355
     10 N          -3.5802  -20.5371   20.5758 N.2     1  UNL1       -0.0341
     11 C          -3.2285  -19.4259   21.5199 C.2     1  UNL1        0.3594
     12 N          -1.9114  -18.9238   22.0327 N.2     1  UNL1       -0.0344
     13 C          -2.1821  -17.7765   22.9604 C.2     1  UNL1        0.2320
     14 C          -3.6666  -17.5697   23.0209 C.2     1  UNL1        0.0409
     15 C          -4.3133  -18.5891   22.1306 C.3     1  UNL1        0.1630
     16 C         -11.7117  -18.3448   23.2018 C.3     1  UNL1        0.0241
     17 C         -11.7469  -17.4455   22.0019 C.3     1  UNL1        0.1038
     18 C         -13.0345  -17.2310   21.2629 C.3     1  UNL1        0.1618
     19 O         -13.0697  -16.3317   20.0630 O.3     1  UNL1       -0.3502
     20 C         -11.8175  -15.6468   19.6018 C.3     1  UNL1        0.1636
     21 C         -10.5298  -15.8613   20.3408 C.3     1  UNL1        0.1242
     22 N         -10.4945  -16.7607   21.5408 N.pl3   1  UNL1       -0.2897
     23 C          -7.5135  -15.9450   25.7179 C.3     1  UNL1        0.1119
     24 C          -7.7827  -15.5323   27.1347 C.3     1  UNL1        0.0204
     25 C          -8.8024  -16.3328   26.3799 C.3     1  UNL1        0.0204
     26 S          -6.1541  -15.3410   25.5245 S.3     1  UNL1        0.0687
     27 C          -4.7949  -14.7370   25.3311 C.3     1  UNL1        0.1170
     28 N          -6.6909  -14.4891   24.4126 N.2     1  UNL1       -0.2504
     29 O          -5.6174  -16.1929   26.6363 O.2     1  UNL1       -0.2461
     30 H          -7.6396  -14.5528   24.1577 H       1  UNL1        0.1971
@<TRIPOS>BOND
     1    17    16    1
     2    17    18    1
     3    18    19    1
     4    19    20    1
     5    20    21    1
     6    21    22    1
     7    22     1    1
     8     1     2   ar
     9     2     3   ar
    10     3    23    1
    11    23    26    1
    12    26    27    1
    13    26    28    2
    14    26    29    2
    15    23    24    1
    16    24    25    1
    17     3     4   ar
    18     4     5   ar
    19     5     7    1
    20     7     8    2
    21     8     9    1
    22     9    10    2
    23    10    11    1
    24    11    12    2
    25    12    13    1
    26    13    14    2
    27    14    15    1
    28     5     6   ar
    29    22    17    1
    30     6     1   ar
    31    25    23    1
    32    15     7    1
    33    15    11    1
    34    28    30    1
@<TRIPOS>MOLECULE
*****
 30 34 0 0 0
SMALL
GASTEIGER

@<TRIPOS>ATOM
      1 C          -8.0216  -16.6572   23.7777 C.ar    1  UNL1        0.1346
      2 C          -9.3402  -16.3273   23.1434 C.ar    1  UNL1        0.0500
      3 C          -9.7302  -16.9710   21.8459 C.ar    1  UNL1        0.0752
      4 N          -8.8017  -17.9446   21.1827 N.ar    1  UNL1       -0.2302
      5 C          -7.4830  -18.2745   21.8170 C.ar    1  UNL1        0.1603
      6 N          -7.0929  -17.6308   23.1145 N.ar    1  UNL1       -0.2122
      7 C          -6.5544  -19.2481   21.1538 C.2     1  UNL1        0.0332
      8 C          -7.0924  -20.2513   20.1770 C.2     1  UNL1        0.0501
      9 C          -6.1639  -21.2249   19.5138 C.2     1  UNL1        0.2355
     10 N          -4.6973  -21.1953   19.8274 N.2     1  UNL1       -0.0341
     11 C          -4.1593  -20.1921   20.8042 C.2     1  UNL1        0.3594
     12 N          -2.7717  -19.9259   21.3077 N.2     1  UNL1       -0.0344
     13 C          -2.8426  -18.7878   22.2822 C.2     1  UNL1        0.2320
     14 C          -4.2741  -18.3506   22.3809 C.2     1  UNL1        0.0409
     15 C          -5.0879  -19.2185   21.4674 C.3     1  UNL1        0.1630
     16 C          -5.3163  -15.3944   24.0720 C.3     1  UNL1        0.0241
     17 C          -6.2788  -15.3821   25.2224 C.3     1  UNL1        0.1038
     18 C          -5.8888  -14.7384   26.5199 C.3     1  UNL1        0.1618
     19 O          -6.8514  -14.7261   27.6702 O.3     1  UNL1       -0.3502
     20 C          -8.2040  -15.3575   27.5231 C.3     1  UNL1        0.1636
     21 C          -8.5941  -16.0012   26.2256 C.3     1  UNL1        0.1242
     22 N          -7.6315  -16.0135   25.0752 N.pl3   1  UNL1       -0.2897
     23 C         -11.0489  -16.6411   21.2116 C.3     1  UNL1        0.1119
     24 C         -12.0438  -16.1003   20.2279 C.3     1  UNL1        0.0204
     25 C         -10.5746  -15.9193   19.9851 C.3     1  UNL1        0.0204
     26 S         -11.9810  -17.2483   22.2178 S.3     1  UNL1        0.0687
     27 C         -12.9131  -17.8555   23.2239 C.3     1  UNL1        0.1170
     28 N         -11.5553  -18.6198   21.7844 N.2     1  UNL1       -0.2504
     29 O         -12.4067  -15.8768   22.6511 O.2     1  UNL1       -0.2461
     30 H         -10.8858  -18.7248   21.0703 H       1  UNL1        0.1971
@<TRIPOS>BOND
     1    17    16    1
     2    17    18    1
     3    18    19    1
     4    19    20    1
     5    20    21    1
     6    21    22    1
     7    22     1    1
     8     1     2   ar
     9     2     3   ar
    10     3    23    1
    11    23    26    1
    12    26    27    1
    13    26    28    2
    14    26    29    2
    15    23    24    1
    16    24    25    1
    17     3     4   ar
    18     4     5   ar
    19     5     7    1
    20     7     8    2
    21     8     9    1
    22     9    10    2
    23    10    11    1
    24    11    12    2
    25    12    13    1
    26    13    14    2
    27    14    15    1
    28     5     6   ar
    29    22    17    1
    30     6     1   ar
    31    25    23    1
    32    15     7    1
    33    15    11    1
    34    28    30    1
@<TRIPOS>MOLECULE
*****
 30 34 0 0 0
SMALL
GASTEIGER

@<TRIPOS>ATOM
      1 C          -8.5295  -17.0543   22.2191 C.ar    1  UNL1        0.1346
      2 C          -8.6836  -16.4669   23.5907 C.ar    1  UNL1        0.0500
      3 C          -7.5130  -16.4339   24.5283 C.ar    1  UNL1        0.0752
      4 N          -6.1886  -16.9882   24.0942 N.ar    1  UNL1       -0.2302
      5 C          -6.0345  -17.5756   22.7225 C.ar    1  UNL1        0.1603
      6 N          -7.2050  -17.6086   21.7850 N.ar    1  UNL1       -0.2122
      7 C          -4.7100  -18.1299   22.2885 C.2     1  UNL1        0.0332
      8 C          -3.4385  -17.4731   22.7378 C.2     1  UNL1        0.0501
      9 C          -2.1141  -18.0273   22.3038 C.2     1  UNL1        0.2355
     10 N          -2.0610  -19.2385   21.4204 N.2     1  UNL1       -0.0341
     11 C          -3.3325  -19.8954   20.9711 C.2     1  UNL1        0.3594
     12 N          -3.5921  -21.0923   20.1052 N.2     1  UNL1       -0.0344
     13 C          -5.0772  -21.2778   20.0041 C.2     1  UNL1        0.2320
     14 C          -5.7353  -20.1955   20.8075 C.2     1  UNL1        0.0409
     15 C          -4.6570  -19.3410   21.4052 C.3     1  UNL1        0.1630
     16 C          -9.3133  -19.6262   20.8883 C.3     1  UNL1        0.0241
     17 C         -10.0918  -18.3733   20.6162 C.3     1  UNL1        0.1038
     18 C         -11.2622  -18.4063   19.6787 C.3     1  UNL1        0.1618
     19 O         -12.0408  -17.1534   19.4066 O.3     1  UNL1       -0.3502
     20 C         -11.6490  -15.8675   20.0719 C.3     1  UNL1        0.1636
     21 C         -10.4785  -15.8344   21.0095 C.3     1  UNL1        0.1242
     22 N          -9.6999  -17.0873   21.2816 N.pl3   1  UNL1       -0.2897
     23 C          -7.6671  -15.8465   25.8998 C.3     1  UNL1        0.1119
     24 C          -8.2970  -15.4607   27.2054 C.3     1  UNL1        0.0204
     25 C          -9.0907  -16.2229   26.1859 C.3     1  UNL1        0.0204
     26 S          -6.2971  -15.2662   26.0900 S.3     1  UNL1        0.0687
     27 C          -4.9271  -14.6859   26.2803 C.3     1  UNL1        0.1170
     28 N          -6.5095  -14.3754   24.9020 N.2     1  UNL1       -0.2504
     29 O          -6.0847  -16.1570   27.2781 O.2     1  UNL1       -0.2461
     30 H          -7.3579  -14.4129   24.4040 H       1  UNL1        0.1971
@<TRIPOS>BOND
     1    17    16    1
     2    17    18    1
     3    18    19    1
     4    19    20    1
     5    20    21    1
     6    21    22    1
     7    22     1    1
     8     1     2   ar
     9     2     3   ar
    10     3    23    1
    11    23    26    1
    12    26    27    1
    13    26    28    2
    14    26    29    2
    15    23    24    1
    16    24    25    1
    17     3     4   ar
    18     4     5   ar
    19     5     7    1
    20     7     8    2
    21     8     9    1
    22     9    10    2
    23    10    11    1
    24    11    12    2
    25    12    13    1
    26    13    14    2
    27    14    15    1
    28     5     6   ar
    29    22    17    1
    30     6     1   ar
    31    25    23    1
    32    15     7    1
    33    15    11    1
    34    28    30    1
@<TRIPOS>MOLECULE
*****
 30 34 0 0 0
SMALL
GASTEIGER

@<TRIPOS>ATOM
      1 C          -4.9203  -17.8741   22.2049 C.ar    1  UNL1        0.1346
      2 C          -4.9753  -17.0387   23.4495 C.ar    1  UNL1        0.0500
      3 C          -6.2997  -16.5974   23.9987 C.ar    1  UNL1        0.0752
      4 N          -7.5689  -16.9916   23.3033 N.ar    1  UNL1       -0.2302
      5 C          -7.5138  -17.8270   22.0586 C.ar    1  UNL1        0.1603
      6 N          -6.1896  -18.2683   21.5094 N.ar    1  UNL1       -0.2122
      7 C          -8.7831  -18.2212   21.3631 C.2     1  UNL1        0.0332
      8 C          -8.7738  -19.3374   20.3611 C.2     1  UNL1        0.0501
      9 C         -10.0430  -19.7316   19.6657 C.2     1  UNL1        0.2355
     10 N         -11.3216  -19.0095   19.9723 N.2     1  UNL1       -0.0341
     11 C         -11.3309  -17.8934   20.9743 C.2     1  UNL1        0.3594
     12 N         -12.4303  -17.0058   21.4778 N.2     1  UNL1       -0.0344
     13 C         -11.8405  -16.0631   22.4845 C.2     1  UNL1        0.2320
     14 C         -10.3766  -16.3680   22.6031 C.2     1  UNL1        0.0409
     15 C         -10.0616  -17.4992   21.6697 C.3     1  UNL1        0.1630
     16 C          -2.6416  -15.9297   22.0404 C.3     1  UNL1        0.0241
     17 C          -2.4567  -17.3431   21.5735 C.3     1  UNL1        0.1038
     18 C          -1.1324  -17.7844   21.0244 C.3     1  UNL1        0.1618
     19 O          -0.9475  -19.1978   20.5575 O.3     1  UNL1       -0.3502
     20 C          -2.0867  -20.1700   20.6397 C.3     1  UNL1        0.1636
     21 C          -3.4111  -19.7288   21.1888 C.3     1  UNL1        0.1242
     22 N          -3.5960  -18.3153   21.6558 N.pl3   1  UNL1       -0.2897
     23 C          -6.3547  -15.7620   25.2433 C.3     1  UNL1        0.1119
     24 C          -5.9066  -15.0613   26.4916 C.3     1  UNL1        0.0204
     25 C          -4.9249  -15.8599   25.6861 C.3     1  UNL1        0.0204
     26 S          -7.8037  -15.3740   25.2327 S.3     1  UNL1        0.0687
     27 C          -9.2525  -14.9861   25.2221 C.3     1  UNL1        0.1170
     28 N          -7.5049  -14.2852   24.2451 N.2     1  UNL1       -0.2504
     29 O          -8.1024  -16.4629   26.2202 O.2     1  UNL1       -0.2461
     30 H          -6.5833  -14.1485   23.9271 H       1  UNL1        0.1971
@<TRIPOS>BOND
     1    17    16    1
     2    17    18    1
     3    18    19    1
     4    19    20    1
     5    20    21    1
     6    21    22    1
     7    22     1    1
     8     1     2   ar
     9     2     3   ar
    10     3    23    1
    11    23    26    1
    12    26    27    1
    13    26    28    2
    14    26    29    2
    15    23    24    1
    16    24    25    1
    17     3     4   ar
    18     4     5   ar
    19     5     7    1
    20     7     8    2
    21     8     9    1
    22     9    10    2
    23    10    11    1
    24    11    12    2
    25    12    13    1
    26    13    14    2
    27    14    15    1
    28     5     6   ar
    29    22    17    1
    30     6     1   ar
    31    25    23    1
    32    15     7    1
    33    15    11    1
    34    28    30    1
@<TRIPOS>MOLECULE
*****
 30 34 0 0 0
SMALL
GASTEIGER

@<TRIPOS>ATOM
      1 C          -7.7695  -17.0316   23.9574 C.ar    1  UNL1        0.1346
      2 C          -9.1786  -17.0525   23.4438 C.ar    1  UNL1        0.0500
      3 C          -9.5192  -17.8505   22.2201 C.ar    1  UNL1        0.0752
      4 N          -8.4506  -18.6275   21.5101 N.ar    1  UNL1       -0.2302
      5 C          -7.0413  -18.6067   22.0237 C.ar    1  UNL1        0.1603
      6 N          -6.7008  -17.8087   23.2474 N.ar    1  UNL1       -0.2122
      7 C          -5.9727  -19.3837   21.3137 C.2     1  UNL1        0.0332
      8 C          -6.3499  -20.4422   20.3200 C.2     1  UNL1        0.0501
      9 C          -5.2813  -21.2192   19.6100 C.2     1  UNL1        0.2355
     10 N          -3.8354  -20.9379   19.8935 N.2     1  UNL1       -0.0341
     11 C          -3.4582  -19.8794   20.8871 C.2     1  UNL1        0.3594
     12 N          -2.1270  -19.3839   21.3690 N.2     1  UNL1       -0.0344
     13 C          -2.3729  -18.3005   22.3769 C.2     1  UNL1        0.2320
     14 C          -3.8561  -18.1265   22.5180 C.2     1  UNL1        0.0409
     15 C          -4.5269  -19.1024   21.5972 C.3     1  UNL1        0.1630
     16 C          -9.3345  -17.4226   26.4868 C.3     1  UNL1        0.0241
     17 C          -8.2115  -16.4292   26.4457 C.3     1  UNL1        0.1038
     18 C          -7.8709  -15.6312   27.6693 C.3     1  UNL1        0.1618
     19 O          -6.7478  -14.6378   27.6283 O.3     1  UNL1       -0.3502
     20 C          -5.9652  -14.4422   26.3637 C.3     1  UNL1        0.1636
     21 C          -6.3057  -15.2402   25.1400 C.3     1  UNL1        0.1242
     22 N          -7.4289  -16.2337   25.1810 N.pl3   1  UNL1       -0.2897
     23 C         -10.9283  -17.8714   21.7066 C.3     1  UNL1        0.1119
     24 C         -12.3506  -18.3056   21.5099 C.3     1  UNL1        0.0204
     25 C         -11.4553  -19.0687   22.4406 C.3     1  UNL1        0.0204
     26 S         -10.8907  -16.6813   20.7942 S.3     1  UNL1        0.0687
     27 C         -10.8530  -15.4913   19.8820 C.3     1  UNL1        0.1170
     28 N         -10.3851  -17.5506   19.6812 N.2     1  UNL1       -0.2504
     29 O         -11.3962  -15.8121   21.9073 O.2     1  UNL1       -0.2461
     30 H         -10.2406  -18.5123   19.8345 H       1  UNL1        0.1971
@<TRIPOS>BOND
     1    17    16    1
     2    17    18    1
     3    18    19    1
     4    19    20    1
     5    20    21    1
     6    21    22    1
     7    22     1    1
     8     1     2   ar
     9     2     3   ar
    10     3    23    1
    11    23    26    1
    12    26    27    1
    13    26    28    2
    14    26    29    2
    15    23    24    1
    16    24    25    1
    17     3     4   ar
    18     4     5   ar
    19     5     7    1
    20     7     8    2
    21     8     9    1
    22     9    10    2
    23    10    11    1
    24    11    12    2
    25    12    13    1
    26    13    14    2
    27    14    15    1
    28     5     6   ar
    29    22    17    1
    30     6     1   ar
    31    25    23    1
    32    15     7    1
    33    15    11    1
    34    28    30    1
@<TRIPOS>MOLECULE
*****
 30 34 0 0 0
SMALL
GASTEIGER

@<TRIPOS>ATOM
      1 C         -14.8445   -5.7656   18.5398 C.ar    1  UNL1        0.1346
      2 C         -13.3882   -6.0929   18.3906 C.ar    1  UNL1        0.0500
      3 C         -12.3635   -4.9992   18.4531 C.ar    1  UNL1        0.0752
      4 N         -12.7950   -3.5784   18.6648 N.ar    1  UNL1       -0.2302
      5 C         -14.2514   -3.2511   18.8140 C.ar    1  UNL1        0.1603
      6 N         -15.2761   -4.3447   18.7515 N.ar    1  UNL1       -0.2122
      7 C         -14.6829   -1.8302   19.0258 C.2     1  UNL1        0.0332
      8 C         -15.9264   -1.5329   19.8101 C.2     1  UNL1        0.0501
      9 C         -16.3579   -0.1121   20.0218 C.2     1  UNL1        0.2355
     10 N         -15.5459    1.0116   19.4492 N.2     1  UNL1       -0.0341
     11 C         -14.3024    0.7144   18.6648 C.2     1  UNL1        0.3594
     12 N         -13.3070    1.6073   17.9851 N.2     1  UNL1       -0.0344
     13 C         -12.2604    0.7382   17.3533 C.2     1  UNL1        0.2320
     14 C         -12.6088   -0.6918   17.6425 C.2     1  UNL1        0.0409
     15 C         -13.8709   -0.7065   18.4531 C.3     1  UNL1        0.1630
     16 C         -16.3347   -6.2809   15.9876 C.3     1  UNL1        0.0241
     17 C         -16.6143   -7.1169   17.2012 C.3     1  UNL1        0.1038
     18 C         -17.6390   -8.2105   17.1387 C.3     1  UNL1        0.1618
     19 O         -17.9186   -9.0465   18.3523 O.3     1  UNL1       -0.3502
     20 C         -17.1736   -8.7890   19.6284 C.3     1  UNL1        0.1636
     21 C         -16.1488   -7.6953   19.6910 C.3     1  UNL1        0.1242
     22 N         -15.8692   -6.8593   18.4773 N.pl3   1  UNL1       -0.2897
     23 C         -10.9073   -5.3265   18.3039 C.3     1  UNL1        0.1119
     24 C          -9.6146   -6.0807   18.4045 C.3     1  UNL1        0.0204
     25 C         -10.8725   -6.6694   18.9713 C.3     1  UNL1        0.0204
     26 S         -10.4365   -4.0972   17.5848 S.3     1  UNL1        0.0687
     27 C          -9.9657   -2.8680   16.8656 C.3     1  UNL1        0.1170
     28 N          -9.9040   -3.5466   18.8745 N.2     1  UNL1       -0.2504
     29 O         -10.9689   -4.6478   16.2950 O.2     1  UNL1       -0.2461
     30 H          -9.9969   -4.0646   19.7065 H       1  UNL1        0.1971
@<TRIPOS>BOND
     1    17    16    1
     2    17    18    1
     3    18    19    1
     4    19    20    1
     5    20    21    1
     6    21    22    1
     7    22     1    1
     8     1     2   ar
     9     2     3   ar
    10     3    23    1
    11    23    26    1
    12    26    27    1
    13    26    28    2
    14    26    29    2
    15    23    24    1
    16    24    25    1
    17     3     4   ar
    18     4     5   ar
    19     5     7    1
    20     7     8    2
    21     8     9    1
    22     9    10    2
    23    10    11    1
    24    11    12    2
    25    12    13    1
    26    13    14    2
    27    14    15    1
    28     5     6   ar
    29    22    17    1
    30     6     1   ar
    31    25    23    1
    32    15     7    1
    33    15    11    1
    34    28    30    1
@<TRIPOS>MOLECULE
*****
 30 34 0 0 0
SMALL
GASTEIGER

@<TRIPOS>ATOM
      1 C          -6.5221  -16.7944   23.9226 C.ar    1  UNL1        0.1346
      2 C          -5.1203  -17.1205   23.4998 C.ar    1  UNL1        0.0500
      3 C          -4.8772  -17.8709   22.2239 C.ar    1  UNL1        0.0752
      4 N          -6.0358  -18.2952   21.3709 N.ar    1  UNL1       -0.2302
      5 C          -7.4376  -17.9691   21.7938 C.ar    1  UNL1        0.1603
      6 N          -7.6808  -17.2187   23.0696 N.ar    1  UNL1       -0.2122
      7 C          -8.5962  -18.3934   20.9408 C.2     1  UNL1        0.0332
      8 C          -8.4418  -19.5352   19.9803 C.2     1  UNL1        0.0501
      9 C          -9.6003  -19.9595   19.1273 C.2     1  UNL1        0.2355
     10 N         -10.9133  -19.2421   19.2347 N.2     1  UNL1       -0.0341
     11 C         -11.0676  -18.1004   20.1952 C.2     1  UNL1        0.3594
     12 N         -12.2314  -17.2107   20.5180 N.2     1  UNL1       -0.0344
     13 C         -11.7920  -16.2365   21.5705 C.2     1  UNL1        0.2320
     14 C         -10.3568  -16.5241   21.8982 C.2     1  UNL1        0.0409
     15 C          -9.9091  -17.6760   21.0482 C.3     1  UNL1        0.1630
     16 C          -9.1758  -17.0073   25.3056 C.3     1  UNL1        0.0241
     17 C          -8.0921  -16.1504   25.8899 C.3     1  UNL1        0.1038
     18 C          -8.3353  -15.4000   27.1658 C.3     1  UNL1        0.1618
     19 O          -7.2516  -14.5432   27.7501 O.3     1  UNL1       -0.3502
     20 C          -5.9248  -14.4367   27.0587 C.3     1  UNL1        0.1636
     21 C          -5.6815  -15.1871   25.7828 C.3     1  UNL1        0.1242
     22 N          -6.7653  -16.0440   25.1984 N.pl3   1  UNL1       -0.2897
     23 C          -3.4755  -18.1970   21.8011 C.3     1  UNL1        0.1119
     24 C          -1.9817  -18.1167   21.6910 C.3     1  UNL1        0.0204
     25 C          -2.7237  -17.1401   22.5546 C.3     1  UNL1        0.0204
     26 S          -3.7406  -19.3671   20.9008 S.3     1  UNL1        0.0687
     27 C          -4.0056  -20.5372   20.0006 C.3     1  UNL1        0.1170
     28 N          -3.6705  -18.4634   19.7056 N.2     1  UNL1       -0.2504
     29 O          -3.8106  -20.2708   22.0960 O.2     1  UNL1       -0.2461
     30 H          -3.4968  -17.5018   19.8251 H       1  UNL1        0.1971
@<TRIPOS>BOND
     1    17    16    1
     2    17    18    1
     3    18    19    1
     4    19    20    1
     5    20    21    1
     6    21    22    1
     7    22     1    1
     8     1     2   ar
     9     2     3   ar
    10     3    23    1
    11    23    26    1
    12    26    27    1
    13    26    28    2
    14    26    29    2
    15    23    24    1
    16    24    25    1
    17     3     4   ar
    18     4     5   ar
    19     5     7    1
    20     7     8    2
    21     8     9    1
    22     9    10    2
    23    10    11    1
    24    11    12    2
    25    12    13    1
    26    13    14    2
    27    14    15    1
    28     5     6   ar
    29    22    17    1
    30     6     1   ar
    31    25    23    1
    32    15     7    1
    33    15    11    1
    34    28    30    1
@<TRIPOS>MOLECULE
*****
 30 34 0 0 0
SMALL
GASTEIGER

@<TRIPOS>ATOM
      1 C         -13.9434   -4.8797   18.7485 C.ar    1  UNL1        0.1346
      2 C         -14.5307   -3.5187   18.9783 C.ar    1  UNL1        0.0500
      3 C         -15.9735   -3.3800   19.3644 C.ar    1  UNL1        0.0752
      4 N         -16.8290   -4.6021   19.5207 N.ar    1  UNL1       -0.2302
      5 C         -16.2417   -5.9631   19.2909 C.ar    1  UNL1        0.1603
      6 N         -14.7989   -6.1020   18.9048 N.ar    1  UNL1       -0.2122
      7 C         -17.0972   -7.1853   19.4472 C.2     1  UNL1        0.0332
      8 C         -18.4591   -7.0734   20.0659 C.2     1  UNL1        0.0501
      9 C         -19.3146   -8.2954   20.2222 C.2     1  UNL1        0.2355
     10 N         -18.8082   -9.6296   19.7599 N.2     1  UNL1       -0.0341
     11 C         -17.4464   -9.7416   19.1412 C.2     1  UNL1        0.3594
     12 N         -16.6849  -10.9133   18.5960 N.2     1  UNL1       -0.0344
     13 C         -15.3588  -10.4153   18.1027 C.2     1  UNL1        0.2320
     14 C         -15.3006   -8.9358   18.3430 C.2     1  UNL1        0.0409
     15 C         -16.5908   -8.5194   18.9849 C.3     1  UNL1        0.1630
     16 C         -13.2110   -5.7909   15.9856 C.3     1  UNL1        0.0241
     17 C         -12.1344   -5.4741   16.9809 C.3     1  UNL1        0.1038
     18 C         -10.6917   -5.6130   16.5948 C.3     1  UNL1        0.1618
     19 O          -9.6151   -5.2962   17.5901 O.3     1  UNL1       -0.3502
     20 C          -9.9812   -4.8407   18.9715 C.3     1  UNL1        0.1636
     21 C         -11.4240   -4.7018   19.3577 C.3     1  UNL1        0.1242
     22 N         -12.5007   -5.0186   18.3624 N.pl3   1  UNL1       -0.2897
     23 C         -16.5608   -2.0190   19.5942 C.3     1  UNL1        0.1119
     24 C         -16.6513   -0.5646   19.9501 C.3     1  UNL1        0.0204
     25 C         -15.3344   -1.2775   20.0371 C.3     1  UNL1        0.0204
     26 S         -17.9912   -2.2879   19.2311 S.3     1  UNL1        0.0687
     27 C         -19.4214   -2.5567   18.8680 C.3     1  UNL1        0.1170
     28 N         -18.3367   -2.4135   20.6854 N.2     1  UNL1       -0.2504
     29 O         -17.6456   -2.1622   17.7768 O.2     1  UNL1       -0.2461
     30 H         -17.6371   -2.3019   21.3690 H       1  UNL1        0.1971
@<TRIPOS>BOND
     1    17    16    1
     2    17    18    1
     3    18    19    1
     4    19    20    1
     5    20    21    1
     6    21    22    1
     7    22     1    1
     8     1     2   ar
     9     2     3   ar
    10     3    23    1
    11    23    26    1
    12    26    27    1
    13    26    28    2
    14    26    29    2
    15    23    24    1
    16    24    25    1
    17     3     4   ar
    18     4     5   ar
    19     5     7    1
    20     7     8    2
    21     8     9    1
    22     9    10    2
    23    10    11    1
    24    11    12    2
    25    12    13    1
    26    13    14    2
    27    14    15    1
    28     5     6   ar
    29    22    17    1
    30     6     1   ar
    31    25    23    1
    32    15     7    1
    33    15    11    1
    34    28    30    1
@<TRIPOS>MOLECULE
*****
 30 34 0 0 0
SMALL
GASTEIGER

@<TRIPOS>ATOM
      1 C         -12.9694   -5.1740   18.3334 C.ar    1  UNL1        0.1346
      2 C         -12.6509   -3.7168   18.1742 C.ar    1  UNL1        0.0500
      3 C         -13.7276   -2.6891   18.3606 C.ar    1  UNL1        0.0752
      4 N         -15.1226   -3.1186   18.7060 N.ar    1  UNL1       -0.2302
      5 C         -15.4411   -4.5758   18.8651 C.ar    1  UNL1        0.1603
      6 N         -14.3645   -5.6035   18.6788 N.ar    1  UNL1       -0.2122
      7 C         -16.8362   -5.0052   19.2106 C.2     1  UNL1        0.0332
      8 C         -17.9424   -3.9933   19.2579 C.2     1  UNL1        0.0501
      9 C         -19.3374   -4.4227   19.6033 C.2     1  UNL1        0.2355
     10 N         -19.6263   -5.8641   19.9015 N.2     1  UNL1       -0.0341
     11 C         -18.5201   -6.8760   19.8543 C.2     1  UNL1        0.3594
     12 N         -18.5025   -8.3559   20.0989 N.2     1  UNL1       -0.0344
     13 C         -17.0965   -8.8410   19.9045 C.2     1  UNL1        0.2320
     14 C         -16.2452   -7.6610   19.5399 C.2     1  UNL1        0.0409
     15 C         -17.1250   -6.4466   19.5088 C.3     1  UNL1        0.1630
     16 C         -13.1891   -7.1933   16.1256 C.3     1  UNL1        0.0241
     17 C         -12.0026   -7.2113   17.0432 C.3     1  UNL1        0.1038
     18 C         -10.9260   -8.2390   16.8569 C.3     1  UNL1        0.1618
     19 O          -9.7395   -8.2570   17.7744 O.3     1  UNL1       -0.3502
     20 C          -9.6296   -7.2475   18.8783 C.3     1  UNL1        0.1636
     21 C         -10.7062   -6.2197   19.0647 C.3     1  UNL1        0.1242
     22 N         -11.8928   -6.2016   18.1471 N.pl3   1  UNL1       -0.2897
     23 C         -13.4092   -1.2320   18.2014 C.3     1  UNL1        0.1119
     24 C         -12.6481    0.0592   18.2611 C.3     1  UNL1        0.0204
     25 C         -12.0240   -1.2038   18.7764 C.3     1  UNL1        0.0204
     26 S         -14.6837   -0.7542   17.5712 S.3     1  UNL1        0.0687
     27 C         -15.9582   -0.2764   16.9409 C.3     1  UNL1        0.1170
     28 N         -15.1409   -0.2238   18.8977 N.2     1  UNL1       -0.2504
     29 O         -14.2266   -1.2846   16.2446 O.2     1  UNL1       -0.2461
     30 H         -14.5664   -0.3214   19.6913 H       1  UNL1        0.1971
@<TRIPOS>BOND
     1    17    16    1
     2    17    18    1
     3    18    19    1
     4    19    20    1
     5    20    21    1
     6    21    22    1
     7    22     1    1
     8     1     2   ar
     9     2     3   ar
    10     3    23    1
    11    23    26    1
    12    26    27    1
    13    26    28    2
    14    26    29    2
    15    23    24    1
    16    24    25    1
    17     3     4   ar
    18     4     5   ar
    19     5     7    1
    20     7     8    2
    21     8     9    1
    22     9    10    2
    23    10    11    1
    24    11    12    2
    25    12    13    1
    26    13    14    2
    27    14    15    1
    28     5     6   ar
    29    22    17    1
    30     6     1   ar
    31    25    23    1
    32    15     7    1
    33    15    11    1
    34    28    30    1
