@<TRIPOS>MOLECULE
*****
 37 40 0 0 0
SMALL
GASTEIGER

@<TRIPOS>ATOM
      1 C          -0.3227    2.3764   21.7936 C.ar    1  UNL1        0.2207
      2 N           0.8417    2.9185   22.5684 N.ar    1  UNL1       -0.2120
      3 C           2.1623    2.2082   22.5326 C.ar    1  UNL1        0.1033
      4 C           2.3186    0.9557   21.7220 C.ar    1  UNL1        0.0370
      5 C           3.6393    0.2454   21.6863 C.ar    1  UNL1        0.0031
      6 C           3.7955   -1.0070   20.8757 C.ar    1  UNL1        0.0020
      7 C           2.6311   -1.5491   20.1009 C.ar    1  UNL1        0.0016
      8 C           1.3105   -0.8387   20.1367 C.ar    1  UNL1        0.0192
      9 C           1.1542    0.4137   20.9472 C.ar    1  UNL1        0.0857
     10 N          -0.1664    1.1240   20.9830 N.ar    1  UNL1       -0.2135
     11 C           5.1162   -1.7174   20.8399 C.ar    1  UNL1        0.0271
     12 C           5.3572   -2.8980   21.7333 C.ar    1  UNL1        0.0925
     13 CL          4.2776   -3.3682   22.6624 Cl      1  UNL1       -0.0791
     14 C           6.6778   -3.6083   21.6975 C.ar    1  UNL1        0.1522
     15 C           7.7575   -3.1381   20.7684 C.ar    1  UNL1        0.0755
     16 C           7.5165   -1.9575   19.8750 C.ar    1  UNL1        0.1522
     17 C           6.1958   -1.2471   19.9108 C.ar    1  UNL1        0.0925
     18 CL          5.9548   -0.0666   19.0174 Cl      1  UNL1       -0.0791
     19 O           6.9188   -4.7889   22.5909 O.3     1  UNL1       -0.4705
     20 C           7.4335   -4.5821   23.9846 C.3     1  UNL1        0.2525
     21 O           8.5961   -1.4873   18.9459 O.3     1  UNL1       -0.4705
     22 C           9.4979   -0.3601   19.3534 C.3     1  UNL1        0.2525
     23 N          -1.6434    3.0868   21.8294 N.pl3   1  UNL1       -0.2818
     24 H          -2.0738    3.2826   22.6929 H       1  UNL1        0.1551
     25 C          -1.4871    4.0476   19.4205 C.ar    1  UNL1        0.0639
     26 C          -2.1521    4.4596   18.1407 C.ar    1  UNL1        0.0159
     27 C          -3.6381    4.3226   17.9896 C.ar    1  UNL1        0.0010
     28 C          -4.4593    3.7737   19.1185 C.ar    1  UNL1       -0.0030
     29 C          -3.7944    3.3617   20.3985 C.ar    1  UNL1       -0.0072
     30 C          -4.6156    2.8129   21.5273 C.3     1  UNL1        0.0324
     31 C          -2.3083    3.4987   20.5495 C.ar    1  UNL1        0.0601
     32 C           0.9178    3.3027   18.7791 C.2     1  UNL1        0.2497
     33 O           0.3505    2.2839   17.8357 O.2     1  UNL1       -0.2698
     34 N          -0.0011    4.1846   19.5716 N.am    1  UNL1       -0.2794
     35 H           0.3712    4.8533   20.1908 H       1  UNL1        0.1552
     36 C           3.3131    2.3700   18.4020 C.2     1  UNL1        0.0048
     37 C           2.4038    3.4397   18.9302 C.2     1  UNL1        0.0580
@<TRIPOS>BOND
     1    36    37    2
     2    37    32    1
     3    32    33    2
     4    32    34   am
     5    34    25    1
     6    25    26   ar
     7    26    27   ar
     8    27    28   ar
     9    28    29   ar
    10    29    30    1
    11    29    31   ar
    12    31    23    1
    13    23     1    1
    14     1     2   ar
    15     2     3   ar
    16     3     4   ar
    17     4     5   ar
    18     5     6   ar
    19     6    11    1
    20    11    12   ar
    21    12    13    1
    22    12    14   ar
    23    14    19    1
    24    19    20    1
    25    14    15   ar
    26    15    16   ar
    27    16    21    1
    28    21    22    1
    29    16    17   ar
    30    17    18    1
    31     6     7   ar
    32     7     8   ar
    33     8     9   ar
    34     9    10   ar
    35    31    25   ar
    36    10     1   ar
    37     9     4   ar
    38    17    11   ar
    39    34    35    1
    40    23    24    1
@<TRIPOS>MOLECULE
*****
 37 40 0 0 0
SMALL
GASTEIGER

@<TRIPOS>ATOM
      1 C           8.8164   -2.9502   26.4643 C.ar    1  UNL1        0.2207
      2 N           8.7501   -1.4646   26.2685 N.ar    1  UNL1       -0.2120
      3 C           8.0887   -0.8979   25.0473 C.ar    1  UNL1        0.1033
      4 C           7.4936   -1.8169   24.0219 C.ar    1  UNL1        0.0370
      5 C           6.8321   -1.2501   22.8007 C.ar    1  UNL1        0.0031
      6 C           6.2370   -2.1691   21.7753 C.ar    1  UNL1        0.0020
      7 C           6.3033   -3.6548   21.9712 C.ar    1  UNL1        0.0016
      8 C           6.9648   -4.2215   23.1924 C.ar    1  UNL1        0.0192
      9 C           7.5599   -3.3025   24.2178 C.ar    1  UNL1        0.0857
     10 N           8.2213   -3.8692   25.4390 N.ar    1  UNL1       -0.2135
     11 C           5.5756   -1.6024   20.5541 C.ar    1  UNL1        0.0271
     12 C           6.3804   -1.3515   19.3134 C.ar    1  UNL1        0.0925
     13 CL          7.8467   -1.6673   19.2939 Cl      1  UNL1       -0.0791
     14 C           5.7190   -0.7849   18.0922 C.ar    1  UNL1        0.1522
     15 C           4.2527   -0.4691   18.1117 C.ar    1  UNL1        0.0755
     16 C           3.4479   -0.7199   19.3523 C.ar    1  UNL1        0.1522
     17 C           4.1093   -1.2867   20.5736 C.ar    1  UNL1        0.0925
     18 CL          3.3045   -1.5375   21.8143 Cl      1  UNL1       -0.0791
     19 O           6.5238   -0.5340   16.8516 O.3     1  UNL1       -0.4705
     20 C           6.8115    0.8722   16.4158 C.3     1  UNL1        0.2525
     21 O           1.9816   -0.4042   19.3718 O.3     1  UNL1       -0.4705
     22 C           1.4297    0.6518   18.4606 C.3     1  UNL1        0.2525
     23 N           9.4779   -3.5170   27.6855 N.pl3   1  UNL1       -0.2818
     24 H          10.4601   -3.5474   27.7440 H       1  UNL1        0.1551
     25 C           8.2796   -5.4916   28.8751 C.ar    1  UNL1        0.0639
     26 C           7.4444   -6.0119   30.0073 C.ar    1  UNL1        0.0159
     27 C           6.9723   -5.0779   31.0819 C.ar    1  UNL1        0.0010
     28 C           7.3354   -3.6237   31.0245 C.ar    1  UNL1       -0.0030
     29 C           8.1706   -3.1033   29.8923 C.ar    1  UNL1       -0.0072
     30 C           8.5337   -1.6491   29.8349 C.3     1  UNL1        0.0324
     31 C           8.6427   -4.0373   28.8177 C.ar    1  UNL1        0.0601
     32 C           7.7936   -6.9078   26.7519 C.2     1  UNL1        0.2497
     33 O           6.3635   -6.4562   26.7781 O.2     1  UNL1       -0.2698
     34 N           8.7516   -6.4255   27.8005 N.am    1  UNL1       -0.2794
     35 H           9.6903   -6.7219   27.7833 H       1  UNL1        0.1552
     36 C           8.3117   -7.3813   24.2505 C.2     1  UNL1        0.0048
     37 C           8.2657   -7.8418   25.6773 C.2     1  UNL1        0.0580
@<TRIPOS>BOND
     1    36    37    2
     2    37    32    1
     3    32    33    2
     4    32    34   am
     5    34    25    1
     6    25    26   ar
     7    26    27   ar
     8    27    28   ar
     9    28    29   ar
    10    29    30    1
    11    29    31   ar
    12    31    23    1
    13    23     1    1
    14     1     2   ar
    15     2     3   ar
    16     3     4   ar
    17     4     5   ar
    18     5     6   ar
    19     6    11    1
    20    11    12   ar
    21    12    13    1
    22    12    14   ar
    23    14    19    1
    24    19    20    1
    25    14    15   ar
    26    15    16   ar
    27    16    21    1
    28    21    22    1
    29    16    17   ar
    30    17    18    1
    31     6     7   ar
    32     7     8   ar
    33     8     9   ar
    34     9    10   ar
    35    31    25   ar
    36    10     1   ar
    37     9     4   ar
    38    17    11   ar
    39    34    35    1
    40    23    24    1
@<TRIPOS>MOLECULE
*****
 37 40 0 0 0
SMALL
GASTEIGER

@<TRIPOS>ATOM
      1 C           8.7665   -2.9502   26.5617 C.ar    1  UNL1        0.2207
      2 N           8.7754   -1.4693   26.3232 N.ar    1  UNL1       -0.2120
      3 C           8.1188   -0.9029   25.0993 C.ar    1  UNL1        0.1033
      4 C           7.4533   -1.8174   24.1139 C.ar    1  UNL1        0.0370
      5 C           6.7967   -1.2509   22.8899 C.ar    1  UNL1        0.0031
      6 C           6.1313   -2.1653   21.9045 C.ar    1  UNL1        0.0020
      7 C           6.1225   -3.6462   22.1431 C.ar    1  UNL1        0.0016
      8 C           6.7791   -4.2127   23.3670 C.ar    1  UNL1        0.0192
      9 C           7.4445   -3.2982   24.3524 C.ar    1  UNL1        0.0857
     10 N           8.1011   -3.8646   25.5763 N.ar    1  UNL1       -0.2135
     11 C           5.4747   -1.5989   20.6806 C.ar    1  UNL1        0.0271
     12 C           4.0206   -1.2317   20.7114 C.ar    1  UNL1        0.0925
     13 CL          3.2231   -1.4310   21.9662 Cl      1  UNL1       -0.0791
     14 C           3.3640   -0.6653   19.4875 C.ar    1  UNL1        0.1522
     15 C           4.1614   -0.4660   18.2327 C.ar    1  UNL1        0.0755
     16 C           5.6154   -0.8331   18.2019 C.ar    1  UNL1        0.1522
     17 C           6.2721   -1.3996   19.4258 C.ar    1  UNL1        0.0925
     18 CL          7.7261   -1.7667   19.3950 Cl      1  UNL1       -0.0791
     19 O           1.9099   -0.2982   19.5183 O.3     1  UNL1       -0.4705
     20 C           1.3342    0.5763   18.4441 C.3     1  UNL1        0.2525
     21 O           6.4128   -0.6338   16.9471 O.3     1  UNL1       -0.4705
     22 C           6.8902    0.7377   16.5718 C.3     1  UNL1        0.2525
     23 N           9.4232   -3.5167   27.7856 N.pl3   1  UNL1       -0.2818
     24 H          10.4052   -3.5483   27.8474 H       1  UNL1        0.1551
     25 C           8.2141   -5.4878   28.9702 C.ar    1  UNL1        0.0639
     26 C           7.3744   -6.0060   30.0999 C.ar    1  UNL1        0.0159
     27 C           6.9042   -5.0716   31.1749 C.ar    1  UNL1        0.0010
     28 C           7.2736   -3.6188   31.1202 C.ar    1  UNL1       -0.0030
     29 C           8.1133   -3.1005   29.9904 C.ar    1  UNL1       -0.0072
     30 C           8.4827   -1.6478   29.9357 C.3     1  UNL1        0.0324
     31 C           8.5835   -4.0350   28.9154 C.ar    1  UNL1        0.0601
     32 C           7.7226   -6.9113   26.8531 C.2     1  UNL1        0.2497
     33 O           6.2906   -6.4659   26.8861 O.2     1  UNL1       -0.2698
     34 N           8.6843   -6.4222   27.8951 N.am    1  UNL1       -0.2794
     35 H           9.6241   -6.7146   27.8735 H       1  UNL1        0.1552
     36 C           8.2040   -7.3974   24.3468 C.2     1  UNL1        0.0048
     37 C           8.1928   -7.8458   25.7781 C.2     1  UNL1        0.0580
@<TRIPOS>BOND
     1    36    37    2
     2    37    32    1
     3    32    33    2
     4    32    34   am
     5    34    25    1
     6    25    26   ar
     7    26    27   ar
     8    27    28   ar
     9    28    29   ar
    10    29    30    1
    11    29    31   ar
    12    31    23    1
    13    23     1    1
    14     1     2   ar
    15     2     3   ar
    16     3     4   ar
    17     4     5   ar
    18     5     6   ar
    19     6    11    1
    20    11    12   ar
    21    12    13    1
    22    12    14   ar
    23    14    19    1
    24    19    20    1
    25    14    15   ar
    26    15    16   ar
    27    16    21    1
    28    21    22    1
    29    16    17   ar
    30    17    18    1
    31     6     7   ar
    32     7     8   ar
    33     8     9   ar
    34     9    10   ar
    35    31    25   ar
    36    10     1   ar
    37     9     4   ar
    38    17    11   ar
    39    34    35    1
    40    23    24    1
@<TRIPOS>MOLECULE
*****
 37 40 0 0 0
SMALL
GASTEIGER

@<TRIPOS>ATOM
      1 C           1.2524    2.4012   32.1976 C.ar    1  UNL1        0.2207
      2 N           1.6667    3.7197   31.6147 N.ar    1  UNL1       -0.2120
      3 C           1.3266    4.0507   30.1918 C.ar    1  UNL1        0.1033
      4 C           0.5722    3.0631   29.3518 C.ar    1  UNL1        0.0370
      5 C           0.2321    3.3942   27.9288 C.ar    1  UNL1        0.0031
      6 C          -0.5223    2.4066   27.0888 C.ar    1  UNL1        0.0020
      7 C          -0.9366    1.0881   27.6717 C.ar    1  UNL1        0.0016
      8 C          -0.5965    0.7571   29.0946 C.ar    1  UNL1        0.0192
      9 C           0.1579    1.7446   29.9346 C.ar    1  UNL1        0.0857
     10 N           0.4980    1.4136   31.3576 N.ar    1  UNL1       -0.2135
     11 C          -0.8625    2.7376   25.6658 C.ar    1  UNL1        0.0271
     12 C          -2.1753    3.3859   25.3398 C.ar    1  UNL1        0.0925
     13 CL         -3.1480    3.7031   26.4367 Cl      1  UNL1       -0.0791
     14 C          -2.5154    3.7169   23.9169 C.ar    1  UNL1        0.1522
     15 C          -1.5428    3.3997   22.8200 C.ar    1  UNL1        0.0755
     16 C          -0.2300    2.7514   23.1459 C.ar    1  UNL1        0.1522
     17 C           0.1102    2.4204   24.5689 C.ar    1  UNL1        0.0925
     18 CL          1.4230    1.7722   24.8949 Cl      1  UNL1       -0.0791
     19 O          -3.8282    4.3651   23.5909 O.3     1  UNL1       -0.4705
     20 C          -4.9168    3.5670   22.9364 C.3     1  UNL1        0.2525
     21 O           0.7427    2.4342   22.0490 O.3     1  UNL1       -0.4705
     22 C           0.6753    1.1107   21.3464 C.3     1  UNL1        0.2525
     23 N           1.5925    2.0701   33.6206 N.pl3   1  UNL1       -0.2818
     24 H           0.8752    1.9661   34.2867 H       1  UNL1        0.1551
     25 C           4.0243    1.3559   33.0490 C.ar    1  UNL1        0.0639
     26 C           5.4573    1.1833   33.4569 C.ar    1  UNL1        0.0159
     27 C           5.8919    1.5523   34.8443 C.ar    1  UNL1        0.0010
     28 C           4.8933    2.0940   35.8238 C.ar    1  UNL1       -0.0030
     29 C           3.4601    2.2666   35.4159 C.ar    1  UNL1       -0.0072
     30 C           2.4616    2.8082   36.3954 C.3     1  UNL1        0.0324
     31 C           3.0256    1.8975   34.0285 C.ar    1  UNL1        0.0601
     32 C           3.3681   -0.4527   31.3030 C.2     1  UNL1        0.2497
     33 O           3.5810   -1.5232   32.3319 O.2     1  UNL1       -0.2698
     34 N           3.5897    0.9868   31.6615 N.am    1  UNL1       -0.2794
     35 H           3.4500    1.6894   30.9862 H       1  UNL1        0.1552
     36 C           3.1830    0.1210   28.7758 C.2     1  UNL1        0.0048
     37 C           2.9336   -0.8218   29.9155 C.2     1  UNL1        0.0580
@<TRIPOS>BOND
     1    36    37    2
     2    37    32    1
     3    32    33    2
     4    32    34   am
     5    34    25    1
     6    25    26   ar
     7    26    27   ar
     8    27    28   ar
     9    28    29   ar
    10    29    30    1
    11    29    31   ar
    12    31    23    1
    13    23     1    1
    14     1     2   ar
    15     2     3   ar
    16     3     4   ar
    17     4     5   ar
    18     5     6   ar
    19     6    11    1
    20    11    12   ar
    21    12    13    1
    22    12    14   ar
    23    14    19    1
    24    19    20    1
    25    14    15   ar
    26    15    16   ar
    27    16    21    1
    28    21    22    1
    29    16    17   ar
    30    17    18    1
    31     6     7   ar
    32     7     8   ar
    33     8     9   ar
    34     9    10   ar
    35    31    25   ar
    36    10     1   ar
    37     9     4   ar
    38    17    11   ar
    39    34    35    1
    40    23    24    1
@<TRIPOS>MOLECULE
*****
 37 40 0 0 0
SMALL
GASTEIGER

@<TRIPOS>ATOM
      1 C           1.2200    2.3722   32.2067 C.ar    1  UNL1        0.2207
      2 N           1.7137    3.6564   31.6094 N.ar    1  UNL1       -0.2120
      3 C           1.4389    3.9676   30.1680 C.ar    1  UNL1        0.1033
      4 C           0.6702    2.9945   29.3240 C.ar    1  UNL1        0.0370
      5 C           0.3953    3.3057   27.8826 C.ar    1  UNL1        0.0031
      6 C          -0.3733    2.3326   27.0386 C.ar    1  UNL1        0.0020
      7 C          -0.8670    1.0483   27.6361 C.ar    1  UNL1        0.0016
      8 C          -0.5922    0.7372   29.0774 C.ar    1  UNL1        0.0192
      9 C           0.1765    1.7102   29.9214 C.ar    1  UNL1        0.0857
     10 N           0.4513    1.3991   31.3628 N.ar    1  UNL1       -0.2135
     11 C          -0.6482    2.6437   25.5972 C.ar    1  UNL1        0.0271
     12 C           0.3483    2.2598   24.5438 C.ar    1  UNL1        0.0925
     13 CL          1.6197    1.5647   24.9318 Cl      1  UNL1       -0.0791
     14 C           0.0735    2.5709   23.1024 C.ar    1  UNL1        0.1522
     15 C          -1.1979    3.2660   22.7144 C.ar    1  UNL1        0.0755
     16 C          -2.1944    3.6499   23.7678 C.ar    1  UNL1        0.1522
     17 C          -1.9195    3.3388   25.2092 C.ar    1  UNL1        0.0925
     18 CL         -2.9160    3.7227   26.2626 Cl      1  UNL1       -0.0791
     19 O           1.0699    2.1870   22.0491 O.3     1  UNL1       -0.4705
     20 C           0.9177    0.8909   21.3095 C.3     1  UNL1        0.2525
     21 O          -3.4657    4.3450   23.3797 O.3     1  UNL1       -0.4705
     22 C          -4.6896    3.5421   23.0521 C.3     1  UNL1        0.2525
     23 N           1.4949    2.0610   33.6482 N.pl3   1  UNL1       -0.2818
     24 H           0.7479    1.9670   34.2826 H       1  UNL1        0.1551
     25 C           3.8001    0.8750   33.4769 C.ar    1  UNL1        0.0639
     26 C           5.2130    0.7070   33.9517 C.ar    1  UNL1        0.0159
     27 C           5.7336    1.5570   35.0726 C.ar    1  UNL1        0.0010
     28 C           4.8413    2.5751   35.7187 C.ar    1  UNL1       -0.0030
     29 C           3.4284    2.7431   35.2439 C.ar    1  UNL1       -0.0072
     30 C           2.5361    3.7611   35.8899 C.3     1  UNL1        0.0324
     31 C           2.9077    1.8930   34.1230 C.ar    1  UNL1        0.0601
     32 C           3.7091    0.2986   30.9452 C.2     1  UNL1        0.2497
     33 O           4.6594    1.4223   30.6553 O.2     1  UNL1       -0.2698
     34 N           3.2795    0.0249   32.3560 N.am    1  UNL1       -0.2794
     35 H           2.6557   -0.7127   32.5463 H       1  UNL1        0.1552
     36 C           3.1082    0.0069   28.4345 C.2     1  UNL1        0.0048
     37 C           3.1885   -0.5515   29.8244 C.2     1  UNL1        0.0580
@<TRIPOS>BOND
     1    36    37    2
     2    37    32    1
     3    32    33    2
     4    32    34   am
     5    34    25    1
     6    25    26   ar
     7    26    27   ar
     8    27    28   ar
     9    28    29   ar
    10    29    30    1
    11    29    31   ar
    12    31    23    1
    13    23     1    1
    14     1     2   ar
    15     2     3   ar
    16     3     4   ar
    17     4     5   ar
    18     5     6   ar
    19     6    11    1
    20    11    12   ar
    21    12    13    1
    22    12    14   ar
    23    14    19    1
    24    19    20    1
    25    14    15   ar
    26    15    16   ar
    27    16    21    1
    28    21    22    1
    29    16    17   ar
    30    17    18    1
    31     6     7   ar
    32     7     8   ar
    33     8     9   ar
    34     9    10   ar
    35    31    25   ar
    36    10     1   ar
    37     9     4   ar
    38    17    11   ar
    39    34    35    1
    40    23    24    1
@<TRIPOS>MOLECULE
*****
 37 40 0 0 0
SMALL
GASTEIGER

@<TRIPOS>ATOM
      1 C           3.2096    0.4229   18.1061 C.ar    1  UNL1        0.2207
      2 N           2.4885   -0.6450   18.8739 N.ar    1  UNL1       -0.2120
      3 C           1.3518   -0.2785   19.7813 C.ar    1  UNL1        0.1033
      4 C           0.9360    1.1560   19.9208 C.ar    1  UNL1        0.0370
      5 C          -0.2008    1.5225   20.8283 C.ar    1  UNL1        0.0031
      6 C          -0.6165    2.9569   20.9679 C.ar    1  UNL1        0.0020
      7 C           0.1046    4.0249   20.2000 C.ar    1  UNL1        0.0016
      8 C           1.2414    3.6584   19.2927 C.ar    1  UNL1        0.0192
      9 C           1.6571    2.2239   19.1531 C.ar    1  UNL1        0.0857
     10 N           2.7939    1.8574   18.2457 N.ar    1  UNL1       -0.2135
     11 C          -1.7533    3.3235   21.8752 C.ar    1  UNL1        0.0271
     12 C          -3.1338    3.4985   21.3149 C.ar    1  UNL1        0.0925
     13 CL         -3.3773    3.3069   19.8473 Cl      1  UNL1       -0.0791
     14 C          -4.2705    3.8650   22.2223 C.ar    1  UNL1        0.1522
     15 C          -4.0270    4.0565   23.6900 C.ar    1  UNL1        0.0755
     16 C          -2.6466    3.8815   24.2502 C.ar    1  UNL1        0.1522
     17 C          -1.5097    3.5150   23.3429 C.ar    1  UNL1        0.0925
     18 CL         -0.1294    3.3400   23.9031 Cl      1  UNL1       -0.0791
     19 O          -5.6509    4.0400   21.6620 O.3     1  UNL1       -0.4705
     20 C          -6.8117    4.2663   22.5847 C.3     1  UNL1        0.2525
     21 O          -2.4030    4.0731   25.7179 O.3     1  UNL1       -0.4705
     22 C          -3.5251    3.8842   26.6953 C.3     1  UNL1        0.2525
     23 N           4.3464    0.0564   17.1987 N.pl3   1  UNL1       -0.2818
     24 H           4.2080    0.0243   16.2245 H       1  UNL1        0.1551
     25 C           6.0195   -1.6646   18.1933 C.ar    1  UNL1        0.0639
     26 C           7.3672   -1.9820   18.7702 C.ar    1  UNL1        0.0159
     27 C           8.3896   -0.8961   18.9294 C.ar    1  UNL1        0.0010
     28 C           8.0644    0.5073   18.5117 C.ar    1  UNL1       -0.0030
     29 C           6.7166    0.8249   17.9348 C.ar    1  UNL1       -0.0072
     30 C           6.3913    2.2283   17.5171 C.3     1  UNL1        0.0324
     31 C           5.6941   -0.2611   17.7756 C.ar    1  UNL1        0.0601
     32 C           4.3169   -3.3232   19.2422 C.2     1  UNL1        0.2497
     33 O           4.6593   -2.8100   20.6094 O.2     1  UNL1       -0.2698
     34 N           4.9970   -2.7505   18.0341 N.am    1  UNL1       -0.2794
     35 H           4.7724   -3.0874   17.1367 H       1  UNL1        0.1552
     36 C           3.3256   -5.6067   19.9857 C.2     1  UNL1        0.0048
     37 C           3.2945   -4.4092   19.0830 C.2     1  UNL1        0.0580
@<TRIPOS>BOND
     1    36    37    2
     2    37    32    1
     3    32    33    2
     4    32    34   am
     5    34    25    1
     6    25    26   ar
     7    26    27   ar
     8    27    28   ar
     9    28    29   ar
    10    29    30    1
    11    29    31   ar
    12    31    23    1
    13    23     1    1
    14     1     2   ar
    15     2     3   ar
    16     3     4   ar
    17     4     5   ar
    18     5     6   ar
    19     6    11    1
    20    11    12   ar
    21    12    13    1
    22    12    14   ar
    23    14    19    1
    24    19    20    1
    25    14    15   ar
    26    15    16   ar
    27    16    21    1
    28    21    22    1
    29    16    17   ar
    30    17    18    1
    31     6     7   ar
    32     7     8   ar
    33     8     9   ar
    34     9    10   ar
    35    31    25   ar
    36    10     1   ar
    37     9     4   ar
    38    17    11   ar
    39    34    35    1
    40    23    24    1
@<TRIPOS>MOLECULE
*****
 37 40 0 0 0
SMALL
GASTEIGER

@<TRIPOS>ATOM
      1 C           5.4063    0.4201   17.6882 C.ar    1  UNL1        0.2207
      2 N           4.3393   -0.6270   17.5650 N.ar    1  UNL1       -0.2120
      3 C           2.9048   -0.2692   17.8179 C.ar    1  UNL1        0.1033
      4 C           2.5372    1.1356   18.1939 C.ar    1  UNL1        0.0370
      5 C           1.1025    1.4933   18.4467 C.ar    1  UNL1        0.0031
      6 C           0.7349    2.8981   18.8228 C.ar    1  UNL1        0.0020
      7 C           1.8020    3.9452   18.9459 C.ar    1  UNL1        0.0016
      8 C           3.2365    3.5874   18.6931 C.ar    1  UNL1        0.0192
      9 C           3.6041    2.1826   18.3171 C.ar    1  UNL1        0.0857
     10 N           5.0387    1.8249   18.0642 N.ar    1  UNL1       -0.2135
     11 C          -0.6997    3.2559   19.0756 C.ar    1  UNL1        0.0271
     12 C          -1.3105    2.9998   20.4215 C.ar    1  UNL1        0.0925
     13 CL         -0.4868    2.3859   21.5144 Cl      1  UNL1       -0.0791
     14 C          -2.7451    3.3575   20.6743 C.ar    1  UNL1        0.1522
     15 C          -3.5689    3.9714   19.5813 C.ar    1  UNL1        0.0755
     16 C          -2.9581    4.2275   18.2355 C.ar    1  UNL1        0.1522
     17 C          -1.5234    3.8697   17.9826 C.ar    1  UNL1        0.0925
     18 CL         -0.9126    4.1258   16.6368 Cl      1  UNL1       -0.0791
     19 O          -3.3559    3.1014   22.0201 O.3     1  UNL1       -0.4705
     20 C          -4.8475    3.1023   22.1793 C.3     1  UNL1        0.2525
     21 O          -3.7818    4.8414   17.1426 O.3     1  UNL1       -0.4705
     22 C          -5.2791    4.8168   17.2280 C.3     1  UNL1        0.2525
     23 N           6.8410    0.0623   17.4354 N.pl3   1  UNL1       -0.2818
     24 H           7.1947    0.0661   16.5166 H       1  UNL1        0.1551
     25 C           7.7298   -1.6994   19.1255 C.ar    1  UNL1        0.0639
     26 C           8.6255   -2.0629   20.2724 C.ar    1  UNL1        0.0159
     27 C           9.5281   -1.0281   20.8763 C.ar    1  UNL1        0.0010
     28 C           9.5350    0.3700   20.3332 C.ar    1  UNL1       -0.0030
     29 C           8.6393    0.7336   19.1862 C.ar    1  UNL1       -0.0072
     30 C           8.6462    2.1318   18.6431 C.3     1  UNL1        0.0324
     31 C           7.7367   -0.3011   18.5823 C.ar    1  UNL1        0.0601
     32 C           5.6595   -3.2589   19.3032 C.2     1  UNL1        0.2497
     33 O           5.3944   -2.7490   20.6887 O.2     1  UNL1       -0.2698
     34 N           6.8272   -2.7341   18.5216 N.am    1  UNL1       -0.2794
     35 H           7.0012   -3.0688   17.6122 H       1  UNL1        0.1552
     36 C           3.5501   -4.7682   19.4533 C.2     1  UNL1        0.0048
     37 C           4.7569   -4.2936   18.6993 C.2     1  UNL1        0.0580
@<TRIPOS>BOND
     1    36    37    2
     2    37    32    1
     3    32    33    2
     4    32    34   am
     5    34    25    1
     6    25    26   ar
     7    26    27   ar
     8    27    28   ar
     9    28    29   ar
    10    29    30    1
    11    29    31   ar
    12    31    23    1
    13    23     1    1
    14     1     2   ar
    15     2     3   ar
    16     3     4   ar
    17     4     5   ar
    18     5     6   ar
    19     6    11    1
    20    11    12   ar
    21    12    13    1
    22    12    14   ar
    23    14    19    1
    24    19    20    1
    25    14    15   ar
    26    15    16   ar
    27    16    21    1
    28    21    22    1
    29    16    17   ar
    30    17    18    1
    31     6     7   ar
    32     7     8   ar
    33     8     9   ar
    34     9    10   ar
    35    31    25   ar
    36    10     1   ar
    37     9     4   ar
    38    17    11   ar
    39    34    35    1
    40    23    24    1
@<TRIPOS>MOLECULE
*****
 37 40 0 0 0
SMALL
GASTEIGER

@<TRIPOS>ATOM
      1 C          -0.7307    4.2412   21.4693 C.ar    1  UNL1        0.2207
      2 N           0.4750    4.2602   22.3614 N.ar    1  UNL1       -0.2120
      3 C           1.6753    3.4287   22.0179 C.ar    1  UNL1        0.1033
      4 C           1.6698    2.5782   20.7824 C.ar    1  UNL1        0.0370
      5 C           2.8701    1.7466   20.4389 C.ar    1  UNL1        0.0031
      6 C           2.8646    0.8961   19.2034 C.ar    1  UNL1        0.0020
      7 C           1.6587    0.8770   18.3113 C.ar    1  UNL1        0.0016
      8 C           0.4585    1.7085   18.6548 C.ar    1  UNL1        0.0192
      9 C           0.4640    2.5591   19.8903 C.ar    1  UNL1        0.0857
     10 N          -0.7362    3.3906   20.2338 N.ar    1  UNL1       -0.2135
     11 C           4.0648    0.0645   18.8599 C.ar    1  UNL1        0.0271
     12 C           5.1815    0.6570   18.0524 C.ar    1  UNL1        0.0925
     13 CL          5.0979    2.0810   17.5884 Cl      1  UNL1       -0.0791
     14 C           6.3817   -0.1745   17.7089 C.ar    1  UNL1        0.1522
     15 C           6.4653   -1.5985   18.1730 C.ar    1  UNL1        0.0755
     16 C           5.3487   -2.1909   18.9805 C.ar    1  UNL1        0.1522
     17 C           4.1484   -1.3594   19.3240 C.ar    1  UNL1        0.0925
     18 CL          3.0318   -1.9519   20.1315 Cl      1  UNL1       -0.0791
     19 O           7.4983    0.4180   16.9015 O.3     1  UNL1       -0.4705
     20 C           8.4860    1.3412   17.5513 C.3     1  UNL1        0.2525
     21 O           5.4323   -3.6149   19.4445 O.3     1  UNL1       -0.4705
     22 C           4.6930   -4.6897   18.7040 C.3     1  UNL1        0.2525
     23 N          -1.9310    5.0727   21.8128 N.pl3   1  UNL1       -0.2818
     24 H          -2.0316    5.9739   21.4294 H       1  UNL1        0.1551
     25 C          -4.0438    3.6153   22.2154 C.ar    1  UNL1        0.0639
     26 C          -5.0908    3.0737   23.1430 C.ar    1  UNL1        0.0159
     27 C          -5.0722    3.4480   24.5954 C.ar    1  UNL1        0.0010
     28 C          -4.0065    4.3639   25.1203 C.ar    1  UNL1       -0.0030
     29 C          -2.9594    4.9055   24.1927 C.ar    1  UNL1       -0.0072
     30 C          -1.8938    5.8213   24.7176 C.3     1  UNL1        0.0324
     31 C          -2.9780    4.5312   22.7403 C.ar    1  UNL1        0.0601
     32 C          -4.9605    3.9740   19.8111 C.2     1  UNL1        0.2497
     33 O          -5.8399    5.0812   20.3116 O.2     1  UNL1       -0.2698
     34 N          -4.0624    3.2410   20.7630 N.am    1  UNL1       -0.2794
     35 H          -3.4852    2.5142   20.4345 H       1  UNL1        0.1552
     36 C          -3.8181    3.9545   17.4777 C.2     1  UNL1        0.0048
     37 C          -4.9791    3.5997   18.3586 C.2     1  UNL1        0.0580
@<TRIPOS>BOND
     1    36    37    2
     2    37    32    1
     3    32    33    2
     4    32    34   am
     5    34    25    1
     6    25    26   ar
     7    26    27   ar
     8    27    28   ar
     9    28    29   ar
    10    29    30    1
    11    29    31   ar
    12    31    23    1
    13    23     1    1
    14     1     2   ar
    15     2     3   ar
    16     3     4   ar
    17     4     5   ar
    18     5     6   ar
    19     6    11    1
    20    11    12   ar
    21    12    13    1
    22    12    14   ar
    23    14    19    1
    24    19    20    1
    25    14    15   ar
    26    15    16   ar
    27    16    21    1
    28    21    22    1
    29    16    17   ar
    30    17    18    1
    31     6     7   ar
    32     7     8   ar
    33     8     9   ar
    34     9    10   ar
    35    31    25   ar
    36    10     1   ar
    37     9     4   ar
    38    17    11   ar
    39    34    35    1
    40    23    24    1
@<TRIPOS>MOLECULE
*****
 37 40 0 0 0
SMALL
GASTEIGER

@<TRIPOS>ATOM
      1 C          -0.6919    4.2646   21.8343 C.ar    1  UNL1        0.2207
      2 N           0.5045    4.1234   22.7279 N.ar    1  UNL1       -0.2120
      3 C           1.6689    3.2828   22.2951 C.ar    1  UNL1        0.1033
      4 C           1.6370    2.5833   20.9685 C.ar    1  UNL1        0.0370
      5 C           2.8015    1.7426   20.5357 C.ar    1  UNL1        0.0031
      6 C           2.7695    1.0431   19.2092 C.ar    1  UNL1        0.0020
      7 C           1.5730    1.1843   18.3155 C.ar    1  UNL1        0.0016
      8 C           0.4086    2.0249   18.7484 C.ar    1  UNL1        0.0192
      9 C           0.4406    2.7244   20.0749 C.ar    1  UNL1        0.0857
     10 N          -0.7239    3.5650   20.5077 N.ar    1  UNL1       -0.2135
     11 C           3.9339    0.2025   18.7763 C.ar    1  UNL1        0.0271
     12 C           3.9831   -1.2530   19.1361 C.ar    1  UNL1        0.0925
     13 CL          2.8678   -1.8677   19.9287 Cl      1  UNL1       -0.0791
     14 C           5.1475   -2.0936   18.7032 C.ar    1  UNL1        0.1522
     15 C           6.2628   -1.4789   17.9106 C.ar    1  UNL1        0.0755
     16 C           6.2137   -0.0235   17.5508 C.ar    1  UNL1        0.1522
     17 C           5.0492    0.8172   17.9837 C.ar    1  UNL1        0.0925
     18 CL          5.0001    2.2726   17.6239 Cl      1  UNL1       -0.0791
     19 O           5.1967   -3.5489   19.0630 O.3     1  UNL1       -0.4705
     20 C           6.0341   -4.0077   20.2199 C.3     1  UNL1        0.2525
     21 O           7.3290    0.5912   16.7582 O.3     1  UNL1       -0.4705
     22 C           8.3743    1.4158   17.4492 C.3     1  UNL1        0.2525
     23 N          -1.8564    5.1052   22.2671 N.pl3   1  UNL1       -0.2818
     24 H          -2.0166    5.9795   21.8438 H       1  UNL1        0.1551
     25 C          -3.8822    3.6572   23.0085 C.ar    1  UNL1        0.0639
     26 C          -4.8025    3.1658   24.0861 C.ar    1  UNL1        0.0159
     27 C          -4.6174    3.6308   25.5002 C.ar    1  UNL1        0.0010
     28 C          -3.5120    4.5873   25.8365 C.ar    1  UNL1       -0.0030
     29 C          -2.5916    5.0788   24.7588 C.ar    1  UNL1       -0.0072
     30 C          -1.4862    6.0353   25.0952 C.3     1  UNL1        0.0324
     31 C          -2.7767    4.6138   23.3448 C.ar    1  UNL1        0.0601
     32 C          -4.9363    3.9748   20.6552 C.2     1  UNL1        0.2497
     33 O          -5.6203    5.2224   21.1300 O.2     1  UNL1       -0.2698
     34 N          -4.0673    3.1922   21.5944 N.am    1  UNL1       -0.2794
     35 H          -3.6183    2.3733   21.2828 H       1  UNL1        0.1552
     36 C          -6.4893    3.1468   18.7440 C.2     1  UNL1        0.0048
     37 C          -5.1214    3.5097   19.2412 C.2     1  UNL1        0.0580
@<TRIPOS>BOND
     1    36    37    2
     2    37    32    1
     3    32    33    2
     4    32    34   am
     5    34    25    1
     6    25    26   ar
     7    26    27   ar
     8    27    28   ar
     9    28    29   ar
    10    29    30    1
    11    29    31   ar
    12    31    23    1
    13    23     1    1
    14     1     2   ar
    15     2     3   ar
    16     3     4   ar
    17     4     5   ar
    18     5     6   ar
    19     6    11    1
    20    11    12   ar
    21    12    13    1
    22    12    14   ar
    23    14    19    1
    24    19    20    1
    25    14    15   ar
    26    15    16   ar
    27    16    21    1
    28    21    22    1
    29    16    17   ar
    30    17    18    1
    31     6     7   ar
    32     7     8   ar
    33     8     9   ar
    34     9    10   ar
    35    31    25   ar
    36    10     1   ar
    37     9     4   ar
    38    17    11   ar
    39    34    35    1
    40    23    24    1
