@<TRIPOS>MOLECULE
*****
 46 50 0 0 0
SMALL
GASTEIGER

@<TRIPOS>ATOM
      1 C           5.3833   -0.3061   33.2688 C.2     1  UNL1        0.2253
      2 O           6.6927   -0.9947   33.5164 O.2     1  UNL1       -0.2749
      3 N           4.7930   -0.2908   31.8900 N.am    1  UNL1       -0.2787
      4 C           5.3936   -0.9178   30.6668 C.3     1  UNL1        0.1030
      5 C           4.4702   -0.6602   29.5129 C.3     1  UNL1        0.1046
      6 C           3.2990    0.1260   30.0232 C.3     1  UNL1        0.0523
      7 C           3.4985    0.3543   31.4922 C.3     1  UNL1        0.0982
      8 C           1.6869    3.6157   37.5357 C.3     1  UNL1        0.0948
      9 C           2.5069    2.3865   37.7939 C.2     1  UNL1        0.2261
     10 O           2.6078    1.8305   39.1833 O.2     1  UNL1       -0.2749
     11 N           3.2260    1.7133   36.6626 N.am    1  UNL1       -0.2795
     12 C           3.1251    2.2693   35.2732 C.3     1  UNL1        0.0939
     13 C           3.8442    1.5962   34.1419 C.3     1  UNL1        0.0306
     14 C           4.6642    0.3670   34.4001 C.3     1  UNL1        0.0801
     15 C           4.7651   -0.1890   35.7895 C.3     1  UNL1        0.0306
     16 C           4.0460    0.4841   36.9208 C.3     1  UNL1        0.0939
     17 C           2.1331    0.6006   29.2076 C.ar    1  UNL1       -0.0241
     18 C           0.8811   -0.2228   29.1389 C.ar    1  UNL1       -0.0022
     19 C          -0.2849    0.2517   28.3233 C.ar    1  UNL1        0.0293
     20 C          -0.1989    1.5497   27.5763 C.ar    1  UNL1        0.1398
     21 F          -1.3649    2.0242   26.7606 F       1  UNL1       -0.2042
     22 C           1.0530    2.3730   27.6449 C.ar    1  UNL1        0.0251
     23 C           2.2190    1.8985   28.4606 C.ar    1  UNL1       -0.0235
     24 C           3.4709    2.7218   28.5292 C.3     1  UNL1        0.0308
     25 C           4.6810   -1.1098   28.0976 C.ar    1  UNL1        0.2379
     26 N           3.8250   -0.7471   26.9205 N.ar    1  UNL1       -0.1945
     27 C           4.3998   -1.4142   25.7062 C.ar    1  UNL1        0.1834
     28 N           5.6111   -2.1893   26.1329 N.ar    1  UNL1       -0.0603
     29 O           5.7849   -2.0012   27.6108 O.2     1  UNL1       -0.3373
     30 C           3.8584   -1.3224   24.3104 C.3     1  UNL1        0.0744
     31 C           2.9751   -0.1842   24.7279 C.3     1  UNL1        0.0121
     32 C           4.7416   -2.4606   23.8928 C.3     1  UNL1        0.0121
     33 C           3.3169   -1.2305   22.9144 C.ar    1  UNL1       -0.0160
     34 C           2.2014   -0.2770   22.6039 C.ar    1  UNL1       -0.0000
     35 C           1.6599   -0.1851   21.2081 C.ar    1  UNL1        0.0711
     36 C           2.2339   -1.0468   20.1228 C.ar    1  UNL1        0.0077
     37 C           3.3494   -2.0004   20.4333 C.ar    1  UNL1        0.0711
     38 C           3.8909   -2.0923   21.8291 C.ar    1  UNL1       -0.0000
     39 C           0.5445    0.7685   20.8976 C.3     1  UNL1        0.4186
     40 F          -0.5710    1.7221   20.5871 F       1  UNL1       -0.1659
     41 F           0.4495    1.1304   22.3502 F       1  UNL1       -0.1659
     42 F           0.6394    0.4066   19.4451 F       1  UNL1       -0.1659
     43 C           3.9234   -2.8621   19.3480 C.3     1  UNL1        0.4186
     44 F           4.4975   -3.7239   18.2627 F       1  UNL1       -0.1659
     45 F           4.2223   -3.9322   20.3558 F       1  UNL1       -0.1659
     46 F           3.6245   -1.7921   18.3403 F       1  UNL1       -0.1659
@<TRIPOS>BOND
     1     8     9    1
     2     9    10    2
     3     9    11   am
     4    11    12    1
     5    12    13    1
     6    13    14    1
     7    14     1    1
     8     1     2    2
     9     1     3   am
    10     3     4    1
    11     4     5    1
    12     5    25    1
    13    25    26   ar
    14    26    27   ar
    15    27    30    1
    16    30    31    1
    17    30    32    1
    18    30    33    1
    19    33    34   ar
    20    34    35   ar
    21    35    39    1
    22    39    40    1
    23    39    41    1
    24    39    42    1
    25    35    36   ar
    26    36    37   ar
    27    37    43    1
    28    43    44    1
    29    43    45    1
    30    43    46    1
    31    37    38   ar
    32    27    28   ar
    33    28    29   ar
    34     5     6    1
    35     6    17    1
    36    17    18   ar
    37    18    19   ar
    38    19    20   ar
    39    20    21    1
    40    20    22   ar
    41    22    23   ar
    42    23    24    1
    43     6     7    1
    44    14    15    1
    45    15    16    1
    46    16    11    1
    47     7     3    1
    48    29    25   ar
    49    23    17   ar
    50    38    33   ar
@<TRIPOS>MOLECULE
*****
 46 50 0 0 0
SMALL
GASTEIGER

@<TRIPOS>ATOM
      1 C           5.3727   -0.2973   33.2795 C.2     1  UNL1        0.2253
      2 O           6.6805   -0.9895   33.5253 O.2     1  UNL1       -0.2749
      3 N           4.7833   -0.2754   31.9003 N.am    1  UNL1       -0.2787
      4 C           5.3834   -0.8989   30.6751 C.3     1  UNL1        0.1030
      5 C           4.4613   -0.6350   29.5217 C.3     1  UNL1        0.1046
      6 C           3.2914    0.1517   30.0341 C.3     1  UNL1        0.0523
      7 C           3.4904    0.3739   31.5042 C.3     1  UNL1        0.0982
      8 C           1.6901    3.6218   37.5608 C.3     1  UNL1        0.0948
      9 C           2.4988    2.3839   37.8130 C.2     1  UNL1        0.2261
     10 O           2.5891    1.8163   39.1985 O.2     1  UNL1       -0.2749
     11 N           3.2173    1.7136   36.6796 N.am    1  UNL1       -0.2795
     12 C           3.1270    2.2812   35.2941 C.3     1  UNL1        0.0939
     13 C           3.8455    1.6109   34.1607 C.3     1  UNL1        0.0306
     14 C           4.6542    0.3730   34.4129 C.3     1  UNL1        0.0801
     15 C           4.7445   -0.1946   35.7984 C.3     1  UNL1        0.0306
     16 C           4.0260    0.4757   36.9317 C.3     1  UNL1        0.0939
     17 C           2.1270    0.6318   29.2196 C.ar    1  UNL1       -0.0241
     18 C           0.8791   -0.1961   29.1344 C.ar    1  UNL1       -0.0022
     19 C          -0.2854    0.2839   28.3198 C.ar    1  UNL1        0.0293
     20 C          -0.2019    1.5920   27.5904 C.ar    1  UNL1        0.1398
     21 F          -1.3664    2.0721   26.7758 F       1  UNL1       -0.2042
     22 C           1.0460    2.4200   27.6756 C.ar    1  UNL1        0.0251
     23 C           2.2104    1.9398   28.4902 C.ar    1  UNL1       -0.0235
     24 C           3.4582    2.7678   28.5754 C.3     1  UNL1        0.0308
     25 C           4.6721   -1.0796   28.1047 C.ar    1  UNL1        0.2379
     26 N           3.8142   -0.7153   26.9294 N.ar    1  UNL1       -0.1945
     27 C           4.3898   -1.3772   25.7126 C.ar    1  UNL1        0.1834
     28 N           5.6033   -2.1505   26.1359 N.ar    1  UNL1       -0.0603
     29 O           5.7778   -1.9666   27.6143 O.2     1  UNL1       -0.3373
     30 C           3.8470   -1.2823   24.3175 C.3     1  UNL1        0.0744
     31 C           2.9684   -0.1412   24.7369 C.3     1  UNL1        0.0121
     32 C           4.7255   -2.4234   23.8980 C.3     1  UNL1        0.0121
     33 C           3.3041   -1.1874   22.9223 C.ar    1  UNL1       -0.0160
     34 C           3.8754   -2.0486   21.8351 C.ar    1  UNL1       -0.0000
     35 C           3.3326   -1.9538   20.4400 C.ar    1  UNL1        0.0711
     36 C           2.2186   -0.9977   20.1321 C.ar    1  UNL1        0.0077
     37 C           1.6474   -0.1365   21.2193 C.ar    1  UNL1        0.0711
     38 C           2.1901   -0.2313   22.6144 C.ar    1  UNL1       -0.0000
     39 C           3.9039   -2.8150   19.3528 C.3     1  UNL1        0.4186
     40 F           4.4751   -3.6762   18.2656 F       1  UNL1       -0.1659
     41 F           3.5638   -1.7621   18.3401 F       1  UNL1       -0.1659
     42 F           4.2439   -3.8680   20.3656 F       1  UNL1       -0.1659
     43 C           0.5333    0.8196   20.9114 C.3     1  UNL1        0.4186
     44 F          -0.5807    1.7758   20.6036 F       1  UNL1       -0.1659
     45 F           0.5399    1.2863   22.3369 F       1  UNL1       -0.1659
     46 F           0.5267    0.3529   19.4859 F       1  UNL1       -0.1659
@<TRIPOS>BOND
     1     8     9    1
     2     9    10    2
     3     9    11   am
     4    11    12    1
     5    12    13    1
     6    13    14    1
     7    14     1    1
     8     1     2    2
     9     1     3   am
    10     3     4    1
    11     4     5    1
    12     5    25    1
    13    25    26   ar
    14    26    27   ar
    15    27    30    1
    16    30    31    1
    17    30    32    1
    18    30    33    1
    19    33    34   ar
    20    34    35   ar
    21    35    39    1
    22    39    40    1
    23    39    41    1
    24    39    42    1
    25    35    36   ar
    26    36    37   ar
    27    37    43    1
    28    43    44    1
    29    43    45    1
    30    43    46    1
    31    37    38   ar
    32    27    28   ar
    33    28    29   ar
    34     5     6    1
    35     6    17    1
    36    17    18   ar
    37    18    19   ar
    38    19    20   ar
    39    20    21    1
    40    20    22   ar
    41    22    23   ar
    42    23    24    1
    43     6     7    1
    44    14    15    1
    45    15    16    1
    46    16    11    1
    47     7     3    1
    48    29    25   ar
    49    23    17   ar
    50    38    33   ar
@<TRIPOS>MOLECULE
*****
 46 50 0 0 0
SMALL
GASTEIGER

@<TRIPOS>ATOM
      1 C           6.7034   -0.9112   33.0133 C.2     1  UNL1        0.2253
      2 O           7.9666   -1.6886   33.2361 O.2     1  UNL1       -0.2749
      3 N           6.0678   -0.8863   31.6548 N.am    1  UNL1       -0.2787
      4 C           6.5775   -1.5864   30.4300 C.3     1  UNL1        0.1030
      5 C           5.6356   -1.2898   29.3008 C.3     1  UNL1        0.1046
      6 C           4.5438   -0.4064   29.8278 C.3     1  UNL1        0.0523
      7 C           4.8109   -0.1570   31.2826 C.3     1  UNL1        0.0982
      8 C           3.2028    1.4160   38.4521 C.3     1  UNL1        0.0948
      9 C           4.1926    2.0992   37.5557 C.2     1  UNL1        0.2261
     10 O           4.5546    3.5351   37.7949 O.2     1  UNL1       -0.2749
     11 N           4.8203    1.3466   36.4201 N.am    1  UNL1       -0.2795
     12 C           4.4583   -0.0892   36.1809 C.3     1  UNL1        0.0939
     13 C           5.0860   -0.8418   35.0453 C.3     1  UNL1        0.0306
     14 C           6.0757   -0.1586   34.1489 C.3     1  UNL1        0.0801
     15 C           6.4377    1.2773   34.3881 C.3     1  UNL1        0.0306
     16 C           5.8100    2.0299   35.5237 C.3     1  UNL1        0.0939
     17 C           3.3879    0.1330   29.0386 C.ar    1  UNL1       -0.0241
     18 C           2.0446   -0.5283   29.1288 C.ar    1  UNL1       -0.0022
     19 C           0.8886    0.0110   28.3395 C.ar    1  UNL1        0.0293
     20 C           1.0761    1.2117   27.4601 C.ar    1  UNL1        0.1398
     21 F          -0.0799    1.7510   26.6708 F       1  UNL1       -0.2042
     22 C           2.4194    1.8729   27.3699 C.ar    1  UNL1        0.0251
     23 C           3.5754    1.3336   28.1592 C.ar    1  UNL1       -0.0235
     24 C           4.9186    1.9948   28.0689 C.3     1  UNL1        0.0308
     25 C           5.7631   -1.7889   27.8921 C.ar    1  UNL1        0.2379
     26 N           4.8416   -1.4628   26.7544 N.ar    1  UNL1       -0.1945
     27 C           5.3435   -2.1741   25.5329 C.ar    1  UNL1        0.1834
     28 N           6.5752   -2.9398   25.9156 N.ar    1  UNL1       -0.0603
     29 O           6.8346   -2.7017   27.3738 O.2     1  UNL1       -0.3373
     30 C           4.7227   -2.1278   24.1682 C.3     1  UNL1        0.0744
     31 C           5.6181   -3.2458   23.7229 C.3     1  UNL1        0.0121
     32 C           3.8272   -1.0098   24.6134 C.3     1  UNL1        0.0121
     33 C           4.1018   -2.0815   22.8034 C.ar    1  UNL1       -0.0160
     34 C           3.0794   -1.0328   22.4797 C.ar    1  UNL1       -0.0000
     35 C           2.4585   -0.9865   21.1151 C.ar    1  UNL1        0.0711
     36 C           2.8601   -1.9890   20.0740 C.ar    1  UNL1        0.0077
     37 C           3.8825   -3.0377   20.3977 C.ar    1  UNL1        0.0711
     38 C           4.5034   -3.0840   21.7624 C.ar    1  UNL1       -0.0000
     39 C           1.4361    0.0623   20.7914 C.3     1  UNL1        0.4186
     40 F           0.4137    1.1111   20.4678 F       1  UNL1       -0.1659
     41 F           1.1296   -0.6352   19.4993 F       1  UNL1       -0.1659
     42 F           1.7425    0.7598   22.0835 F       1  UNL1       -0.1659
     43 C           4.2841   -4.0402   19.3567 C.3     1  UNL1        0.4186
     44 F           4.6858   -5.0427   18.3157 F       1  UNL1       -0.1659
     45 F           5.7244   -3.8520   19.7311 F       1  UNL1       -0.1659
     46 F           2.8439   -4.2284   18.9823 F       1  UNL1       -0.1659
@<TRIPOS>BOND
     1     8     9    1
     2     9    10    2
     3     9    11   am
     4    11    12    1
     5    12    13    1
     6    13    14    1
     7    14     1    1
     8     1     2    2
     9     1     3   am
    10     3     4    1
    11     4     5    1
    12     5    25    1
    13    25    26   ar
    14    26    27   ar
    15    27    30    1
    16    30    31    1
    17    30    32    1
    18    30    33    1
    19    33    34   ar
    20    34    35   ar
    21    35    39    1
    22    39    40    1
    23    39    41    1
    24    39    42    1
    25    35    36   ar
    26    36    37   ar
    27    37    43    1
    28    43    44    1
    29    43    45    1
    30    43    46    1
    31    37    38   ar
    32    27    28   ar
    33    28    29   ar
    34     5     6    1
    35     6    17    1
    36    17    18   ar
    37    18    19   ar
    38    19    20   ar
    39    20    21    1
    40    20    22   ar
    41    22    23   ar
    42    23    24    1
    43     6     7    1
    44    14    15    1
    45    15    16    1
    46    16    11    1
    47     7     3    1
    48    29    25   ar
    49    23    17   ar
    50    38    33   ar
@<TRIPOS>MOLECULE
*****
 46 50 0 0 0
SMALL
GASTEIGER

@<TRIPOS>ATOM
      1 C           6.3684   -0.7498   32.8851 C.2     1  UNL1        0.2253
      2 O           7.6486   -1.4871   33.1447 O.2     1  UNL1       -0.2749
      3 N           5.7733   -0.7422   31.5083 N.am    1  UNL1       -0.2787
      4 C           6.3415   -1.4230   30.2984 C.3     1  UNL1        0.1030
      5 C           5.4248   -1.1541   29.1418 C.3     1  UNL1        0.1046
      6 C           4.2901   -0.3070   29.6370 C.3     1  UNL1        0.0523
      7 C           4.5055   -0.0525   31.0995 C.3     1  UNL1        0.0982
      8 C           2.9562    1.3991   38.4519 C.3     1  UNL1        0.0948
      9 C           3.6281    2.1691   37.3539 C.2     1  UNL1        0.2261
     10 O           3.6149    3.6689   37.3732 O.2     1  UNL1       -0.2749
     11 N           4.3132    1.4394   36.2367 N.am    1  UNL1       -0.2795
     12 C           4.3263   -0.0604   36.2174 C.3     1  UNL1        0.0939
     13 C           5.0114   -0.7901   35.1002 C.3     1  UNL1        0.0306
     14 C           5.6833   -0.0201   34.0023 C.3     1  UNL1        0.0801
     15 C           5.6702    1.4797   34.0216 C.3     1  UNL1        0.0306
     16 C           4.9851    2.2094   35.1388 C.3     1  UNL1        0.0939
     17 C           3.1418    0.1969   28.8142 C.ar    1  UNL1       -0.0241
     18 C           1.8058   -0.4801   28.8968 C.ar    1  UNL1       -0.0022
     19 C           0.6573    0.0239   28.0740 C.ar    1  UNL1        0.0293
     20 C           0.8449    1.2049   27.1684 C.ar    1  UNL1        0.1398
     21 F          -0.3035    1.7089   26.3455 F       1  UNL1       -0.2042
     22 C           2.1809    1.8819   27.0857 C.ar    1  UNL1        0.0251
     23 C           3.3293    1.3779   27.9086 C.ar    1  UNL1       -0.0235
     24 C           4.6652    2.0550   27.8259 C.3     1  UNL1        0.0308
     25 C           5.6103   -1.6458   27.7369 C.ar    1  UNL1        0.2379
     26 N           4.6855   -1.3899   26.5840 N.ar    1  UNL1       -0.1945
     27 C           5.2568   -2.0657   25.3728 C.ar    1  UNL1        0.1834
     28 N           6.5346   -2.7392   25.7772 N.ar    1  UNL1       -0.0603
     29 O           6.7530   -2.4797   27.2384 O.2     1  UNL1       -0.3373
     30 C           4.6558   -2.0675   23.9985 C.3     1  UNL1        0.0744
     31 C           5.4642   -3.2810   23.6466 C.3     1  UNL1        0.0121
     32 C           3.8472   -0.8541   24.3504 C.3     1  UNL1        0.0121
     33 C           4.0547   -2.0694   22.6241 C.ar    1  UNL1       -0.0160
     34 C           4.4756   -3.1040   21.6229 C.ar    1  UNL1       -0.0000
     35 C           3.8746   -3.1059   20.2486 C.ar    1  UNL1        0.0711
     36 C           2.8527   -2.0732   19.8755 C.ar    1  UNL1        0.0077
     37 C           2.4318   -1.0386   20.8767 C.ar    1  UNL1        0.0711
     38 C           3.0327   -1.0367   22.2511 C.ar    1  UNL1       -0.0000
     39 C           4.2955   -4.1405   19.2473 C.3     1  UNL1        0.4186
     40 F           4.7165   -5.1750   18.2461 F       1  UNL1       -0.1659
     41 F           5.7323   -3.9061   19.6091 F       1  UNL1       -0.1659
     42 F           2.8588   -4.3749   18.8856 F       1  UNL1       -0.1659
     43 C           1.4098   -0.0060   20.5037 C.3     1  UNL1        0.4186
     44 F           0.3878    1.0268   20.1307 F       1  UNL1       -0.1659
     45 F           1.2192    0.3291   21.9533 F       1  UNL1       -0.1659
     46 F           1.6004   -0.3409   19.0541 F       1  UNL1       -0.1659
@<TRIPOS>BOND
     1     8     9    1
     2     9    10    2
     3     9    11   am
     4    11    12    1
     5    12    13    1
     6    13    14    1
     7    14     1    1
     8     1     2    2
     9     1     3   am
    10     3     4    1
    11     4     5    1
    12     5    25    1
    13    25    26   ar
    14    26    27   ar
    15    27    30    1
    16    30    31    1
    17    30    32    1
    18    30    33    1
    19    33    34   ar
    20    34    35   ar
    21    35    39    1
    22    39    40    1
    23    39    41    1
    24    39    42    1
    25    35    36   ar
    26    36    37   ar
    27    37    43    1
    28    43    44    1
    29    43    45    1
    30    43    46    1
    31    37    38   ar
    32    27    28   ar
    33    28    29   ar
    34     5     6    1
    35     6    17    1
    36    17    18   ar
    37    18    19   ar
    38    19    20   ar
    39    20    21    1
    40    20    22   ar
    41    22    23   ar
    42    23    24    1
    43     6     7    1
    44    14    15    1
    45    15    16    1
    46    16    11    1
    47     7     3    1
    48    29    25   ar
    49    23    17   ar
    50    38    33   ar
@<TRIPOS>MOLECULE
*****
 46 50 0 0 0
SMALL
GASTEIGER

@<TRIPOS>ATOM
      1 C           5.1790    1.2190   32.2699 C.2     1  UNL1        0.2253
      2 O           6.4125    0.5292   32.7724 O.2     1  UNL1       -0.2749
      3 N           4.6798    0.9462   30.8821 N.am    1  UNL1       -0.2787
      4 C           5.3055    0.0139   29.8874 C.3     1  UNL1        0.1030
      5 C           4.4795    0.0492   28.6356 C.3     1  UNL1        0.1046
      6 C           3.3434    1.0033   28.8568 C.3     1  UNL1        0.0523
      7 C           3.4671    1.5576   30.2451 C.3     1  UNL1        0.0982
      8 C           1.2618    4.5583   36.8257 C.3     1  UNL1        0.0948
      9 C           2.2417    5.0697   35.8118 C.2     1  UNL1        0.2261
     10 O           2.4874    6.5438   35.6833 O.2     1  UNL1       -0.2749
     11 N           2.9760    4.1070   34.9263 N.am    1  UNL1       -0.2795
     12 C           2.7304    2.6329   35.0548 C.3     1  UNL1        0.0939
     13 C           3.4647    1.6702   34.1693 C.3     1  UNL1        0.0306
     14 C           4.4447    2.1817   33.1554 C.3     1  UNL1        0.0801
     15 C           4.6903    3.6558   33.0269 C.3     1  UNL1        0.0306
     16 C           3.9560    4.6185   33.9124 C.3     1  UNL1        0.0939
     17 C           2.2717    1.3434   27.8640 C.ar    1  UNL1       -0.0241
     18 C           2.5531    2.3216   26.7622 C.ar    1  UNL1       -0.0022
     19 C           1.4814    2.6617   25.7693 C.ar    1  UNL1        0.0293
     20 C           0.1283    2.0235   25.8782 C.ar    1  UNL1        0.1398
     21 F          -0.9435    2.3636   24.8853 F       1  UNL1       -0.2042
     22 C          -0.1531    1.0453   26.9800 C.ar    1  UNL1        0.0251
     23 C           0.9186    0.7052   27.9729 C.ar    1  UNL1       -0.0235
     24 C           0.6372   -0.2729   29.0746 C.3     1  UNL1        0.0308
     25 C           4.7435   -0.7323   27.3828 C.ar    1  UNL1        0.2379
     26 N           4.0171   -0.5802   26.0793 N.ar    1  UNL1       -0.1945
     27 C           4.6048   -1.5570   25.1045 C.ar    1  UNL1        0.1834
     28 N           5.6944   -2.3128   25.8055 N.ar    1  UNL1       -0.0603
     29 O           5.7801   -1.8031   27.2136 O.2     1  UNL1       -0.3373
     30 C           4.1778   -1.7450   23.6789 C.3     1  UNL1        0.0744
     31 C           5.0394   -2.9691   23.5822 C.3     1  UNL1        0.0121
     32 C           3.3163   -0.5209   23.7754 C.3     1  UNL1        0.0121
     33 C           3.7508   -1.9330   22.2532 C.ar    1  UNL1       -0.0160
     34 C           2.8187   -0.9473   21.6132 C.ar    1  UNL1       -0.0000
     35 C           2.3917   -1.1352   20.1877 C.ar    1  UNL1        0.0711
     36 C           2.8969   -2.3089   19.4020 C.ar    1  UNL1        0.0077
     37 C           3.8290   -3.2946   20.0419 C.ar    1  UNL1        0.0711
     38 C           4.2560   -3.1067   21.4675 C.ar    1  UNL1       -0.0000
     39 C           1.4596   -0.1495   19.5477 C.3     1  UNL1        0.4186
     40 F           0.5274    0.8362   18.9078 F       1  UNL1       -0.1659
     41 F           2.5344    0.2351   18.5747 F       1  UNL1       -0.1659
     42 F           0.3848   -0.5342   20.5208 F       1  UNL1       -0.1659
     43 C           4.3342   -4.4683   19.2563 C.3     1  UNL1        0.4186
     44 F           4.8395   -5.6420   18.4706 F       1  UNL1       -0.1659
     45 F           5.6896   -4.3001   19.8766 F       1  UNL1       -0.1659
     46 F           2.9790   -4.6364   18.6360 F       1  UNL1       -0.1659
@<TRIPOS>BOND
     1     8     9    1
     2     9    10    2
     3     9    11   am
     4    11    12    1
     5    12    13    1
     6    13    14    1
     7    14     1    1
     8     1     2    2
     9     1     3   am
    10     3     4    1
    11     4     5    1
    12     5    25    1
    13    25    26   ar
    14    26    27   ar
    15    27    30    1
    16    30    31    1
    17    30    32    1
    18    30    33    1
    19    33    34   ar
    20    34    35   ar
    21    35    39    1
    22    39    40    1
    23    39    41    1
    24    39    42    1
    25    35    36   ar
    26    36    37   ar
    27    37    43    1
    28    43    44    1
    29    43    45    1
    30    43    46    1
    31    37    38   ar
    32    27    28   ar
    33    28    29   ar
    34     5     6    1
    35     6    17    1
    36    17    18   ar
    37    18    19   ar
    38    19    20   ar
    39    20    21    1
    40    20    22   ar
    41    22    23   ar
    42    23    24    1
    43     6     7    1
    44    14    15    1
    45    15    16    1
    46    16    11    1
    47     7     3    1
    48    29    25   ar
    49    23    17   ar
    50    38    33   ar
@<TRIPOS>MOLECULE
*****
 46 50 0 0 0
SMALL
GASTEIGER

@<TRIPOS>ATOM
      1 C           4.5868    1.9293   32.1804 C.2     1  UNL1        0.2253
      2 O           5.8074    1.2751   32.7567 O.2     1  UNL1       -0.2749
      3 N           4.1173    1.5606   30.8043 N.am    1  UNL1       -0.2787
      4 C           4.7622    0.5604   29.8912 C.3     1  UNL1        0.1030
      5 C           3.9639    0.5089   28.6222 C.3     1  UNL1        0.1046
      6 C           2.8255    1.4773   28.7512 C.3     1  UNL1        0.0523
      7 C           2.9203    2.1272   30.0998 C.3     1  UNL1        0.0982
      8 C           0.5621    5.5832   36.3876 C.3     1  UNL1        0.0948
      9 C           1.5826    6.0210   35.3792 C.2     1  UNL1        0.2261
     10 O           1.8520    7.4818   35.1705 O.2     1  UNL1       -0.2749
     11 N           2.3336    4.9981   34.5795 N.am    1  UNL1       -0.2795
     12 C           2.0642    3.5374   34.7882 C.3     1  UNL1        0.0939
     13 C           2.8153    2.5144   33.9885 C.3     1  UNL1        0.0306
     14 C           3.8357    2.9522   32.9801 C.3     1  UNL1        0.0801
     15 C           4.1051    4.4130   32.7714 C.3     1  UNL1        0.0306
     16 C           3.3541    5.4359   33.5711 C.3     1  UNL1        0.0939
     17 C           1.7766    1.7481   27.7138 C.ar    1  UNL1       -0.0241
     18 C           2.0070    2.8018   26.6715 C.ar    1  UNL1       -0.0022
     19 C           0.9581    3.0727   25.6339 C.ar    1  UNL1        0.0293
     20 C          -0.3214    2.2897   25.6389 C.ar    1  UNL1        0.1398
     21 F          -1.3704    2.5605   24.6014 F       1  UNL1       -0.2042
     22 C          -0.5519    1.2360   26.6812 C.ar    1  UNL1        0.0251
     23 C           0.4971    0.9652   27.7187 C.ar    1  UNL1       -0.0235
     24 C           0.2666   -0.0885   28.7610 C.3     1  UNL1        0.0308
     25 C           4.2531   -0.3585   27.4332 C.ar    1  UNL1        0.2379
     26 N           3.6535   -0.2094   26.0664 N.ar    1  UNL1       -0.1945
     27 C           4.2226   -1.2861   25.1907 C.ar    1  UNL1        0.1834
     28 N           5.1737   -2.1007   26.0163 N.ar    1  UNL1       -0.0603
     29 O           5.1926   -1.5274   27.4023 O.2     1  UNL1       -0.3373
     30 C           3.8974   -1.5091   23.7434 C.3     1  UNL1        0.0744
     31 C           4.8987   -2.6247   23.6904 C.3     1  UNL1        0.0121
     32 C           2.8961   -0.3935   23.7964 C.3     1  UNL1        0.0121
     33 C           3.5723   -1.7321   22.2961 C.ar    1  UNL1       -0.0160
     34 C           4.1438   -2.9153   21.5727 C.ar    1  UNL1       -0.0000
     35 C           3.8187   -3.1384   20.1254 C.ar    1  UNL1        0.0711
     36 C           2.9221   -2.1781   19.4016 C.ar    1  UNL1        0.0077
     37 C           2.3505   -0.9949   20.1250 C.ar    1  UNL1        0.0711
     38 C           2.6756   -0.7719   21.5722 C.ar    1  UNL1       -0.0000
     39 C           4.3903   -4.3216   19.4020 C.3     1  UNL1        0.4186
     40 F           4.9618   -5.5048   18.6786 F       1  UNL1       -0.1659
     41 F           5.2904   -3.4099   18.6220 F       1  UNL1       -0.1659
     42 F           3.4901   -5.2333   20.1821 F       1  UNL1       -0.1659
     43 C           1.4539   -0.0347   19.4012 C.3     1  UNL1        0.4186
     44 F           0.5573    0.9256   18.6773 F       1  UNL1       -0.1659
     45 F           2.5456    0.2369   18.4090 F       1  UNL1       -0.1659
     46 F           0.3622   -0.3061   20.3933 F       1  UNL1       -0.1659
@<TRIPOS>BOND
     1     8     9    1
     2     9    10    2
     3     9    11   am
     4    11    12    1
     5    12    13    1
     6    13    14    1
     7    14     1    1
     8     1     2    2
     9     1     3   am
    10     3     4    1
    11     4     5    1
    12     5    25    1
    13    25    26   ar
    14    26    27   ar
    15    27    30    1
    16    30    31    1
    17    30    32    1
    18    30    33    1
    19    33    34   ar
    20    34    35   ar
    21    35    39    1
    22    39    40    1
    23    39    41    1
    24    39    42    1
    25    35    36   ar
    26    36    37   ar
    27    37    43    1
    28    43    44    1
    29    43    45    1
    30    43    46    1
    31    37    38   ar
    32    27    28   ar
    33    28    29   ar
    34     5     6    1
    35     6    17    1
    36    17    18   ar
    37    18    19   ar
    38    19    20   ar
    39    20    21    1
    40    20    22   ar
    41    22    23   ar
    42    23    24    1
    43     6     7    1
    44    14    15    1
    45    15    16    1
    46    16    11    1
    47     7     3    1
    48    29    25   ar
    49    23    17   ar
    50    38    33   ar
@<TRIPOS>MOLECULE
*****
 46 50 0 0 0
SMALL
GASTEIGER

@<TRIPOS>ATOM
      1 C           7.0615   -5.4158   30.6672 C.2     1  UNL1        0.2253
      2 O           6.8021   -6.4840   31.6877 O.2     1  UNL1       -0.2749
      3 N           6.9941   -3.9700   31.0612 N.am    1  UNL1       -0.2787
      4 C           6.6807   -3.4429   32.4301 C.3     1  UNL1        0.1030
      5 C           6.7212   -1.9445   32.3703 C.3     1  UNL1        0.1046
      6 C           7.0597   -1.5457   30.9644 C.3     1  UNL1        0.0523
      7 C           7.2283   -2.7975   30.1554 C.3     1  UNL1        0.0982
      8 C           9.5357   -7.8234   24.7232 C.3     1  UNL1        0.0948
      9 C           8.3686   -6.9256   25.0093 C.2     1  UNL1        0.2261
     10 O           7.5283   -6.4053   23.8810 O.2     1  UNL1       -0.2749
     11 N           8.0418   -6.5482   26.4238 N.am    1  UNL1       -0.2795
     12 C           8.8821   -7.0685   27.5521 C.3     1  UNL1        0.0939
     13 C           8.5553   -6.6910   28.9666 C.3     1  UNL1        0.0306
     14 C           7.3883   -5.7932   29.2527 C.3     1  UNL1        0.0801
     15 C           6.5480   -5.2729   28.1244 C.3     1  UNL1        0.0306
     16 C           6.8748   -5.6504   26.7099 C.3     1  UNL1        0.0939
     17 C           7.2041   -0.1417   30.4569 C.ar    1  UNL1       -0.0241
     18 C           8.5478    0.5250   30.4670 C.ar    1  UNL1       -0.0022
     19 C           8.6923    1.9291   29.9594 C.ar    1  UNL1        0.0293
     20 C           7.4930    2.6665   29.4416 C.ar    1  UNL1        0.1398
     21 F           7.6374    4.0706   28.9340 F       1  UNL1       -0.2042
     22 C           6.1494    1.9998   29.4314 C.ar    1  UNL1        0.0251
     23 C           6.0049    0.5957   29.9391 C.ar    1  UNL1       -0.0235
     24 C           4.6613   -0.0709   29.9289 C.3     1  UNL1        0.0308
     25 C           6.4678   -1.0093   33.5154 C.ar    1  UNL1        0.2379
     26 N           5.1337   -0.4616   33.9277 N.ar    1  UNL1       -0.1945
     27 C           5.3454    0.4286   35.1163 C.ar    1  UNL1        0.1834
     28 N           6.8103    0.4310   35.4385 N.ar    1  UNL1       -0.0603
     29 O           7.5040   -0.4577   34.4491 O.2     1  UNL1       -0.3373
     30 C           4.2792    1.1838   35.8532 C.3     1  UNL1        0.0744
     31 C           3.8249    1.8007   34.5636 C.3     1  UNL1        0.0121
     32 C           4.7335    0.5669   37.1427 C.3     1  UNL1        0.0121
     33 C           3.2130    1.9390   36.5901 C.ar    1  UNL1       -0.0160
     34 C           2.6319    1.3759   37.8531 C.ar    1  UNL1       -0.0000
     35 C           1.5658    2.1310   38.5901 C.ar    1  UNL1        0.0711
     36 C           1.0807    3.4493   38.0639 C.ar    1  UNL1        0.0077
     37 C           1.6618    4.0124   36.8009 C.ar    1  UNL1        0.0711
     38 C           2.7280    3.2573   36.0640 C.ar    1  UNL1       -0.0000
     39 C           0.9847    1.5679   39.8531 C.3     1  UNL1        0.4186
     40 F           0.4036    1.0048   41.1161 F       1  UNL1       -0.1659
     41 F           1.8673    0.3622   39.7216 F       1  UNL1       -0.1659
     42 F           0.1021    2.7736   39.9846 F       1  UNL1       -0.1659
     43 C           1.1768    5.3307   36.2748 C.3     1  UNL1        0.4186
     44 F           0.6918    6.6491   35.7486 F       1  UNL1       -0.1659
     45 F           2.2570    5.3129   35.2342 F       1  UNL1       -0.1659
     46 F           0.0966    5.3486   37.3153 F       1  UNL1       -0.1659
@<TRIPOS>BOND
     1     8     9    1
     2     9    10    2
     3     9    11   am
     4    11    12    1
     5    12    13    1
     6    13    14    1
     7    14     1    1
     8     1     2    2
     9     1     3   am
    10     3     4    1
    11     4     5    1
    12     5    25    1
    13    25    26   ar
    14    26    27   ar
    15    27    30    1
    16    30    31    1
    17    30    32    1
    18    30    33    1
    19    33    34   ar
    20    34    35   ar
    21    35    39    1
    22    39    40    1
    23    39    41    1
    24    39    42    1
    25    35    36   ar
    26    36    37   ar
    27    37    43    1
    28    43    44    1
    29    43    45    1
    30    43    46    1
    31    37    38   ar
    32    27    28   ar
    33    28    29   ar
    34     5     6    1
    35     6    17    1
    36    17    18   ar
    37    18    19   ar
    38    19    20   ar
    39    20    21    1
    40    20    22   ar
    41    22    23   ar
    42    23    24    1
    43     6     7    1
    44    14    15    1
    45    15    16    1
    46    16    11    1
    47     7     3    1
    48    29    25   ar
    49    23    17   ar
    50    38    33   ar
@<TRIPOS>MOLECULE
*****
 46 50 0 0 0
SMALL
GASTEIGER

@<TRIPOS>ATOM
      1 C           6.9252   -5.3480   30.6461 C.2     1  UNL1        0.2253
      2 O           6.5428   -6.3875   31.6576 O.2     1  UNL1       -0.2749
      3 N           6.9453   -3.8985   31.0312 N.am    1  UNL1       -0.2787
      4 C           6.6092   -3.3404   32.3824 C.3     1  UNL1        0.1030
      5 C           6.7612   -1.8494   32.3190 C.3     1  UNL1        0.1046
      6 C           7.1912   -1.4860   30.9287 C.3     1  UNL1        0.0523
      7 C           7.3050   -2.7524   30.1328 C.3     1  UNL1        0.0982
      8 C           9.5357   -7.9086   24.8256 C.3     1  UNL1        0.0948
      9 C           8.3746   -6.9883   25.0597 C.2     1  UNL1        0.2261
     10 O           7.5758   -6.4782   23.8971 O.2     1  UNL1       -0.2749
     11 N           8.0122   -6.5783   26.4563 N.am    1  UNL1       -0.2795
     12 C           8.8110   -7.0884   27.6188 C.3     1  UNL1        0.0939
     13 C           8.4487   -6.6784   29.0154 C.3     1  UNL1        0.0306
     14 C           7.2876   -5.7581   29.2495 C.3     1  UNL1        0.0801
     15 C           6.4888   -5.2479   28.0869 C.3     1  UNL1        0.0306
     16 C           6.8511   -5.6580   26.6903 C.3     1  UNL1        0.0939
     17 C           7.4602   -0.0998   30.4230 C.ar    1  UNL1       -0.0241
     18 C           8.8637    0.4288   30.3941 C.ar    1  UNL1       -0.0022
     19 C           9.1328    1.8152   29.8884 C.ar    1  UNL1        0.0293
     20 C           7.9983    2.6729   29.4116 C.ar    1  UNL1        0.1398
     21 F           8.2673    4.0593   28.9060 F       1  UNL1       -0.2042
     22 C           6.5948    2.1443   29.4406 C.ar    1  UNL1        0.0251
     23 C           6.3258    0.7579   29.9463 C.ar    1  UNL1       -0.0235
     24 C           4.9224    0.2294   29.9752 C.3     1  UNL1        0.0308
     25 C           6.5247   -0.8903   33.4478 C.ar    1  UNL1        0.2379
     26 N           5.1895   -0.3957   33.9193 N.ar    1  UNL1       -0.1945
     27 C           5.4215    0.5429   35.0662 C.ar    1  UNL1        0.1834
     28 N           6.9001    0.6283   35.3034 N.ar    1  UNL1       -0.0603
     29 O           7.5820   -0.2575   34.3031 O.2     1  UNL1       -0.3373
     30 C           4.3610    1.2686   35.8399 C.3     1  UNL1        0.0744
     31 C           3.9378    1.9824   34.5904 C.3     1  UNL1        0.0121
     32 C           4.7842    0.5549   37.0895 C.3     1  UNL1        0.0121
     33 C           3.3005    1.9944   36.6137 C.ar    1  UNL1       -0.0160
     34 C           2.8434    3.3518   36.1680 C.ar    1  UNL1       -0.0000
     35 C           1.7829    4.0775   36.9417 C.ar    1  UNL1        0.0711
     36 C           1.1795    3.4459   38.1611 C.ar    1  UNL1        0.0077
     37 C           1.6366    2.0885   38.6068 C.ar    1  UNL1        0.0711
     38 C           2.6971    1.3628   37.8331 C.ar    1  UNL1       -0.0000
     39 C           1.3258    5.4349   36.4960 C.3     1  UNL1        0.4186
     40 F           0.8687    6.7922   36.0503 F       1  UNL1       -0.1659
     41 F           2.6308    5.6412   35.7858 F       1  UNL1       -0.1659
     42 F           0.0208    5.2286   37.2062 F       1  UNL1       -0.1659
     43 C           1.0332    1.4569   39.8262 C.3     1  UNL1        0.4186
     44 F           0.4299    0.8252   41.0456 F       1  UNL1       -0.1659
     45 F           1.9142    0.2572   39.6407 F       1  UNL1       -0.1659
     46 F           0.1522    2.6566   40.0117 F       1  UNL1       -0.1659
@<TRIPOS>BOND
     1     8     9    1
     2     9    10    2
     3     9    11   am
     4    11    12    1
     5    12    13    1
     6    13    14    1
     7    14     1    1
     8     1     2    2
     9     1     3   am
    10     3     4    1
    11     4     5    1
    12     5    25    1
    13    25    26   ar
    14    26    27   ar
    15    27    30    1
    16    30    31    1
    17    30    32    1
    18    30    33    1
    19    33    34   ar
    20    34    35   ar
    21    35    39    1
    22    39    40    1
    23    39    41    1
    24    39    42    1
    25    35    36   ar
    26    36    37   ar
    27    37    43    1
    28    43    44    1
    29    43    45    1
    30    43    46    1
    31    37    38   ar
    32    27    28   ar
    33    28    29   ar
    34     5     6    1
    35     6    17    1
    36    17    18   ar
    37    18    19   ar
    38    19    20   ar
    39    20    21    1
    40    20    22   ar
    41    22    23   ar
    42    23    24    1
    43     6     7    1
    44    14    15    1
    45    15    16    1
    46    16    11    1
    47     7     3    1
    48    29    25   ar
    49    23    17   ar
    50    38    33   ar
@<TRIPOS>MOLECULE
*****
 46 50 0 0 0
SMALL
GASTEIGER

@<TRIPOS>ATOM
      1 C           1.5734    2.5394   30.7828 C.2     1  UNL1        0.2253
      2 O           0.4913    3.0821   29.8971 O.2     1  UNL1       -0.2749
      3 N           2.5900    1.5866   30.2271 N.am    1  UNL1       -0.2787
      4 C           2.6515    1.0886   28.8136 C.3     1  UNL1        0.1030
      5 C           3.8231    0.1587   28.7002 C.3     1  UNL1        0.1046
      6 C           4.4857    0.0821   30.0438 C.3     1  UNL1        0.0523
      7 C           3.7236    0.9646   30.9875 C.3     1  UNL1        0.0982
      8 C           2.4512    3.2612   37.5621 C.3     1  UNL1        0.0948
      9 C           1.8356    4.1795   36.5483 C.2     1  UNL1        0.2261
     10 O           1.2854    5.5078   36.9760 O.2     1  UNL1       -0.2749
     11 N           1.7700    3.7695   35.1070 N.am    1  UNL1       -0.2795
     12 C           2.3201    2.4412   34.6793 C.3     1  UNL1        0.0939
     13 C           2.2546    2.0311   33.2379 C.3     1  UNL1        0.0306
     14 C           1.6390    2.9494   32.2242 C.3     1  UNL1        0.0801
     15 C           1.0888    4.2777   32.6519 C.3     1  UNL1        0.0306
     16 C           1.1544    4.6877   34.0932 C.3     1  UNL1        0.0939
     17 C           5.6976   -0.7337   30.3840 C.ar    1  UNL1       -0.0241
     18 C           5.5392   -2.0808   31.0245 C.ar    1  UNL1       -0.0022
     19 C           6.7511   -2.8967   31.3647 C.ar    1  UNL1        0.0293
     20 C           8.1214   -2.3654   31.0643 C.ar    1  UNL1        0.1398
     21 F           9.3333   -3.1812   31.4045 F       1  UNL1       -0.2042
     22 C           8.2797   -1.0183   30.4238 C.ar    1  UNL1        0.0251
     23 C           7.0678   -0.2024   30.0836 C.ar    1  UNL1       -0.0235
     24 C           7.2262    1.1446   29.4432 C.3     1  UNL1        0.0308
     25 C           4.2561   -0.5671   27.4610 C.ar    1  UNL1        0.2379
     26 N           3.5742   -0.5163   26.1259 N.ar    1  UNL1       -0.1945
     27 C           4.3437   -1.3889   25.1790 C.ar    1  UNL1        0.1834
     28 N           5.5010   -1.9789   25.9289 N.ar    1  UNL1       -0.0603
     29 O           5.4469   -1.4710   27.3393 O.2     1  UNL1       -0.3373
     30 C           4.0136   -1.6292   23.7357 C.3     1  UNL1        0.0744
     31 C           5.0256   -2.7354   23.6885 C.3     1  UNL1        0.0121
     32 C           3.0017   -0.5230   23.7828 C.3     1  UNL1        0.0121
     33 C           3.6836   -1.8696   22.2922 C.ar    1  UNL1       -0.0160
     34 C           4.2277   -3.0780   21.5896 C.ar    1  UNL1       -0.0000
     35 C           3.8978   -3.3184   20.1463 C.ar    1  UNL1        0.0711
     36 C           3.0236   -2.3503   19.4055 C.ar    1  UNL1        0.0077
     37 C           2.4795   -1.1419   20.1081 C.ar    1  UNL1        0.0711
     38 C           2.8094   -0.9015   21.5515 C.ar    1  UNL1       -0.0000
     39 C           4.4419   -4.5268   19.4437 C.3     1  UNL1        0.4186
     40 F           4.9860   -5.7352   18.7411 F       1  UNL1       -0.1659
     41 F           5.8314   -4.1412   19.8566 F       1  UNL1       -0.1659
     42 F           3.0524   -4.9124   19.0307 F       1  UNL1       -0.1659
     43 C           1.6053   -0.1738   19.3674 C.3     1  UNL1        0.4186
     44 F           0.7311    0.7942   18.6267 F       1  UNL1       -0.1659
     45 F           0.4865   -0.4492   20.3278 F       1  UNL1       -0.1659
     46 F           2.7240    0.1016   18.4070 F       1  UNL1       -0.1659
@<TRIPOS>BOND
     1     8     9    1
     2     9    10    2
     3     9    11   am
     4    11    12    1
     5    12    13    1
     6    13    14    1
     7    14     1    1
     8     1     2    2
     9     1     3   am
    10     3     4    1
    11     4     5    1
    12     5    25    1
    13    25    26   ar
    14    26    27   ar
    15    27    30    1
    16    30    31    1
    17    30    32    1
    18    30    33    1
    19    33    34   ar
    20    34    35   ar
    21    35    39    1
    22    39    40    1
    23    39    41    1
    24    39    42    1
    25    35    36   ar
    26    36    37   ar
    27    37    43    1
    28    43    44    1
    29    43    45    1
    30    43    46    1
    31    37    38   ar
    32    27    28   ar
    33    28    29   ar
    34     5     6    1
    35     6    17    1
    36    17    18   ar
    37    18    19   ar
    38    19    20   ar
    39    20    21    1
    40    20    22   ar
    41    22    23   ar
    42    23    24    1
    43     6     7    1
    44    14    15    1
    45    15    16    1
    46    16    11    1
    47     7     3    1
    48    29    25   ar
    49    23    17   ar
    50    38    33   ar
