@<TRIPOS>MOLECULE
*****
 25 29 0 0 0
SMALL
GASTEIGER

@<TRIPOS>ATOM
      1 C          -9.2348  -18.9243   22.4135 C.2     1  UNL1        0.0959
      2 C         -10.1468  -18.9115   21.2227 C.2     1  UNL1        0.1049
      3 N          -9.3001  -19.0195   19.9893 N.2     1  UNL1       -0.2475
      4 C          -7.8648  -19.0990   20.4178 C.2     1  UNL1        0.0670
      5 C          -6.5894  -19.2174   19.6372 C.3     1  UNL1        0.1127
      6 C          -5.2736  -19.2769   20.3550 C.2     1  UNL1        0.1558
      7 C          -5.2332  -19.2181   21.8533 C.2     1  UNL1        0.1686
      8 C          -6.5087  -19.0997   22.6338 C.2     1  UNL1        0.0411
      9 C          -7.8245  -19.0402   21.9161 C.2     1  UNL1        0.0249
     10 O          -3.9175  -19.2776   22.5710 O.2     1  UNL1       -0.4687
     11 C          -2.6421  -19.3960   21.7905 C.3     1  UNL1        0.2526
     12 C          -2.6824  -19.4548   20.2922 C.3     1  UNL1        0.2521
     13 O          -3.9982  -19.3953   19.5744 O.2     1  UNL1       -0.4723
     14 O          -9.5090  -20.0271   24.7499 O.2     1  UNL1       -0.2448
     15 C          -9.6587  -18.8366   23.8497 C.2     1  UNL1        0.3428
     16 O         -10.2323  -17.5585   24.3857 O.3     1  UNL1       -0.4454
     17 C          -9.5304  -16.2571   24.1329 C.3     1  UNL1        0.2087
     18 C          -8.2604  -15.9357   24.8634 C.3     1  UNL1        0.0445
     19 C          -8.2643  -15.8187   26.3588 C.3     1  UNL1        0.0210
     20 C          -6.9942  -15.4972   27.0892 C.3     1  UNL1        0.0722
     21 N          -5.7202  -15.2929   26.3242 N.3     1  UNL1       -0.2727
     22 C          -5.7163  -15.4099   24.8288 C.3     1  UNL1        0.0722
     23 C          -6.9864  -15.7314   24.0984 C.3     1  UNL1        0.0210
     24 C          -6.3912  -15.4673   25.8802 C.3     1  UNL1        0.0722
     25 C          -7.5396  -15.7579   25.2196 C.3     1  UNL1        0.0210
@<TRIPOS>BOND
     1    14    15    2
     2    15    16    1
     3    16    17    1
     4    17    18    1
     5    18    19    1
     6    19    20    1
     7    20    21    1
     8    21    22    1
     9    22    23    1
    10    21    24    1
    11    24    25    1
    12    15     1    1
    13     1     2    2
    14     2     3    1
    15     3     4    2
    16     4     5    1
    17     5     6    1
    18     6     7    2
    19     7     8    1
    20     8     9    2
    21     7    10    1
    22    10    11    1
    23    11    12    1
    24    12    13    1
    25    23    18    1
    26     9     1    1
    27    25    18    1
    28     9     4    1
    29    13     6    1
@<TRIPOS>MOLECULE
*****
 25 29 0 0 0
SMALL
GASTEIGER

@<TRIPOS>ATOM
      1 C          -5.8633  -15.7142   24.1045 C.2     1  UNL1        0.0959
      2 C          -5.8985  -15.5426   25.5943 C.2     1  UNL1        0.1049
      3 N          -7.2987  -15.8137   26.0590 N.2     1  UNL1       -0.2475
      4 C          -8.1288  -16.1529   24.8566 C.2     1  UNL1        0.0670
      5 C          -9.5778  -16.5097   24.7055 C.3     1  UNL1        0.1127
      6 C         -10.1398  -16.8051   23.3464 C.2     1  UNL1        0.1558
      7 C          -9.2526  -16.7437   22.1385 C.2     1  UNL1        0.1686
      8 C          -7.8035  -16.3868   22.2896 C.2     1  UNL1        0.0411
      9 C          -7.2416  -16.0914   23.6486 C.2     1  UNL1        0.0249
     10 O          -9.8145  -17.0391   20.7794 O.2     1  UNL1       -0.4687
     11 C         -11.2636  -17.3959   20.6284 C.3     1  UNL1        0.2526
     12 C         -12.1507  -17.4574   21.8364 C.3     1  UNL1        0.2521
     13 O         -11.5888  -17.1620   23.1954 O.2     1  UNL1       -0.4723
     14 O          -4.4489  -14.2479   22.4922 O.2     1  UNL1       -0.2448
     15 C          -4.6608  -15.5394   23.2251 C.2     1  UNL1        0.3428
     16 O          -3.6700  -16.6561   23.0785 O.3     1  UNL1       -0.4454
     17 C          -4.0819  -18.0679   23.3742 C.3     1  UNL1        0.2087
     18 C          -4.4981  -18.9774   22.2564 C.3     1  UNL1        0.0445
     19 C          -5.9432  -19.3405   22.0835 C.3     1  UNL1        0.0210
     20 C          -6.3594  -20.2501   20.9657 C.3     1  UNL1        0.0722
     21 N          -5.3304  -20.7965   20.0208 N.3     1  UNL1       -0.2727
     22 C          -3.8854  -20.4334   20.1938 C.3     1  UNL1        0.0722
     23 C          -3.4692  -19.5239   21.3116 C.3     1  UNL1        0.0210
     24 C          -5.0545  -20.3018   20.6183 C.3     1  UNL1        0.0722
     25 C          -4.6781  -19.4793   21.6290 C.3     1  UNL1        0.0210
@<TRIPOS>BOND
     1    14    15    2
     2    15    16    1
     3    16    17    1
     4    17    18    1
     5    18    19    1
     6    19    20    1
     7    20    21    1
     8    21    22    1
     9    22    23    1
    10    21    24    1
    11    24    25    1
    12    15     1    1
    13     1     2    2
    14     2     3    1
    15     3     4    2
    16     4     5    1
    17     5     6    1
    18     6     7    2
    19     7     8    1
    20     8     9    2
    21     7    10    1
    22    10    11    1
    23    11    12    1
    24    12    13    1
    25    23    18    1
    26     9     1    1
    27    25    18    1
    28     9     4    1
    29    13     6    1
@<TRIPOS>MOLECULE
*****
 25 29 0 0 0
SMALL
GASTEIGER

@<TRIPOS>ATOM
      1 C          -5.6920  -16.3502   24.0623 C.2     1  UNL1        0.0959
      2 C          -5.8463  -15.5558   25.3253 C.2     1  UNL1        0.1049
      3 N          -7.3097  -15.3065   25.5401 N.2     1  UNL1       -0.2475
      4 C          -8.0599  -15.9468   24.4100 C.2     1  UNL1        0.0670
      5 C          -9.5242  -16.0259   24.0946 C.3     1  UNL1        0.1127
      6 C          -9.9888  -16.7500   22.8658 C.2     1  UNL1        0.1558
      7 C          -8.9890  -17.3951   21.9524 C.2     1  UNL1        0.1686
      8 C          -7.5246  -17.3160   22.2679 C.2     1  UNL1        0.0411
      9 C          -7.0601  -16.5919   23.4966 C.2     1  UNL1        0.0249
     10 O          -9.4535  -18.1192   20.7237 O.2     1  UNL1       -0.4687
     11 C         -10.9178  -18.1982   20.4083 C.3     1  UNL1        0.2526
     12 C         -11.9176  -17.5531   21.3217 C.3     1  UNL1        0.2521
     13 O         -11.4531  -16.8290   22.5505 O.2     1  UNL1       -0.4723
     14 O          -3.5753  -15.8890   22.6281 O.2     1  UNL1       -0.2448
     15 C          -4.3970  -16.8205   23.4691 C.2     1  UNL1        0.3428
     16 O          -3.9237  -18.2221   23.7168 O.3     1  UNL1       -0.4454
     17 C          -3.8997  -19.2154   22.5930 C.3     1  UNL1        0.2087
     18 C          -3.1396  -18.9083   21.3369 C.3     1  UNL1        0.0445
     19 C          -1.6745  -18.5938   21.4046 C.3     1  UNL1        0.0210
     20 C          -0.9146  -18.2867   20.1483 C.3     1  UNL1        0.0722
     21 N          -1.6196  -18.2942   18.8244 N.3     1  UNL1       -0.2727
     22 C          -3.0847  -18.6088   18.7567 C.3     1  UNL1        0.0722
     23 C          -3.8447  -18.9158   20.0129 C.3     1  UNL1        0.0210
     24 C          -2.0781  -18.4687   19.4857 C.3     1  UNL1        0.0722
     25 C          -2.7654  -18.7463   20.6215 C.3     1  UNL1        0.0210
@<TRIPOS>BOND
     1    14    15    2
     2    15    16    1
     3    16    17    1
     4    17    18    1
     5    18    19    1
     6    19    20    1
     7    20    21    1
     8    21    22    1
     9    22    23    1
    10    21    24    1
    11    24    25    1
    12    15     1    1
    13     1     2    2
    14     2     3    1
    15     3     4    2
    16     4     5    1
    17     5     6    1
    18     6     7    2
    19     7     8    1
    20     8     9    2
    21     7    10    1
    22    10    11    1
    23    11    12    1
    24    12    13    1
    25    23    18    1
    26     9     1    1
    27    25    18    1
    28     9     4    1
    29    13     6    1
@<TRIPOS>MOLECULE
*****
 25 29 0 0 0
SMALL
GASTEIGER

@<TRIPOS>ATOM
      1 C          -7.0060  -15.8735   24.8187 C.2     1  UNL1        0.0959
      2 C          -7.8084  -15.5396   26.0412 C.2     1  UNL1        0.1049
      3 N          -9.1928  -16.0846   25.8500 N.2     1  UNL1       -0.2475
      4 C          -9.2459  -16.7552   24.5093 C.2     1  UNL1        0.0670
      5 C         -10.3503  -17.4678   23.7866 C.3     1  UNL1        0.1127
      6 C         -10.1032  -18.0500   22.4264 C.2     1  UNL1        0.1558
      7 C          -8.7517  -17.9195   21.7890 C.2     1  UNL1        0.1686
      8 C          -7.6472  -17.2069   22.5118 C.2     1  UNL1        0.0411
      9 C          -7.8944  -16.6247   23.8719 C.2     1  UNL1        0.0249
     10 O          -8.5045  -18.5016   20.4289 O.2     1  UNL1       -0.4687
     11 C          -9.6090  -19.2142   19.7061 C.3     1  UNL1        0.2526
     12 C         -10.9605  -19.3447   20.3435 C.3     1  UNL1        0.2521
     13 O         -11.2077  -18.7625   21.7036 O.2     1  UNL1       -0.4723
     14 O          -4.8982  -14.4910   25.4480 O.2     1  UNL1       -0.2448
     15 C          -5.5676  -15.5184   24.5841 C.2     1  UNL1        0.3428
     16 O          -4.7986  -16.1908   23.4857 O.3     1  UNL1       -0.4454
     17 C          -4.1485  -17.5203   23.7304 C.3     1  UNL1        0.2087
     18 C          -3.8981  -18.4550   22.5843 C.3     1  UNL1        0.0445
     19 C          -2.5159  -18.5950   22.0187 C.3     1  UNL1        0.0210
     20 C          -2.2657  -19.5297   20.8726 C.3     1  UNL1        0.0722
     21 N          -3.3976  -20.3245   20.2920 N.3     1  UNL1       -0.2727
     22 C          -4.7798  -20.1845   20.8576 C.3     1  UNL1        0.0722
     23 C          -5.0301  -19.2498   22.0037 C.3     1  UNL1        0.0210
     24 C          -3.5835  -19.8251   20.9196 C.3     1  UNL1        0.0722
     25 C          -3.8099  -18.9799   21.9560 C.3     1  UNL1        0.0210
@<TRIPOS>BOND
     1    14    15    2
     2    15    16    1
     3    16    17    1
     4    17    18    1
     5    18    19    1
     6    19    20    1
     7    20    21    1
     8    21    22    1
     9    22    23    1
    10    21    24    1
    11    24    25    1
    12    15     1    1
    13     1     2    2
    14     2     3    1
    15     3     4    2
    16     4     5    1
    17     5     6    1
    18     6     7    2
    19     7     8    1
    20     8     9    2
    21     7    10    1
    22    10    11    1
    23    11    12    1
    24    12    13    1
    25    23    18    1
    26     9     1    1
    27    25    18    1
    28     9     4    1
    29    13     6    1
@<TRIPOS>MOLECULE
*****
 25 29 0 0 0
SMALL
GASTEIGER

@<TRIPOS>ATOM
      1 C          -9.5408  -19.2064   20.5972 C.2     1  UNL1        0.0959
      2 C         -10.9901  -19.5609   20.7514 C.2     1  UNL1        0.1049
      3 N         -11.4956  -18.9102   22.0048 N.2     1  UNL1       -0.2475
      4 C         -10.3587  -18.1534   22.6252 C.2     1  UNL1        0.0670
      5 C         -10.2676  -17.3214   23.8699 C.3     1  UNL1        0.1127
      6 C          -8.9682  -16.6723   24.2447 C.2     1  UNL1        0.1558
      7 C          -7.7601  -16.8553   23.3747 C.2     1  UNL1        0.1686
      8 C          -7.8513  -17.6875   22.1300 C.2     1  UNL1        0.0411
      9 C          -9.1506  -18.3365   21.7553 C.2     1  UNL1        0.0249
     10 O          -6.4607  -16.2063   23.7495 O.2     1  UNL1       -0.4687
     11 C          -6.3696  -15.3742   24.9941 C.3     1  UNL1        0.2526
     12 C          -7.5778  -15.1911   25.8641 C.3     1  UNL1        0.2521
     13 O          -8.8771  -15.8402   25.4893 O.2     1  UNL1       -0.4723
     14 O          -9.2073  -20.3827   18.3048 O.2     1  UNL1       -0.2448
     15 C          -8.6398  -19.6447   19.4809 C.2     1  UNL1        0.3428
     16 O          -7.1712  -19.3451   19.5407 O.3     1  UNL1       -0.4454
     17 C          -6.2364  -20.3061   20.2135 C.3     1  UNL1        0.2087
     18 C          -4.9409  -19.8145   20.7879 C.3     1  UNL1        0.0445
     19 C          -3.7010  -19.8072   19.9438 C.3     1  UNL1        0.0210
     20 C          -2.4055  -19.3156   20.5182 C.3     1  UNL1        0.0722
     21 N          -2.3500  -18.8311   21.9368 N.3     1  UNL1       -0.2727
     22 C          -3.5899  -18.8384   22.7809 C.3     1  UNL1        0.0722
     23 C          -4.8854  -19.3300   22.2064 C.3     1  UNL1        0.0210
     24 C          -3.0827  -19.0912   21.6659 C.3     1  UNL1        0.0722
     25 C          -4.2541  -19.5358   21.1466 C.3     1  UNL1        0.0210
@<TRIPOS>BOND
     1    14    15    2
     2    15    16    1
     3    16    17    1
     4    17    18    1
     5    18    19    1
     6    19    20    1
     7    20    21    1
     8    21    22    1
     9    22    23    1
    10    21    24    1
    11    24    25    1
    12    15     1    1
    13     1     2    2
    14     2     3    1
    15     3     4    2
    16     4     5    1
    17     5     6    1
    18     6     7    2
    19     7     8    1
    20     8     9    2
    21     7    10    1
    22    10    11    1
    23    11    12    1
    24    12    13    1
    25    23    18    1
    26     9     1    1
    27    25    18    1
    28     9     4    1
    29    13     6    1
@<TRIPOS>MOLECULE
*****
 25 29 0 0 0
SMALL
GASTEIGER

@<TRIPOS>ATOM
      1 C         -10.8165  -17.7475   21.7228 C.2     1  UNL1        0.0959
      2 C         -11.9095  -18.2941   22.5927 C.2     1  UNL1        0.1049
      3 N         -11.5036  -18.1004   24.0236 N.2     1  UNL1       -0.2475
      4 C         -10.1597  -17.4341   24.0382 C.2     1  UNL1        0.0670
      5 C          -9.2679  -16.9979   25.1626 C.3     1  UNL1        0.1127
      6 C          -7.9513  -16.3435   24.8650 C.2     1  UNL1        0.1558
      7 C          -7.5267  -16.1253   23.4430 C.2     1  UNL1        0.1686
      8 C          -8.4186  -16.5616   22.3186 C.2     1  UNL1        0.0411
      9 C          -9.7351  -17.2160   22.6162 C.2     1  UNL1        0.0249
     10 O          -6.2102  -15.4709   23.1453 O.2     1  UNL1       -0.4687
     11 C          -5.3184  -15.0347   24.2697 C.3     1  UNL1        0.2526
     12 C          -5.7430  -15.2528   25.6917 C.3     1  UNL1        0.2521
     13 O          -7.0595  -15.9072   25.9893 O.2     1  UNL1       -0.4723
     14 O         -11.9298  -17.0841   19.4711 O.2     1  UNL1       -0.2448
     15 C         -10.8066  -17.7346   20.2229 C.2     1  UNL1        0.3428
     16 O          -9.6736  -18.3722   19.4749 O.3     1  UNL1       -0.4454
     17 C          -9.0234  -19.6124   20.0127 C.3     1  UNL1        0.2087
     18 C          -7.5940  -19.5738   20.4657 C.3     1  UNL1        0.0445
     19 C          -6.5098  -19.2059   19.4967 C.3     1  UNL1        0.0210
     20 C          -5.0804  -19.1672   19.9498 C.3     1  UNL1        0.0722
     21 N          -4.7353  -19.4964   21.3719 N.3     1  UNL1       -0.2727
     22 C          -5.8195  -19.8643   22.3410 C.3     1  UNL1        0.0722
     23 C          -7.2489  -19.9030   21.8878 C.3     1  UNL1        0.0210
     24 C          -5.5327  -19.5311   21.1700 C.3     1  UNL1        0.0722
     25 C          -6.8252  -19.5661   20.7604 C.3     1  UNL1        0.0210
@<TRIPOS>BOND
     1    14    15    2
     2    15    16    1
     3    16    17    1
     4    17    18    1
     5    18    19    1
     6    19    20    1
     7    20    21    1
     8    21    22    1
     9    22    23    1
    10    21    24    1
    11    24    25    1
    12    15     1    1
    13     1     2    2
    14     2     3    1
    15     3     4    2
    16     4     5    1
    17     5     6    1
    18     6     7    2
    19     7     8    1
    20     8     9    2
    21     7    10    1
    22    10    11    1
    23    11    12    1
    24    12    13    1
    25    23    18    1
    26     9     1    1
    27    25    18    1
    28     9     4    1
    29    13     6    1
@<TRIPOS>MOLECULE
*****
 25 29 0 0 0
SMALL
GASTEIGER

@<TRIPOS>ATOM
      1 C          -7.4772  -16.3071   24.2989 C.2     1  UNL1        0.0959
      2 C          -6.8226  -15.1831   25.0459 C.2     1  UNL1        0.1049
      3 N          -5.3539  -15.2187   24.7431 N.2     1  UNL1       -0.2475
      4 C          -5.1008  -16.3647   23.8090 C.2     1  UNL1        0.0670
      5 C          -3.8450  -16.8827   23.1729 C.3     1  UNL1        0.1127
      6 C          -3.9014  -18.0733   22.2623 C.2     1  UNL1        0.1558
      7 C          -5.2137  -18.7460   21.9878 C.2     1  UNL1        0.1686
      8 C          -6.4696  -18.2281   22.6239 C.2     1  UNL1        0.0411
      9 C          -6.4131  -17.0374   23.5345 C.2     1  UNL1        0.0249
     10 O          -5.2702  -19.9367   21.0772 O.2     1  UNL1       -0.4687
     11 C          -4.0144  -20.4546   20.4411 C.3     1  UNL1        0.2526
     12 C          -2.7021  -19.7819   20.7156 C.3     1  UNL1        0.2521
     13 O          -2.6456  -18.5913   21.6262 O.2     1  UNL1       -0.4723
     14 O          -9.9444  -15.6347   23.8396 O.2     1  UNL1       -0.2448
     15 C          -8.9392  -16.6421   24.3138 C.2     1  UNL1        0.3428
     16 O          -9.3962  -17.9845   24.8028 O.3     1  UNL1       -0.4454
     17 C          -9.8936  -19.0090   23.8265 C.3     1  UNL1        0.2087
     18 C         -10.6076  -18.5738   22.5812 C.3     1  UNL1        0.0445
     19 C         -12.0347  -18.1180   22.6553 C.3     1  UNL1        0.0210
     20 C         -12.7486  -17.6828   21.4099 C.3     1  UNL1        0.0722
     21 N         -12.0353  -17.7033   20.0905 N.3     1  UNL1       -0.2727
     22 C         -10.6081  -18.1591   20.0165 C.3     1  UNL1        0.0722
     23 C          -9.8943  -18.5943   21.2619 C.3     1  UNL1        0.0210
     24 C         -11.6027  -17.9510   20.7458 C.3     1  UNL1        0.0722
     25 C         -10.9571  -18.3446   21.8718 C.3     1  UNL1        0.0210
@<TRIPOS>BOND
     1    14    15    2
     2    15    16    1
     3    16    17    1
     4    17    18    1
     5    18    19    1
     6    19    20    1
     7    20    21    1
     8    21    22    1
     9    22    23    1
    10    21    24    1
    11    24    25    1
    12    15     1    1
    13     1     2    2
    14     2     3    1
    15     3     4    2
    16     4     5    1
    17     5     6    1
    18     6     7    2
    19     7     8    1
    20     8     9    2
    21     7    10    1
    22    10    11    1
    23    11    12    1
    24    12    13    1
    25    23    18    1
    26     9     1    1
    27    25    18    1
    28     9     4    1
    29    13     6    1
@<TRIPOS>MOLECULE
*****
 25 29 0 0 0
SMALL
GASTEIGER

@<TRIPOS>ATOM
      1 C          -8.0807  -19.9065   22.5848 C.2     1  UNL1        0.0959
      2 C          -8.6357  -20.7293   23.7096 C.2     1  UNL1        0.1049
      3 N         -10.0871  -20.3836   23.8643 N.2     1  UNL1       -0.2475
      4 C         -10.4291  -19.3472   22.8352 C.2     1  UNL1        0.0670
      5 C         -11.7094  -18.6339   22.5160 C.3     1  UNL1        0.1127
      6 C         -11.7497  -17.6258   21.4060 C.2     1  UNL1        0.1558
      7 C         -10.5097  -17.3309   20.6152 C.2     1  UNL1        0.1686
      8 C          -9.2293  -18.0443   20.9345 C.2     1  UNL1        0.0411
      9 C          -9.1890  -19.0524   22.0444 C.2     1  UNL1        0.0249
     10 O         -10.5499  -16.3228   19.5053 O.2     1  UNL1       -0.4687
     11 C         -11.8303  -15.6095   19.1861 C.3     1  UNL1        0.2526
     12 C         -13.0703  -15.9043   19.9769 C.3     1  UNL1        0.2521
     13 O         -13.0301  -16.9125   21.0868 O.2     1  UNL1       -0.4723
     14 O          -6.2129  -21.0321   21.1725 O.2     1  UNL1       -0.2448
     15 C          -6.6657  -19.9333   22.0877 C.2     1  UNL1        0.3428
     16 O          -5.7035  -18.8611   22.5057 O.3     1  UNL1       -0.4454
     17 C          -4.2466  -19.1810   22.6644 C.3     1  UNL1        0.2087
     18 C          -3.2238  -18.4419   21.8535 C.3     1  UNL1        0.0445
     19 C          -2.6770  -19.0539   20.5980 C.3     1  UNL1        0.0210
     20 C          -1.6542  -18.3147   19.7871 C.3     1  UNL1        0.0722
     21 N          -1.1782  -16.9635   20.2319 N.3     1  UNL1       -0.2727
     22 C          -1.7250  -16.3516   21.4874 C.3     1  UNL1        0.0722
     23 C          -2.7479  -17.0907   22.2982 C.3     1  UNL1        0.0210
     24 C          -1.7399  -17.3305   20.7091 C.3     1  UNL1        0.0722
     25 C          -2.6648  -17.9987   21.4423 C.3     1  UNL1        0.0210
@<TRIPOS>BOND
     1    14    15    2
     2    15    16    1
     3    16    17    1
     4    17    18    1
     5    18    19    1
     6    19    20    1
     7    20    21    1
     8    21    22    1
     9    22    23    1
    10    21    24    1
    11    24    25    1
    12    15     1    1
    13     1     2    2
    14     2     3    1
    15     3     4    2
    16     4     5    1
    17     5     6    1
    18     6     7    2
    19     7     8    1
    20     8     9    2
    21     7    10    1
    22    10    11    1
    23    11    12    1
    24    12    13    1
    25    23    18    1
    26     9     1    1
    27    25    18    1
    28     9     4    1
    29    13     6    1
@<TRIPOS>MOLECULE
*****
 25 29 0 0 0
SMALL
GASTEIGER

@<TRIPOS>ATOM
      1 C          -7.1817  -18.6192   21.2909 C.2     1  UNL1        0.0959
      2 C          -8.5415  -18.9258   20.7367 C.2     1  UNL1        0.1049
      3 N          -9.5626  -18.3129   21.6486 N.2     1  UNL1       -0.2475
      4 C          -8.8340  -17.6275   22.7664 C.2     1  UNL1        0.0670
      5 C          -9.3203  -16.8555   23.9570 C.3     1  UNL1        0.1127
      6 C          -8.3351  -16.2728   24.9265 C.2     1  UNL1        0.1558
      7 C          -6.8637  -16.4621   24.7054 C.2     1  UNL1        0.1686
      8 C          -6.3774  -17.2342   23.5148 C.2     1  UNL1        0.0411
      9 C          -7.3625  -17.8168   22.5453 C.2     1  UNL1        0.0249
     10 O          -5.8785  -15.8795   25.6749 O.2     1  UNL1       -0.4687
     11 C          -6.3648  -15.1075   26.8655 C.3     1  UNL1        0.2526
     12 C          -7.8363  -14.9182   27.0866 C.3     1  UNL1        0.2521
     13 O          -8.8215  -15.5008   26.1171 O.2     1  UNL1       -0.4723
     14 O          -5.4245  -18.4672   19.3833 O.2     1  UNL1       -0.2448
     15 C          -5.8713  -19.0409   20.6953 C.2     1  UNL1        0.3428
     16 O          -5.0076  -20.0363   21.4116 O.3     1  UNL1       -0.4454
     17 C          -3.8341  -19.5670   22.2196 C.3     1  UNL1        0.2087
     18 C          -2.8535  -18.5996   21.6259 C.3     1  UNL1        0.0445
     19 C          -1.9471  -19.0377   20.5140 C.3     1  UNL1        0.0210
     20 C          -0.9665  -18.0702   19.9204 C.3     1  UNL1        0.0722
     21 N          -0.8924  -16.6645   20.4387 N.3     1  UNL1       -0.2727
     22 C          -1.7989  -16.2264   21.5506 C.3     1  UNL1        0.0722
     23 C          -2.7794  -17.1939   22.1442 C.3     1  UNL1        0.0210
     24 C          -1.4458  -17.1588   20.7955 C.3     1  UNL1        0.0722
     25 C          -2.3325  -18.0336   21.3323 C.3     1  UNL1        0.0210
@<TRIPOS>BOND
     1    14    15    2
     2    15    16    1
     3    16    17    1
     4    17    18    1
     5    18    19    1
     6    19    20    1
     7    20    21    1
     8    21    22    1
     9    22    23    1
    10    21    24    1
    11    24    25    1
    12    15     1    1
    13     1     2    2
    14     2     3    1
    15     3     4    2
    16     4     5    1
    17     5     6    1
    18     6     7    2
    19     7     8    1
    20     8     9    2
    21     7    10    1
    22    10    11    1
    23    11    12    1
    24    12    13    1
    25    23    18    1
    26     9     1    1
    27    25    18    1
    28     9     4    1
    29    13     6    1
