@<TRIPOS>MOLECULE
*****
 35 39 0 0 0
SMALL
GASTEIGER

@<TRIPOS>ATOM
      1 C         -16.3082   -1.0392   18.8564 C.ar    1  UNL1        0.1453
      2 C         -16.9930   -2.3410   18.5620 C.ar    1  UNL1        0.0375
      3 C         -16.1948   -3.6089   18.4901 C.ar    1  UNL1        0.0033
      4 C         -14.7117   -3.5751   18.7125 C.ar    1  UNL1        0.0046
      5 C         -13.9135   -4.8431   18.6406 C.ar    1  UNL1        0.0537
      6 C         -12.4305   -4.8093   18.8630 C.ar    1  UNL1        0.0045
      7 C         -11.7457   -3.5075   19.1573 C.ar    1  UNL1        0.0001
      8 C         -12.5439   -2.2396   19.2292 C.ar    1  UNL1        0.0001
      9 C         -14.0269   -2.2734   19.0068 C.ar    1  UNL1        0.0032
     10 C         -14.8252   -1.0054   19.0787 C.ar    1  UNL1        0.0375
     11 C         -14.5983   -6.1447   18.3463 C.2     1  UNL1        0.2495
     12 O         -14.9546   -6.5022   16.9338 O.2     1  UNL1       -0.2698
     13 N         -14.9268   -7.0889   19.4645 N.am    1  UNL1       -0.2792
     14 H         -14.6930   -6.8543   20.3916 H       1  UNL1        0.1552
     15 C         -15.6116   -8.3907   19.1703 C.ar    1  UNL1        0.0700
     16 C         -17.0340   -8.6030   19.5967 C.ar    1  UNL1        0.0179
     17 C         -17.7189   -9.9047   19.3024 C.ar    1  UNL1        0.0220
     18 C         -16.9813  -10.9940   18.5818 C.ar    1  UNL1        0.0990
     19 N         -15.5590  -10.7817   18.1554 N.ar    1  UNL1       -0.2410
     20 C         -14.8741   -9.4800   18.4497 C.ar    1  UNL1        0.1135
     21 O         -17.1064    0.2287   18.9283 O.3     1  UNL1       -0.4534
     22 C         -16.5351    3.8075   22.9427 C.ar    1  UNL1        0.1739
     23 C         -15.7924    4.3758   21.7700 C.ar    1  UNL1        0.0592
     24 C         -15.7495    3.6231   20.4731 C.ar    1  UNL1        0.0875
     25 N         -15.0068    4.1914   19.3004 N.ar    1  UNL1       -0.2435
     26 C         -14.9639    3.4388   18.0036 C.ar    1  UNL1        0.1020
     27 C         -15.6638    2.1179   17.8796 C.ar    1  UNL1        0.0581
     28 C         -16.4066    1.5496   19.0523 C.ar    1  UNL1        0.1483
     29 C         -16.4494    2.3022   20.3491 C.ar    1  UNL1        0.0554
     30 C         -17.1922    1.7340   21.5219 C.ar    1  UNL1        0.0446
     31 C         -17.2350    2.4866   22.8187 C.ar    1  UNL1        0.1726
     32 C         -15.3810    4.5654   25.1436 C.3     1  UNL1        0.2526
     33 O         -16.5780    4.5601   24.2396 O.3     1  UNL1       -0.4683
     34 O         -17.9778    1.9183   23.9915 O.3     1  UNL1       -0.4684
     35 C         -19.4410    2.2014   24.1612 C.3     1  UNL1        0.2526
@<TRIPOS>BOND
     1    32    33    1
     2    33    22    1
     3    22    23   ar
     4    23    24   ar
     5    24    25   ar
     6    25    26   ar
     7    26    27   ar
     8    27    28   ar
     9    28    21    1
    10    21     1    1
    11     1     2   ar
    12     2     3   ar
    13     3     4   ar
    14     4     5   ar
    15     5    11    1
    16    11    12    2
    17    11    13   am
    18    13    15    1
    19    15    16   ar
    20    16    17   ar
    21    17    18   ar
    22    18    19   ar
    23    19    20   ar
    24     5     6   ar
    25     6     7   ar
    26     7     8   ar
    27     8     9   ar
    28     9    10   ar
    29    28    29   ar
    30    29    30   ar
    31    30    31   ar
    32    31    34    1
    33    34    35    1
    34    31    22   ar
    35    29    24   ar
    36    10     1   ar
    37     9     4   ar
    38    20    15   ar
    39    13    14    1
@<TRIPOS>MOLECULE
*****
 35 39 0 0 0
SMALL
GASTEIGER

@<TRIPOS>ATOM
      1 C           4.7903   -3.2645   22.3167 C.ar    1  UNL1        0.1453
      2 C           3.9288   -2.2810   23.0520 C.ar    1  UNL1        0.0375
      3 C           4.2837   -1.8720   24.4509 C.ar    1  UNL1        0.0033
      4 C           5.5000   -2.4465   25.1145 C.ar    1  UNL1        0.0046
      5 C           5.8549   -2.0375   26.5134 C.ar    1  UNL1        0.0537
      6 C           7.0713   -2.6120   27.1770 C.ar    1  UNL1        0.0045
      7 C           7.9328   -3.5955   26.4417 C.ar    1  UNL1        0.0001
      8 C           7.5779   -4.0045   25.0429 C.ar    1  UNL1        0.0001
      9 C           6.3615   -3.4300   24.3793 C.ar    1  UNL1        0.0032
     10 C           6.0067   -3.8390   22.9804 C.ar    1  UNL1        0.0375
     11 C           4.9934   -1.0540   27.2486 C.2     1  UNL1        0.2495
     12 O           5.4964    0.3346   27.5107 O.2     1  UNL1       -0.2698
     13 N           3.6289   -1.4592   27.7217 N.am    1  UNL1       -0.2792
     14 H           3.2987   -2.3706   27.5496 H       1  UNL1        0.1552
     15 C           2.7673   -0.4757   28.4569 C.ar    1  UNL1        0.0700
     16 C           2.0306    0.5891   27.6995 C.ar    1  UNL1        0.0179
     17 C           1.1691    1.5725   28.4347 C.ar    1  UNL1        0.0220
     18 C           1.0442    1.4912   29.9273 C.ar    1  UNL1        0.0990
     19 N           1.7809    0.4265   30.6846 N.ar    1  UNL1       -0.2410
     20 C           2.6424   -0.5570   29.9495 C.ar    1  UNL1        0.1135
     21 O           4.4354   -3.6735   20.9179 O.3     1  UNL1       -0.4534
     22 C           2.0441    0.5424   18.5184 C.ar    1  UNL1        0.1739
     23 C           3.3285    0.3157   17.7777 C.ar    1  UNL1        0.0592
     24 C           4.2476   -0.7949   18.1924 C.ar    1  UNL1        0.0875
     25 N           5.5320   -1.0216   17.4517 N.ar    1  UNL1       -0.2435
     26 C           6.4510   -2.1322   17.8664 C.ar    1  UNL1        0.1020
     27 C           6.0854   -3.0162   19.0218 C.ar    1  UNL1        0.0581
     28 C           4.8010   -2.7895   19.7625 C.ar    1  UNL1        0.1483
     29 C           3.8820   -1.6789   19.3478 C.ar    1  UNL1        0.0554
     30 C           2.5975   -1.4522   20.0885 C.ar    1  UNL1        0.0446
     31 C           1.6785   -0.3416   19.6738 C.ar    1  UNL1        0.1726
     32 C           1.4238    3.0654   18.5113 C.3     1  UNL1        0.2526
     33 O           1.1250    1.6531   18.1037 O.3     1  UNL1       -0.4683
     34 O           0.3940   -0.1149   20.4145 O.3     1  UNL1       -0.4684
     35 C           0.3029    0.9741   21.4421 C.3     1  UNL1        0.2526
@<TRIPOS>BOND
     1    32    33    1
     2    33    22    1
     3    22    23   ar
     4    23    24   ar
     5    24    25   ar
     6    25    26   ar
     7    26    27   ar
     8    27    28   ar
     9    28    21    1
    10    21     1    1
    11     1     2   ar
    12     2     3   ar
    13     3     4   ar
    14     4     5   ar
    15     5    11    1
    16    11    12    2
    17    11    13   am
    18    13    15    1
    19    15    16   ar
    20    16    17   ar
    21    17    18   ar
    22    18    19   ar
    23    19    20   ar
    24     5     6   ar
    25     6     7   ar
    26     7     8   ar
    27     8     9   ar
    28     9    10   ar
    29    28    29   ar
    30    29    30   ar
    31    30    31   ar
    32    31    34    1
    33    34    35    1
    34    31    22   ar
    35    29    24   ar
    36    10     1   ar
    37     9     4   ar
    38    20    15   ar
    39    13    14    1
@<TRIPOS>MOLECULE
*****
 35 39 0 0 0
SMALL
GASTEIGER

@<TRIPOS>ATOM
      1 C           7.0923   -2.9039   22.7623 C.ar    1  UNL1        0.1453
      2 C           6.5677   -2.5564   24.1240 C.ar    1  UNL1        0.0375
      3 C           6.6631   -3.5527   25.2412 C.ar    1  UNL1        0.0033
      4 C           7.2831   -4.8965   24.9968 C.ar    1  UNL1        0.0046
      5 C           7.3785   -5.8928   26.1142 C.ar    1  UNL1        0.0537
      6 C           7.9985   -7.2366   25.8698 C.ar    1  UNL1        0.0045
      7 C           8.5232   -7.5841   24.5082 C.ar    1  UNL1        0.0001
      8 C           8.4278   -6.5878   23.3909 C.ar    1  UNL1        0.0001
      9 C           7.8078   -5.2440   23.6353 C.ar    1  UNL1        0.0032
     10 C           7.7124   -4.2477   22.5180 C.ar    1  UNL1        0.0375
     11 C           6.8538   -5.5453   27.4757 C.2     1  UNL1        0.2495
     12 O           5.4440   -5.8967   27.8484 O.2     1  UNL1       -0.2698
     13 N           7.7390   -4.8464   28.4646 N.am    1  UNL1       -0.2792
     14 H           8.6643   -4.6158   28.2200 H       1  UNL1        0.1552
     15 C           7.2144   -4.4988   29.8263 C.ar    1  UNL1        0.0700
     16 C           6.7573   -3.1006   30.1195 C.ar    1  UNL1        0.0179
     17 C           6.2327   -2.7530   31.4810 C.ar    1  UNL1        0.0220
     18 C           6.1651   -3.8036   32.5494 C.ar    1  UNL1        0.0990
     19 N           6.6222   -5.2019   32.2562 N.ar    1  UNL1       -0.2410
     20 C           7.1468   -5.5495   30.8946 C.ar    1  UNL1        0.1135
     21 O           6.9969   -1.9076   21.6451 O.3     1  UNL1       -0.4534
     22 C           1.8813   -0.2635   21.0311 C.ar    1  UNL1        0.1739
     23 C           2.2165   -1.0492   19.7982 C.ar    1  UNL1        0.0592
     24 C           3.5793   -1.6567   19.6434 C.ar    1  UNL1        0.0875
     25 N           3.9146   -2.4424   18.4104 N.ar    1  UNL1       -0.2435
     26 C           5.2773   -3.0498   18.2557 C.ar    1  UNL1        0.1020
     27 C           6.3048   -2.8715   19.3339 C.ar    1  UNL1        0.0581
     28 C           5.9695   -2.0858   20.5669 C.ar    1  UNL1        0.1483
     29 C           4.6068   -1.4784   20.7216 C.ar    1  UNL1        0.0554
     30 C           4.2714   -0.6927   21.9546 C.ar    1  UNL1        0.0446
     31 C           2.9087   -0.0852   22.1093 C.ar    1  UNL1        0.1726
     32 C           0.2175    1.6778   20.5692 C.3     1  UNL1        0.2526
     33 O           0.5185    0.3439   21.1859 O.3     1  UNL1       -0.4683
     34 O           2.5734    0.7005   23.3423 O.3     1  UNL1       -0.4684
     35 C           2.7475    0.0806   24.6971 C.3     1  UNL1        0.2526
@<TRIPOS>BOND
     1    32    33    1
     2    33    22    1
     3    22    23   ar
     4    23    24   ar
     5    24    25   ar
     6    25    26   ar
     7    26    27   ar
     8    27    28   ar
     9    28    21    1
    10    21     1    1
    11     1     2   ar
    12     2     3   ar
    13     3     4   ar
    14     4     5   ar
    15     5    11    1
    16    11    12    2
    17    11    13   am
    18    13    15    1
    19    15    16   ar
    20    16    17   ar
    21    17    18   ar
    22    18    19   ar
    23    19    20   ar
    24     5     6   ar
    25     6     7   ar
    26     7     8   ar
    27     8     9   ar
    28     9    10   ar
    29    28    29   ar
    30    29    30   ar
    31    30    31   ar
    32    31    34    1
    33    34    35    1
    34    31    22   ar
    35    29    24   ar
    36    10     1   ar
    37     9     4   ar
    38    20    15   ar
    39    13    14    1
@<TRIPOS>MOLECULE
*****
 35 39 0 0 0
SMALL
GASTEIGER

@<TRIPOS>ATOM
      1 C           2.5007    0.6477   24.7637 C.ar    1  UNL1        0.1453
      2 C           3.4926   -0.4568   24.9791 C.ar    1  UNL1        0.0375
      3 C           3.8740   -1.3550   23.8400 C.ar    1  UNL1        0.0033
      4 C           3.2636   -1.1489   22.4854 C.ar    1  UNL1        0.0046
      5 C           3.6450   -2.0472   21.3463 C.ar    1  UNL1        0.0537
      6 C           3.0346   -1.8411   19.9917 C.ar    1  UNL1        0.0045
      7 C           2.0426   -0.7366   19.7763 C.ar    1  UNL1        0.0001
      8 C           1.6612    0.1616   20.9154 C.ar    1  UNL1        0.0001
      9 C           2.2717   -0.0445   22.2700 C.ar    1  UNL1        0.0032
     10 C           1.8902    0.8538   23.4091 C.ar    1  UNL1        0.0375
     11 C           4.6369   -3.1516   21.5618 C.2     1  UNL1        0.2495
     12 O           4.2077   -4.5824   21.4251 O.2     1  UNL1       -0.2698
     13 N           6.0580   -2.8252   21.9138 N.am    1  UNL1       -0.2792
     14 H           6.3396   -1.8862   22.0035 H       1  UNL1        0.1552
     15 C           7.0499   -3.9297   22.1293 C.ar    1  UNL1        0.0700
     16 C           7.1659   -4.5815   23.4753 C.ar    1  UNL1        0.0179
     17 C           8.1578   -5.6859   23.6908 C.ar    1  UNL1        0.0220
     18 C           9.0337   -6.1384   22.5603 C.ar    1  UNL1        0.0990
     19 N           8.9177   -5.4865   21.2144 N.ar    1  UNL1       -0.2410
     20 C           7.9258   -4.3822   20.9989 C.ar    1  UNL1        0.1135
     21 O           2.1193    1.5460   25.9028 O.3     1  UNL1       -0.4534
     22 C           3.9696   -0.3732   30.6084 C.ar    1  UNL1        0.1739
     23 C           2.4760   -0.4986   30.6665 C.ar    1  UNL1        0.0592
     24 C           1.6399   -0.0501   29.5045 C.ar    1  UNL1        0.0875
     25 N           0.1463   -0.1755   29.5625 N.ar    1  UNL1       -0.2435
     26 C          -0.6896    0.2729   28.4006 C.ar    1  UNL1        0.1020
     27 C          -0.0319    0.8468   27.1807 C.ar    1  UNL1        0.0581
     28 C           1.4617    0.9721   27.1227 C.ar    1  UNL1        0.1483
     29 C           2.2976    0.5237   28.2846 C.ar    1  UNL1        0.0554
     30 C           3.7913    0.6491   28.2266 C.ar    1  UNL1        0.0446
     31 C           4.6272    0.2006   29.3885 C.ar    1  UNL1        0.1726
     32 C           5.4211   -2.1895   31.7677 C.3     1  UNL1        0.2526
     33 O           4.8056   -0.8217   31.7704 O.3     1  UNL1       -0.4683
     34 O           6.1209    0.3260   29.3305 O.3     1  UNL1       -0.4684
     35 C           6.9329   -0.7087   28.6094 C.3     1  UNL1        0.2526
@<TRIPOS>BOND
     1    32    33    1
     2    33    22    1
     3    22    23   ar
     4    23    24   ar
     5    24    25   ar
     6    25    26   ar
     7    26    27   ar
     8    27    28   ar
     9    28    21    1
    10    21     1    1
    11     1     2   ar
    12     2     3   ar
    13     3     4   ar
    14     4     5   ar
    15     5    11    1
    16    11    12    2
    17    11    13   am
    18    13    15    1
    19    15    16   ar
    20    16    17   ar
    21    17    18   ar
    22    18    19   ar
    23    19    20   ar
    24     5     6   ar
    25     6     7   ar
    26     7     8   ar
    27     8     9   ar
    28     9    10   ar
    29    28    29   ar
    30    29    30   ar
    31    30    31   ar
    32    31    34    1
    33    34    35    1
    34    31    22   ar
    35    29    24   ar
    36    10     1   ar
    37     9     4   ar
    38    20    15   ar
    39    13    14    1
@<TRIPOS>MOLECULE
*****
 35 39 0 0 0
SMALL
GASTEIGER

@<TRIPOS>ATOM
      1 C           2.2860   -0.9080   20.7889 C.ar    1  UNL1        0.1453
      2 C           2.8503   -1.0928   22.1664 C.ar    1  UNL1        0.0375
      3 C           2.3907   -0.2114   23.2897 C.ar    1  UNL1        0.0033
      4 C           1.3668    0.8549   23.0355 C.ar    1  UNL1        0.0046
      5 C           0.9073    1.7364   24.1589 C.ar    1  UNL1        0.0537
      6 C          -0.1166    2.8027   23.9047 C.ar    1  UNL1        0.0045
      7 C          -0.6809    2.9876   22.5272 C.ar    1  UNL1        0.0001
      8 C          -0.2213    2.1062   21.4040 C.ar    1  UNL1        0.0001
      9 C           0.8026    1.0398   21.6581 C.ar    1  UNL1        0.0032
     10 C           1.2622    0.1584   20.5347 C.ar    1  UNL1        0.0375
     11 C           1.4715    1.5515   25.5363 C.2     1  UNL1        0.2495
     12 O           2.7310    2.2633   25.9326 O.2     1  UNL1       -0.2698
     13 N           0.7763    0.6548   26.5174 N.am    1  UNL1       -0.2792
     14 H          -0.0503    0.1876   26.2573 H       1  UNL1        0.1552
     15 C           1.3406    0.4699   27.8949 C.ar    1  UNL1        0.0700
     16 C           2.5591   -0.3810   28.0983 C.ar    1  UNL1        0.0179
     17 C           3.1234   -0.5660   29.4757 C.ar    1  UNL1        0.0220
     18 C           2.4692    0.0999   30.6498 C.ar    1  UNL1        0.0990
     19 N           1.2508    0.9508   30.4464 N.ar    1  UNL1       -0.2410
     20 C           0.6865    1.1358   29.0690 C.ar    1  UNL1        0.1135
     21 O           2.7456   -1.7894   19.6656 O.3     1  UNL1       -0.4534
     22 C           7.9585   -3.1246   20.2074 C.ar    1  UNL1        0.1739
     23 C           7.8824   -2.2217   19.0120 C.ar    1  UNL1        0.0592
     24 C           6.5601   -1.6622   18.5777 C.ar    1  UNL1        0.0875
     25 N           6.4840   -0.7593   17.3823 N.ar    1  UNL1       -0.2435
     26 C           5.1618   -0.1998   16.9480 C.ar    1  UNL1        0.1020
     27 C           3.9157   -0.5432   17.7091 C.ar    1  UNL1        0.0581
     28 C           3.9918   -1.4460   18.9045 C.ar    1  UNL1        0.1483
     29 C           5.3140   -2.0055   19.3388 C.ar    1  UNL1        0.0554
     30 C           5.3901   -2.9085   20.5342 C.ar    1  UNL1        0.0446
     31 C           6.7123   -3.4680   20.9685 C.ar    1  UNL1        0.1726
     32 C           9.5359   -5.1597   20.5540 C.3     1  UNL1        0.2526
     33 O           9.2807   -3.6842   20.6417 O.3     1  UNL1       -0.4683
     34 O           6.7885   -4.3709   22.1639 O.3     1  UNL1       -0.4684
     35 C           6.4818   -3.8336   23.5304 C.3     1  UNL1        0.2526
@<TRIPOS>BOND
     1    32    33    1
     2    33    22    1
     3    22    23   ar
     4    23    24   ar
     5    24    25   ar
     6    25    26   ar
     7    26    27   ar
     8    27    28   ar
     9    28    21    1
    10    21     1    1
    11     1     2   ar
    12     2     3   ar
    13     3     4   ar
    14     4     5   ar
    15     5    11    1
    16    11    12    2
    17    11    13   am
    18    13    15    1
    19    15    16   ar
    20    16    17   ar
    21    17    18   ar
    22    18    19   ar
    23    19    20   ar
    24     5     6   ar
    25     6     7   ar
    26     7     8   ar
    27     8     9   ar
    28     9    10   ar
    29    28    29   ar
    30    29    30   ar
    31    30    31   ar
    32    31    34    1
    33    34    35    1
    34    31    22   ar
    35    29    24   ar
    36    10     1   ar
    37     9     4   ar
    38    20    15   ar
    39    13    14    1
@<TRIPOS>MOLECULE
*****
 35 39 0 0 0
SMALL
GASTEIGER

@<TRIPOS>ATOM
      1 C           4.0354   -1.4074   25.0206 C.ar    1  UNL1        0.1453
      2 C           3.0694   -0.3152   24.6685 C.ar    1  UNL1        0.0375
      3 C           2.5783   -0.1742   23.2582 C.ar    1  UNL1        0.0033
      4 C           3.0532   -1.1253   22.2000 C.ar    1  UNL1        0.0046
      5 C           2.5621   -0.9842   20.7897 C.ar    1  UNL1        0.0537
      6 C           3.0370   -1.9353   19.7315 C.ar    1  UNL1        0.0045
      7 C           4.0031   -3.0275   20.0836 C.ar    1  UNL1        0.0001
      8 C           4.4942   -3.1685   21.4938 C.ar    1  UNL1        0.0001
      9 C           4.0192   -2.2174   22.5521 C.ar    1  UNL1        0.0032
     10 C           4.5104   -2.3585   23.9624 C.ar    1  UNL1        0.0375
     11 C           1.5961    0.1079   20.4376 C.2     1  UNL1        0.2495
     12 O           0.1251   -0.0944   20.6506 O.2     1  UNL1       -0.2698
     13 N           2.1010    1.4024   19.8726 N.am    1  UNL1       -0.2792
     14 H           3.0664    1.5352   19.7328 H       1  UNL1        0.1552
     15 C           1.1350    2.4946   19.5205 C.ar    1  UNL1        0.0700
     16 C           0.4322    2.4759   18.1955 C.ar    1  UNL1        0.0179
     17 C          -0.5338    3.5681   17.8433 C.ar    1  UNL1        0.0220
     18 C          -0.7970    4.6789   18.8163 C.ar    1  UNL1        0.0990
     19 N          -0.0942    4.6976   20.1413 N.ar    1  UNL1       -0.2410
     20 C           0.8717    3.6055   20.4935 C.ar    1  UNL1        0.1135
     21 O           4.5265   -1.5485   26.4309 O.3     1  UNL1       -0.4534
     22 C           1.7585    1.3402   30.0700 C.ar    1  UNL1        0.1739
     23 C           3.0956    2.0073   29.9393 C.ar    1  UNL1        0.0592
     24 C           4.1219    1.4519   28.9968 C.ar    1  UNL1        0.0875
     25 N           5.4590    2.1190   28.8661 N.ar    1  UNL1       -0.2435
     26 C           6.4853    1.5636   27.9236 C.ar    1  UNL1        0.1020
     27 C           6.1744    0.3411   27.1119 C.ar    1  UNL1        0.0581
     28 C           4.8373   -0.3260   27.2426 C.ar    1  UNL1        0.1483
     29 C           3.8111    0.2294   28.1851 C.ar    1  UNL1        0.0554
     30 C           2.4739   -0.4376   28.3158 C.ar    1  UNL1        0.0446
     31 C           1.4477    0.1178   29.2583 C.ar    1  UNL1        0.1726
     32 C           1.1563    2.4568   32.3374 C.3     1  UNL1        0.2526
     33 O           0.7322    1.8957   31.0125 O.3     1  UNL1       -0.4683
     34 O           0.1105   -0.5493   29.3891 O.3     1  UNL1       -0.4684
     35 C          -1.0710   -0.0153   28.6348 C.3     1  UNL1        0.2526
@<TRIPOS>BOND
     1    32    33    1
     2    33    22    1
     3    22    23   ar
     4    23    24   ar
     5    24    25   ar
     6    25    26   ar
     7    26    27   ar
     8    27    28   ar
     9    28    21    1
    10    21     1    1
    11     1     2   ar
    12     2     3   ar
    13     3     4   ar
    14     4     5   ar
    15     5    11    1
    16    11    12    2
    17    11    13   am
    18    13    15    1
    19    15    16   ar
    20    16    17   ar
    21    17    18   ar
    22    18    19   ar
    23    19    20   ar
    24     5     6   ar
    25     6     7   ar
    26     7     8   ar
    27     8     9   ar
    28     9    10   ar
    29    28    29   ar
    30    29    30   ar
    31    30    31   ar
    32    31    34    1
    33    34    35    1
    34    31    22   ar
    35    29    24   ar
    36    10     1   ar
    37     9     4   ar
    38    20    15   ar
    39    13    14    1
@<TRIPOS>MOLECULE
*****
 35 39 0 0 0
SMALL
GASTEIGER

@<TRIPOS>ATOM
      1 C           3.5659   -1.6936   22.3113 C.ar    1  UNL1        0.1453
      2 C           4.4586   -2.8818   22.5152 C.ar    1  UNL1        0.0375
      3 C           5.1738   -3.0673   23.8206 C.ar    1  UNL1        0.0033
      4 C           4.9964   -2.0646   24.9220 C.ar    1  UNL1        0.0046
      5 C           5.7118   -2.2501   26.2274 C.ar    1  UNL1        0.0537
      6 C           5.5344   -1.2475   27.3289 C.ar    1  UNL1        0.0045
      7 C           4.6417   -0.0593   27.1250 C.ar    1  UNL1        0.0001
      8 C           3.9265    0.1262   25.8196 C.ar    1  UNL1        0.0001
      9 C           4.1038   -0.8765   24.7182 C.ar    1  UNL1        0.0032
     10 C           3.3885   -0.6910   23.4128 C.ar    1  UNL1        0.0375
     11 C           6.6044   -3.4382   26.4313 C.2     1  UNL1        0.2495
     12 O           8.0307   -3.3927   25.9694 O.2     1  UNL1       -0.2698
     13 N           6.0706   -4.6718   27.0971 N.am    1  UNL1       -0.2792
     14 H           5.1344   -4.7016   27.4003 H       1  UNL1        0.1552
     15 C           6.9632   -5.8600   27.3010 C.ar    1  UNL1        0.0700
     16 C           7.0761   -6.9055   26.2314 C.ar    1  UNL1        0.0179
     17 C           7.9687   -8.0937   26.4352 C.ar    1  UNL1        0.0220
     18 C           8.7483   -8.2363   27.7087 C.ar    1  UNL1        0.0990
     19 N           8.6354   -7.1907   28.7783 N.ar    1  UNL1       -0.2410
     20 C           7.7428   -6.0026   28.5745 C.ar    1  UNL1        0.1135
     21 O           2.8506   -1.5082   21.0059 O.3     1  UNL1       -0.4534
     22 C           6.1344    0.5485   17.2328 C.ar    1  UNL1        0.1739
     23 C           5.1317    1.6207   17.5408 C.ar    1  UNL1        0.0592
     24 C           4.0600    1.3746   18.5611 C.ar    1  UNL1        0.0875
     25 N           3.0572    2.4467   18.8691 N.ar    1  UNL1       -0.2435
     26 C           1.9856    2.2006   19.8894 C.ar    1  UNL1        0.1020
     27 C           1.9168    0.8823   20.6017 C.ar    1  UNL1        0.0581
     28 C           2.9195   -0.1899   20.2937 C.ar    1  UNL1        0.1483
     29 C           3.9911    0.0563   19.2734 C.ar    1  UNL1        0.0554
     30 C           4.9939   -1.0159   18.9653 C.ar    1  UNL1        0.0446
     31 C           6.0655   -0.7698   17.9450 C.ar    1  UNL1        0.1726
     32 C           8.2224    1.8746   16.4378 C.3     1  UNL1        0.2526
     33 O           7.2061    0.7946   16.2124 O.3     1  UNL1       -0.4683
     34 O           7.0684   -1.8420   17.6370 O.3     1  UNL1       -0.4684
     35 C           8.0155   -2.3112   18.7013 C.3     1  UNL1        0.2526
@<TRIPOS>BOND
     1    32    33    1
     2    33    22    1
     3    22    23   ar
     4    23    24   ar
     5    24    25   ar
     6    25    26   ar
     7    26    27   ar
     8    27    28   ar
     9    28    21    1
    10    21     1    1
    11     1     2   ar
    12     2     3   ar
    13     3     4   ar
    14     4     5   ar
    15     5    11    1
    16    11    12    2
    17    11    13   am
    18    13    15    1
    19    15    16   ar
    20    16    17   ar
    21    17    18   ar
    22    18    19   ar
    23    19    20   ar
    24     5     6   ar
    25     6     7   ar
    26     7     8   ar
    27     8     9   ar
    28     9    10   ar
    29    28    29   ar
    30    29    30   ar
    31    30    31   ar
    32    31    34    1
    33    34    35    1
    34    31    22   ar
    35    29    24   ar
    36    10     1   ar
    37     9     4   ar
    38    20    15   ar
    39    13    14    1
@<TRIPOS>MOLECULE
*****
 35 39 0 0 0
SMALL
GASTEIGER

@<TRIPOS>ATOM
      1 C           0.6873    1.7196   20.7595 C.ar    1  UNL1        0.1453
      2 C           1.5464    1.2577   21.8991 C.ar    1  UNL1        0.0375
      3 C           1.1666    1.5966   23.3101 C.ar    1  UNL1        0.0033
      4 C          -0.0723    2.3976   23.5815 C.ar    1  UNL1        0.0046
      5 C          -0.4520    2.7365   24.9925 C.ar    1  UNL1        0.0537
      6 C          -1.6909    3.5374   25.2640 C.ar    1  UNL1        0.0045
      7 C          -2.5500    3.9994   24.1244 C.ar    1  UNL1        0.0001
      8 C          -2.1703    3.6604   22.7135 C.ar    1  UNL1        0.0001
      9 C          -0.9314    2.8595   22.4420 C.ar    1  UNL1        0.0032
     10 C          -0.5516    2.5205   21.0310 C.ar    1  UNL1        0.0375
     11 C           0.4070    2.2746   26.1320 C.2     1  UNL1        0.2495
     12 O           1.5357    3.1352   26.6173 O.2     1  UNL1       -0.2698
     13 N           0.1375    0.9520   26.7863 N.am    1  UNL1       -0.2792
     14 H          -0.6033    0.3872   26.4678 H       1  UNL1        0.1552
     15 C           0.9966    0.4900   27.9259 C.ar    1  UNL1        0.0700
     16 C           2.2827   -0.2313   27.6510 C.ar    1  UNL1        0.0179
     17 C           3.1418   -0.6934   28.7905 C.ar    1  UNL1        0.0220
     18 C           2.7148   -0.4341   30.2048 C.ar    1  UNL1        0.0990
     19 N           1.4286    0.2873   30.4797 N.ar    1  UNL1       -0.2410
     20 C           0.5695    0.7493   29.3402 C.ar    1  UNL1        0.1135
     21 O           1.0671    1.3806   19.3486 O.3     1  UNL1       -0.4534
     22 C           5.6568   -1.0567   17.8507 C.ar    1  UNL1        0.1739
     23 C           5.8614    0.4075   17.5972 C.ar    1  UNL1        0.0592
     24 C           4.7651    1.3829   17.9082 C.ar    1  UNL1        0.0875
     25 N           4.9697    2.8471   17.6547 N.ar    1  UNL1       -0.2435
     26 C           3.8734    3.8224   17.9658 C.ar    1  UNL1        0.1020
     27 C           2.5725    3.3336   18.5304 C.ar    1  UNL1        0.0581
     28 C           2.3679    1.8695   18.7840 C.ar    1  UNL1        0.1483
     29 C           3.4642    0.8941   18.4729 C.ar    1  UNL1        0.0554
     30 C           3.2596   -0.5701   18.7264 C.ar    1  UNL1        0.0446
     31 C           4.3559   -1.5455   18.4153 C.ar    1  UNL1        0.1726
     32 C           7.7791   -2.3648   18.5820 C.3     1  UNL1        0.2526
     33 O           6.7531   -2.0321   17.5396 O.3     1  UNL1       -0.4683
     34 O           4.1514   -3.0097   18.6688 O.3     1  UNL1       -0.4684
     35 C           4.4323   -3.5822   20.0265 C.3     1  UNL1        0.2526
@<TRIPOS>BOND
     1    32    33    1
     2    33    22    1
     3    22    23   ar
     4    23    24   ar
     5    24    25   ar
     6    25    26   ar
     7    26    27   ar
     8    27    28   ar
     9    28    21    1
    10    21     1    1
    11     1     2   ar
    12     2     3   ar
    13     3     4   ar
    14     4     5   ar
    15     5    11    1
    16    11    12    2
    17    11    13   am
    18    13    15    1
    19    15    16   ar
    20    16    17   ar
    21    17    18   ar
    22    18    19   ar
    23    19    20   ar
    24     5     6   ar
    25     6     7   ar
    26     7     8   ar
    27     8     9   ar
    28     9    10   ar
    29    28    29   ar
    30    29    30   ar
    31    30    31   ar
    32    31    34    1
    33    34    35    1
    34    31    22   ar
    35    29    24   ar
    36    10     1   ar
    37     9     4   ar
    38    20    15   ar
    39    13    14    1
@<TRIPOS>MOLECULE
*****
 35 39 0 0 0
SMALL
GASTEIGER

@<TRIPOS>ATOM
      1 C           1.7947   -0.6460   20.4299 C.ar    1  UNL1        0.1453
      2 C           0.7792    0.1527   19.6677 C.ar    1  UNL1        0.0375
      3 C           0.0809    1.3041   20.3285 C.ar    1  UNL1        0.0033
      4 C           0.3981    1.6568   21.7516 C.ar    1  UNL1        0.0046
      5 C          -0.3003    2.8082   22.4124 C.ar    1  UNL1        0.0537
      6 C           0.0169    3.1609   23.8354 C.ar    1  UNL1        0.0045
      7 C           1.0323    2.3622   24.5977 C.ar    1  UNL1        0.0001
      8 C           1.7306    1.2108   23.9368 C.ar    1  UNL1        0.0001
      9 C           1.4135    0.8581   22.5138 C.ar    1  UNL1        0.0032
     10 C           2.1118   -0.2933   21.8530 C.ar    1  UNL1        0.0375
     11 C          -1.3157    3.6069   21.6502 C.2     1  UNL1        0.2495
     12 O          -0.8967    4.8436   20.9119 O.2     1  UNL1       -0.2698
     13 N          -2.7501    3.1689   21.6263 N.am    1  UNL1       -0.2792
     14 H          -3.0250    2.3572   22.1108 H       1  UNL1        0.1552
     15 C          -3.7656    3.9676   20.8640 C.ar    1  UNL1        0.0700
     16 C          -4.1354    3.5711   19.4654 C.ar    1  UNL1        0.0179
     17 C          -5.1509    4.3697   18.7032 C.ar    1  UNL1        0.0220
     18 C          -5.7964    5.5648   19.3395 C.ar    1  UNL1        0.0990
     19 N          -5.4266    5.9612   20.7381 N.ar    1  UNL1       -0.2410
     20 C          -4.4112    5.1626   21.5003 C.ar    1  UNL1        0.1135
     21 O           2.4930   -1.7974   19.7691 O.3     1  UNL1       -0.4534
     22 C           7.6223   -3.3671   20.4592 C.ar    1  UNL1        0.1739
     23 C           7.6061   -2.5352   19.2111 C.ar    1  UNL1        0.0592
     24 C           6.3197   -1.9348   18.7265 C.ar    1  UNL1        0.0875
     25 N           6.3036   -1.1029   17.4785 N.ar    1  UNL1       -0.2435
     26 C           5.0172   -0.5025   16.9940 C.ar    1  UNL1        0.1020
     27 C           3.7470   -0.7340   17.7575 C.ar    1  UNL1        0.0581
     28 C           3.7632   -1.5659   19.0056 C.ar    1  UNL1        0.1483
     29 C           5.0495   -2.1663   19.4901 C.ar    1  UNL1        0.0554
     30 C           5.0657   -2.9982   20.7382 C.ar    1  UNL1        0.0446
     31 C           6.3520   -3.5986   21.2227 C.ar    1  UNL1        0.1726
     32 C           9.1231   -5.4497   20.8594 C.3     1  UNL1        0.2526
     33 O           8.9086   -3.9675   20.9437 O.3     1  UNL1       -0.4683
     34 O           6.3682   -4.4305   22.4708 O.3     1  UNL1       -0.4684
     35 C           6.2230   -3.7740   23.8117 C.3     1  UNL1        0.2526
@<TRIPOS>BOND
     1    32    33    1
     2    33    22    1
     3    22    23   ar
     4    23    24   ar
     5    24    25   ar
     6    25    26   ar
     7    26    27   ar
     8    27    28   ar
     9    28    21    1
    10    21     1    1
    11     1     2   ar
    12     2     3   ar
    13     3     4   ar
    14     4     5   ar
    15     5    11    1
    16    11    12    2
    17    11    13   am
    18    13    15    1
    19    15    16   ar
    20    16    17   ar
    21    17    18   ar
    22    18    19   ar
    23    19    20   ar
    24     5     6   ar
    25     6     7   ar
    26     7     8   ar
    27     8     9   ar
    28     9    10   ar
    29    28    29   ar
    30    29    30   ar
    31    30    31   ar
    32    31    34    1
    33    34    35    1
    34    31    22   ar
    35    29    24   ar
    36    10     1   ar
    37     9     4   ar
    38    20    15   ar
    39    13    14    1
