@<TRIPOS>MOLECULE
*****
 30 34 0 0 0
SMALL
GASTEIGER

@<TRIPOS>ATOM
      1 N          -7.4373  -19.8094   19.9314 N.pl3   1  UNL1       -0.2928
      2 H          -7.5211  -20.2615   19.0608 H       1  UNL1        0.1541
      3 C          -6.0843  -19.4139   20.4440 C.ar    1  UNL1        0.1629
      4 N          -5.8113  -18.5838   21.6632 N.ar    1  UNL1       -0.2284
      5 C          -4.3249  -18.4359   21.8001 C.ar    1  UNL1        0.0666
      6 C          -3.6792  -19.1746   20.6655 C.ar    1  UNL1        0.0237
      7 S          -4.7665  -19.7791   19.8274 S.2     1  UNL1       -0.0561
      8 C          -2.1845  -19.2015   20.5421 C.3     1  UNL1        0.0343
      9 C          -1.3356  -18.4896   21.5533 C.3     1  UNL1        0.0060
     10 C          -1.9814  -17.7509   22.6879 C.3     1  UNL1        0.0107
     11 C          -3.4761  -17.7241   22.8113 C.3     1  UNL1        0.0627
     12 C          -4.1218  -16.9853   23.9459 C.ar    1  UNL1       -0.0169
     13 C          -3.8998  -17.4380   25.3586 C.ar    1  UNL1       -0.0039
     14 C          -4.5455  -16.6993   26.4932 C.ar    1  UNL1       -0.0003
     15 C          -5.4133  -15.5079   26.2151 C.ar    1  UNL1       -0.0000
     16 C          -5.6354  -15.0552   24.8024 C.ar    1  UNL1       -0.0003
     17 C          -4.9896  -15.7939   23.6678 C.ar    1  UNL1       -0.0039
     18 C         -11.1137  -18.9296   22.3727 C.ar    1  UNL1        0.0616
     19 C         -11.0714  -18.5580   20.9201 C.ar    1  UNL1        0.0185
     20 C          -9.8459  -18.8512   20.1063 C.ar    1  UNL1        0.0161
     21 C          -8.6628  -19.5161   20.7451 C.ar    1  UNL1        0.0495
     22 C          -8.7051  -19.8878   22.1978 C.ar    1  UNL1        0.0118
     23 C          -9.9306  -19.5945   23.0115 C.ar    1  UNL1       -0.0045
     24 C          -9.9730  -19.9661   24.4642 C.3     1  UNL1        0.0326
     25 C         -14.4537  -18.4809   26.4377 C.3     1  UNL1        0.0538
     26 C         -13.8744  -18.4301   25.0550 C.ar    1  UNL1        0.0786
     27 C         -12.4922  -18.8604   24.6618 C.ar    1  UNL1        0.0962
     28 N         -12.3392  -18.6363   23.1865 N.ar    1  UNL1       -0.2871
     29 C         -13.6267  -18.0676   22.6680 C.ar    1  UNL1        0.1825
     30 N         -14.5755  -17.9401   23.8227 N.ar    1  UNL1       -0.2280
@<TRIPOS>BOND
     1    25    26    1
     2    26    27   ar
     3    27    28   ar
     4    28    18    1
     5    18    19   ar
     6    19    20   ar
     7    20    21   ar
     8    21     1    1
     9     1     3    1
    10     3     4   ar
    11     4     5   ar
    12     5     6   ar
    13     6     7   ar
    14     6     8    1
    15     8     9    1
    16     9    10    1
    17    10    11    1
    18    11    12    1
    19    12    13   ar
    20    13    14   ar
    21    14    15   ar
    22    15    16   ar
    23    16    17   ar
    24    21    22   ar
    25    22    23   ar
    26    23    24    1
    27    28    29   ar
    28    29    30   ar
    29    30    26   ar
    30    23    18   ar
    31     7     3   ar
    32    17    12   ar
    33    11     5    1
    34     1     2    1
@<TRIPOS>MOLECULE
*****
 30 34 0 0 0
SMALL
GASTEIGER

@<TRIPOS>ATOM
      1 N          -0.3588    3.0256   19.5140 N.pl3   1  UNL1       -0.2928
      2 H          -0.2154    3.6964   18.8079 H       1  UNL1        0.1541
      3 C          -1.4821    3.1962   20.4935 C.ar    1  UNL1        0.1629
      4 N          -1.3432    3.3153   21.9823 N.ar    1  UNL1       -0.2284
      5 C          -2.7167    3.4704   22.5650 C.ar    1  UNL1        0.0666
      6 C          -3.7044    3.4470   21.4364 C.ar    1  UNL1        0.0237
      7 S          -2.9414    3.2775   20.1561 S.2     1  UNL1       -0.0561
      8 C          -5.1710    3.5830   21.7202 C.3     1  UNL1        0.0343
      9 C          -5.6498    3.7425   23.1328 C.3     1  UNL1        0.0060
     10 C          -4.6621    3.7658   24.2614 C.3     1  UNL1        0.0107
     11 C          -3.1955    3.6298   23.9775 C.3     1  UNL1        0.0627
     12 C          -2.2078    3.6531   25.1062 C.ar    1  UNL1       -0.0169
     13 C          -2.0937    4.8684   25.9779 C.ar    1  UNL1       -0.0039
     14 C          -1.1059    4.8918   27.1066 C.ar    1  UNL1       -0.0003
     15 C          -0.2323    3.6999   27.3635 C.ar    1  UNL1       -0.0000
     16 C          -0.3464    2.4846   26.4917 C.ar    1  UNL1       -0.0003
     17 C          -1.3341    2.4612   25.3631 C.ar    1  UNL1       -0.0039
     18 C           2.3550   -0.5523   19.8034 C.ar    1  UNL1        0.0616
     19 C           1.0658   -0.5249   20.5696 C.ar    1  UNL1        0.0185
     20 C           0.1611    0.6677   20.4731 C.ar    1  UNL1        0.0161
     21 C           0.5457    1.8330   19.6105 C.ar    1  UNL1        0.0495
     22 C           1.8351    1.8056   18.8443 C.ar    1  UNL1        0.0118
     23 C           2.7397    0.6130   18.9408 C.ar    1  UNL1       -0.0045
     24 C           4.0290    0.5857   18.1746 C.3     1  UNL1        0.0326
     25 C           4.6598   -5.1998   18.8187 C.3     1  UNL1        0.0538
     26 C           4.3191   -3.8812   19.4472 C.ar    1  UNL1        0.0786
     27 C           3.2530   -2.9329   18.9841 C.ar    1  UNL1        0.0962
     28 N           3.2597   -1.7449   19.8999 N.ar    1  UNL1       -0.2871
     29 C           4.3298   -1.9589   20.9290 C.ar    1  UNL1        0.1825
     30 N           4.9845   -3.2792   20.6493 N.ar    1  UNL1       -0.2280
@<TRIPOS>BOND
     1    25    26    1
     2    26    27   ar
     3    27    28   ar
     4    28    18    1
     5    18    19   ar
     6    19    20   ar
     7    20    21   ar
     8    21     1    1
     9     1     3    1
    10     3     4   ar
    11     4     5   ar
    12     5     6   ar
    13     6     7   ar
    14     6     8    1
    15     8     9    1
    16     9    10    1
    17    10    11    1
    18    11    12    1
    19    12    13   ar
    20    13    14   ar
    21    14    15   ar
    22    15    16   ar
    23    16    17   ar
    24    21    22   ar
    25    22    23   ar
    26    23    24    1
    27    28    29   ar
    28    29    30   ar
    29    30    26   ar
    30    23    18   ar
    31     7     3   ar
    32    17    12   ar
    33    11     5    1
    34     1     2    1
@<TRIPOS>MOLECULE
*****
 30 34 0 0 0
SMALL
GASTEIGER

@<TRIPOS>ATOM
      1 N         -12.1177   -5.5873   19.3530 N.pl3   1  UNL1       -0.2928
      2 H         -11.4009   -5.9619   19.9144 H       1  UNL1        0.1541
      3 C         -12.0065   -4.1855   18.8310 C.ar    1  UNL1        0.1629
      4 N         -12.9992   -3.0823   19.0486 N.ar    1  UNL1       -0.2284
      5 C         -12.4892   -1.8556   18.3519 C.ar    1  UNL1        0.0666
      6 C         -11.1812   -2.2007   17.7038 C.ar    1  UNL1        0.0237
      7 S         -10.8829   -3.6406   17.9999 S.2     1  UNL1       -0.0561
      8 C         -10.4309   -1.1593   16.9278 C.3     1  UNL1        0.0343
      9 C         -10.9885    0.2273   16.7998 C.3     1  UNL1        0.0060
     10 C         -12.2965    0.5724   17.4479 C.3     1  UNL1        0.0107
     11 C         -13.0469   -0.4691   18.2240 C.3     1  UNL1        0.0627
     12 C         -14.3549   -0.1240   18.8721 C.ar    1  UNL1       -0.0169
     13 C         -14.7837    1.3094   18.9792 C.ar    1  UNL1       -0.0039
     14 C         -16.0917    1.6545   19.6273 C.ar    1  UNL1       -0.0003
     15 C         -16.9709    0.5663   20.1683 C.ar    1  UNL1       -0.0000
     16 C         -16.5421   -0.8671   20.0611 C.ar    1  UNL1       -0.0003
     17 C         -15.2341   -1.2122   19.4130 C.ar    1  UNL1       -0.0039
     18 C         -15.7278   -8.0807   18.3528 C.ar    1  UNL1        0.0616
     19 C         -14.3693   -8.5037   17.8781 C.ar    1  UNL1        0.0185
     20 C         -13.1658   -7.6726   18.2115 C.ar    1  UNL1        0.0161
     21 C         -13.3210   -6.4184   19.0196 C.ar    1  UNL1        0.0495
     22 C         -14.6797   -5.9954   19.4943 C.ar    1  UNL1        0.0118
     23 C         -15.8830   -6.8265   19.1609 C.ar    1  UNL1       -0.0045
     24 C         -17.2416   -6.4035   19.6356 C.3     1  UNL1        0.0326
     25 C         -20.0987   -9.8677   15.9899 C.3     1  UNL1        0.0538
     26 C         -18.9403   -9.7332   16.9333 C.ar    1  UNL1        0.0786
     27 C         -17.8929   -8.6599   16.8962 C.ar    1  UNL1        0.0962
     28 N         -16.9312   -8.9118   18.0195 N.ar    1  UNL1       -0.2871
     29 C         -17.3842  -10.1406   18.7508 C.ar    1  UNL1        0.1825
     30 N         -18.6258  -10.6483   18.0795 N.ar    1  UNL1       -0.2280
@<TRIPOS>BOND
     1    25    26    1
     2    26    27   ar
     3    27    28   ar
     4    28    18    1
     5    18    19   ar
     6    19    20   ar
     7    20    21   ar
     8    21     1    1
     9     1     3    1
    10     3     4   ar
    11     4     5   ar
    12     5     6   ar
    13     6     7   ar
    14     6     8    1
    15     8     9    1
    16     9    10    1
    17    10    11    1
    18    11    12    1
    19    12    13   ar
    20    13    14   ar
    21    14    15   ar
    22    15    16   ar
    23    16    17   ar
    24    21    22   ar
    25    22    23   ar
    26    23    24    1
    27    28    29   ar
    28    29    30   ar
    29    30    26   ar
    30    23    18   ar
    31     7     3   ar
    32    17    12   ar
    33    11     5    1
    34     1     2    1
@<TRIPOS>MOLECULE
*****
 30 34 0 0 0
SMALL
GASTEIGER

@<TRIPOS>ATOM
      1 N           5.5576   -1.4806   24.6754 N.pl3   1  UNL1       -0.2928
      2 H           6.5238   -1.4296   24.8572 H       1  UNL1        0.1541
      3 C           5.0674   -2.0643   23.3835 C.ar    1  UNL1        0.1629
      4 N           4.2049   -1.3684   22.3726 N.ar    1  UNL1       -0.2284
      5 C           3.9580   -2.3204   21.2400 C.ar    1  UNL1        0.0666
      6 C           4.6679   -3.6047   21.5509 C.ar    1  UNL1        0.0237
      7 S           5.3535   -3.4464   22.8757 S.2     1  UNL1       -0.0561
      8 C           4.5983   -4.7523   20.5876 C.3     1  UNL1        0.0343
      9 C           3.8188   -4.6156   19.3134 C.3     1  UNL1        0.0060
     10 C           3.1089   -3.3314   19.0025 C.3     1  UNL1        0.0107
     11 C           3.1785   -2.1837   19.9658 C.3     1  UNL1        0.0627
     12 C           2.4686   -0.8994   19.6549 C.ar    1  UNL1       -0.0169
     13 C           1.1370   -0.6080   20.2808 C.ar    1  UNL1       -0.0039
     14 C           0.4271    0.6763   19.9699 C.ar    1  UNL1       -0.0003
     15 C           1.0489    1.6691   19.0332 C.ar    1  UNL1       -0.0000
     16 C           2.3805    1.3777   18.4073 C.ar    1  UNL1       -0.0003
     17 C           3.0904    0.0934   18.7182 C.ar    1  UNL1       -0.0039
     18 C           2.6119    0.0371   27.7199 C.ar    1  UNL1        0.0616
     19 C           3.5554   -1.0727   28.0776 C.ar    1  UNL1        0.0185
     20 C           4.5374   -1.5786   27.0628 C.ar    1  UNL1        0.0161
     21 C           4.5757   -0.9747   25.6902 C.ar    1  UNL1        0.0495
     22 C           3.6321    0.1351   25.3326 C.ar    1  UNL1        0.0118
     23 C           2.6502    0.6410   26.3474 C.ar    1  UNL1       -0.0045
     24 C           1.7065    1.7509   25.9897 C.3     1  UNL1        0.0326
     25 C           0.4208    2.8241   31.6332 C.3     1  UNL1        0.0538
     26 C           0.6228    1.8241   30.5335 C.ar    1  UNL1        0.0786
     27 C           1.8681    1.6534   29.7148 C.ar    1  UNL1        0.0962
     28 N           1.6299    0.5431   28.7348 N.ar    1  UNL1       -0.2871
     29 C           0.2375    0.0275   28.9478 C.ar    1  UNL1        0.1825
     30 N          -0.3849    0.8192   30.0594 N.ar    1  UNL1       -0.2280
@<TRIPOS>BOND
     1    25    26    1
     2    26    27   ar
     3    27    28   ar
     4    28    18    1
     5    18    19   ar
     6    19    20   ar
     7    20    21   ar
     8    21     1    1
     9     1     3    1
    10     3     4   ar
    11     4     5   ar
    12     5     6   ar
    13     6     7   ar
    14     6     8    1
    15     8     9    1
    16     9    10    1
    17    10    11    1
    18    11    12    1
    19    12    13   ar
    20    13    14   ar
    21    14    15   ar
    22    15    16   ar
    23    16    17   ar
    24    21    22   ar
    25    22    23   ar
    26    23    24    1
    27    28    29   ar
    28    29    30   ar
    29    30    26   ar
    30    23    18   ar
    31     7     3   ar
    32    17    12   ar
    33    11     5    1
    34     1     2    1
@<TRIPOS>MOLECULE
*****
 30 34 0 0 0
SMALL
GASTEIGER

@<TRIPOS>ATOM
      1 N          -7.8239  -20.8977   22.9746 N.pl3   1  UNL1       -0.2928
      2 H          -7.7875  -21.8235   23.3073 H       1  UNL1        0.1541
      3 C          -9.0739  -20.0868   23.1483 C.ar    1  UNL1        0.1629
      4 N          -9.4879  -18.9143   22.3095 N.ar    1  UNL1       -0.2284
      5 C         -10.7992  -18.4090   22.8341 C.ar    1  UNL1        0.0666
      6 C         -11.1955  -19.2692   23.9973 C.ar    1  UNL1        0.0237
      7 S         -10.1292  -20.3061   24.1914 S.2     1  UNL1       -0.0561
      8 C         -12.4762  -18.9971   24.7293 C.3     1  UNL1        0.0343
      9 C         -13.3604  -17.8648   24.2982 C.3     1  UNL1        0.0060
     10 C         -12.9641  -17.0046   23.1350 C.3     1  UNL1        0.0107
     11 C         -11.6835  -17.2767   22.4030 C.3     1  UNL1        0.0627
     12 C         -11.2871  -16.4164   21.2399 C.ar    1  UNL1       -0.0169
     13 C         -10.0498  -15.5722   21.3187 C.ar    1  UNL1       -0.0039
     14 C          -9.6534  -14.7119   20.1555 C.ar    1  UNL1       -0.0003
     15 C         -10.4944  -14.6960   18.9136 C.ar    1  UNL1       -0.0000
     16 C         -11.7317  -15.5402   18.8348 C.ar    1  UNL1       -0.0003
     17 C         -12.1280  -16.4004   19.9979 C.ar    1  UNL1       -0.0039
     18 C          -4.2402  -19.0982   20.9328 C.ar    1  UNL1        0.0616
     19 C          -4.9960  -20.2145   20.2752 C.ar    1  UNL1        0.0185
     20 C          -6.1906  -20.8144   20.9558 C.ar    1  UNL1        0.0161
     21 C          -6.6294  -20.2978   22.2940 C.ar    1  UNL1        0.0495
     22 C          -5.8735  -19.1814   22.9515 C.ar    1  UNL1        0.0118
     23 C          -4.6790  -18.5816   22.2709 C.ar    1  UNL1       -0.0045
     24 C          -3.9231  -17.4651   22.9285 C.3     1  UNL1        0.0326
     25 C           0.6969  -17.5255   19.9165 C.3     1  UNL1        0.0538
     26 C          -0.7763  -17.7754   19.7851 C.ar    1  UNL1        0.0786
     27 C          -1.6460  -18.4697   20.7910 C.ar    1  UNL1        0.0962
     28 N          -3.0456  -18.4983   20.2522 N.ar    1  UNL1       -0.2871
     29 C          -3.0410  -17.8217   18.9134 C.ar    1  UNL1        0.1825
     30 N          -1.6384  -17.3750   18.6247 N.ar    1  UNL1       -0.2280
@<TRIPOS>BOND
     1    25    26    1
     2    26    27   ar
     3    27    28   ar
     4    28    18    1
     5    18    19   ar
     6    19    20   ar
     7    20    21   ar
     8    21     1    1
     9     1     3    1
    10     3     4   ar
    11     4     5   ar
    12     5     6   ar
    13     6     7   ar
    14     6     8    1
    15     8     9    1
    16     9    10    1
    17    10    11    1
    18    11    12    1
    19    12    13   ar
    20    13    14   ar
    21    14    15   ar
    22    15    16   ar
    23    16    17   ar
    24    21    22   ar
    25    22    23   ar
    26    23    24    1
    27    28    29   ar
    28    29    30   ar
    29    30    26   ar
    30    23    18   ar
    31     7     3   ar
    32    17    12   ar
    33    11     5    1
    34     1     2    1
@<TRIPOS>MOLECULE
*****
 30 34 0 0 0
SMALL
GASTEIGER

@<TRIPOS>ATOM
      1 N          -0.1636    2.5567   23.8434 N.pl3   1  UNL1       -0.2928
      2 H          -0.8708    3.2366   23.7609 H       1  UNL1        0.1541
      3 C           0.4401    1.9493   22.6118 C.ar    1  UNL1        0.1629
      4 N           1.4014    0.7984   22.5767 N.ar    1  UNL1       -0.2284
      5 C           1.7439    0.5240   21.1424 C.ar    1  UNL1        0.0666
      6 C           0.9944    1.5054   20.2909 C.ar    1  UNL1        0.0237
      7 S           0.1886    2.3863   21.1991 S.2     1  UNL1       -0.0561
      8 C           1.1424    1.4702   18.7987 C.3     1  UNL1        0.0343
      9 C           2.0400    0.4535   18.1579 C.3     1  UNL1        0.0060
     10 C           2.7895   -0.5279   19.0094 C.3     1  UNL1        0.0107
     11 C           2.6415   -0.4927   20.5016 C.3     1  UNL1        0.0627
     12 C           3.3910   -1.4742   21.3530 C.ar    1  UNL1       -0.0169
     13 C           3.8993   -2.7519   20.7540 C.ar    1  UNL1       -0.0039
     14 C           4.6489   -3.7334   21.6054 C.ar    1  UNL1       -0.0003
     15 C           4.8901   -3.4371   23.0559 C.ar    1  UNL1       -0.0000
     16 C           4.3817   -2.1593   23.6550 C.ar    1  UNL1       -0.0003
     17 C           3.6322   -1.1779   22.8035 C.ar    1  UNL1       -0.0039
     18 C           1.2578    1.2709   27.9148 C.ar    1  UNL1        0.0616
     19 C           2.2275    1.8589   26.9330 C.ar    1  UNL1        0.0185
     20 C           1.7537    2.2875   25.5758 C.ar    1  UNL1        0.0161
     21 C           0.3102    2.1281   25.2005 C.ar    1  UNL1        0.0495
     22 C          -0.6595    1.5401   26.1823 C.ar    1  UNL1        0.0118
     23 C          -0.1857    1.1116   27.5394 C.ar    1  UNL1       -0.0045
     24 C          -1.1554    0.5236   28.5213 C.3     1  UNL1        0.0326
     25 C           2.7309    1.3766   32.9843 C.3     1  UNL1        0.0538
     26 C           2.4087    0.8909   31.6022 C.ar    1  UNL1        0.0786
     27 C           1.9260    1.7362   30.4608 C.ar    1  UNL1        0.0962
     28 N           1.7316    0.8423   29.2720 N.ar    1  UNL1       -0.2871
     29 C           2.0941   -0.5553   29.6785 C.ar    1  UNL1        0.1825
     30 N           2.5126   -0.5253   31.1187 N.ar    1  UNL1       -0.2280
@<TRIPOS>BOND
     1    25    26    1
     2    26    27   ar
     3    27    28   ar
     4    28    18    1
     5    18    19   ar
     6    19    20   ar
     7    20    21   ar
     8    21     1    1
     9     1     3    1
    10     3     4   ar
    11     4     5   ar
    12     5     6   ar
    13     6     7   ar
    14     6     8    1
    15     8     9    1
    16     9    10    1
    17    10    11    1
    18    11    12    1
    19    12    13   ar
    20    13    14   ar
    21    14    15   ar
    22    15    16   ar
    23    16    17   ar
    24    21    22   ar
    25    22    23   ar
    26    23    24    1
    27    28    29   ar
    28    29    30   ar
    29    30    26   ar
    30    23    18   ar
    31     7     3   ar
    32    17    12   ar
    33    11     5    1
    34     1     2    1
@<TRIPOS>MOLECULE
*****
 30 34 0 0 0
SMALL
GASTEIGER

@<TRIPOS>ATOM
      1 N           0.0397    4.5497   19.7842 N.pl3   1  UNL1       -0.2928
      2 H           0.4019    5.4065   20.1067 H       1  UNL1        0.1541
      3 C          -1.4421    4.3706   19.6348 C.ar    1  UNL1        0.1629
      4 N          -2.4479    4.3789   20.7476 N.ar    1  UNL1       -0.2284
      5 C          -3.8056    4.1651   20.1469 C.ar    1  UNL1        0.0666
      6 C          -3.6390    4.0246   18.6628 C.ar    1  UNL1        0.0237
      7 S          -2.1783    4.1516   18.3463 S.2     1  UNL1       -0.0561
      8 C          -4.8389    3.7993   17.7914 C.3     1  UNL1        0.0343
      9 C          -6.2054    3.7143   18.4040 C.3     1  UNL1        0.0060
     10 C          -6.3720    3.8548   19.8881 C.3     1  UNL1        0.0107
     11 C          -5.1721    4.0801   20.7596 C.3     1  UNL1        0.0627
     12 C          -5.3387    4.2206   22.2436 C.ar    1  UNL1       -0.0169
     13 C          -4.7496    3.1939   23.1650 C.ar    1  UNL1       -0.0039
     14 C          -4.9163    3.3344   24.6491 C.ar    1  UNL1       -0.0003
     15 C          -5.6720    4.5015   25.2118 C.ar    1  UNL1       -0.0000
     16 C          -6.2611    5.5281   24.2905 C.ar    1  UNL1       -0.0003
     17 C          -6.0945    5.3877   22.8064 C.ar    1  UNL1       -0.0039
     18 C           2.8293    1.1711   18.7583 C.ar    1  UNL1        0.0616
     19 C           3.1740    2.5755   18.3599 C.ar    1  UNL1        0.0185
     20 C           2.2441    3.7018   18.7019 C.ar    1  UNL1        0.0161
     21 C           0.9695    3.4236   19.4422 C.ar    1  UNL1        0.0495
     22 C           0.6249    2.0190   19.8406 C.ar    1  UNL1        0.0118
     23 C           1.5548    0.8929   19.4986 C.ar    1  UNL1       -0.0045
     24 C           1.2101   -0.5117   19.8969 C.3     1  UNL1        0.0326
     25 C           6.5943   -2.5147   19.1070 C.3     1  UNL1        0.0538
     26 C           5.4898   -1.6493   18.5767 C.ar    1  UNL1        0.0786
     27 C           4.7906   -0.5541   19.3261 C.ar    1  UNL1        0.0962
     28 N           3.7593    0.0448   18.4163 N.ar    1  UNL1       -0.2871
     29 C           3.8211   -0.6802   17.1047 C.ar    1  UNL1        0.1825
     30 N           4.8906   -1.7272   17.2037 N.ar    1  UNL1       -0.2280
@<TRIPOS>BOND
     1    25    26    1
     2    26    27   ar
     3    27    28   ar
     4    28    18    1
     5    18    19   ar
     6    19    20   ar
     7    20    21   ar
     8    21     1    1
     9     1     3    1
    10     3     4   ar
    11     4     5   ar
    12     5     6   ar
    13     6     7   ar
    14     6     8    1
    15     8     9    1
    16     9    10    1
    17    10    11    1
    18    11    12    1
    19    12    13   ar
    20    13    14   ar
    21    14    15   ar
    22    15    16   ar
    23    16    17   ar
    24    21    22   ar
    25    22    23   ar
    26    23    24    1
    27    28    29   ar
    28    29    30   ar
    29    30    26   ar
    30    23    18   ar
    31     7     3   ar
    32    17    12   ar
    33    11     5    1
    34     1     2    1
@<TRIPOS>MOLECULE
*****
 30 34 0 0 0
SMALL
GASTEIGER

@<TRIPOS>ATOM
      1 N           7.8985   -2.2321   23.5559 N.pl3   1  UNL1       -0.2928
      2 H           8.5701   -1.5326   23.3858 H       1  UNL1        0.1541
      3 C           6.8939   -2.5805   22.4979 C.ar    1  UNL1        0.1629
      4 N           5.5733   -1.9037   22.2790 N.ar    1  UNL1       -0.2284
      5 C           4.8967   -2.5717   21.1188 C.ar    1  UNL1        0.0666
      6 C           5.7992   -3.6614   20.6207 C.ar    1  UNL1        0.0237
      7 S           7.0335   -3.6668   21.4731 S.2     1  UNL1       -0.0561
      8 C           5.3804   -4.5080   19.4554 C.3     1  UNL1        0.0343
      9 C           4.0592   -4.2648   18.7882 C.3     1  UNL1        0.0060
     10 C           3.1567   -3.1751   19.2863 C.3     1  UNL1        0.0107
     11 C           3.5755   -2.3285   20.4516 C.3     1  UNL1        0.0627
     12 C           2.6730   -1.2388   20.9497 C.ar    1  UNL1       -0.0169
     13 C           2.9768   -0.5472   22.2456 C.ar    1  UNL1       -0.0039
     14 C           2.0744    0.5425   22.7437 C.ar    1  UNL1       -0.0003
     15 C           0.8681    0.9406   21.9459 C.ar    1  UNL1       -0.0000
     16 C           0.5643    0.2489   20.6501 C.ar    1  UNL1       -0.0003
     17 C           1.4668   -0.8408   20.1520 C.ar    1  UNL1       -0.0039
     18 C           7.8427   -4.3843   27.5075 C.ar    1  UNL1        0.0616
     19 C           8.1871   -2.9254   27.4529 C.ar    1  UNL1        0.0185
     20 C           8.2057   -2.2079   26.1357 C.ar    1  UNL1        0.0161
     21 C           7.8799   -2.9495   24.8731 C.ar    1  UNL1        0.0495
     22 C           7.5356   -4.4084   24.9278 C.ar    1  UNL1        0.0118
     23 C           7.5170   -5.1258   26.2449 C.ar    1  UNL1       -0.0045
     24 C           7.1727   -6.5848   26.2996 C.3     1  UNL1        0.0326
     25 C           9.3591   -7.1578   31.7371 C.3     1  UNL1        0.0538
     26 C           8.5212   -6.3766   30.7688 C.ar    1  UNL1        0.0786
     27 C           8.9873   -5.7998   29.4649 C.ar    1  UNL1        0.0962
     28 N           7.8241   -5.1017   28.8247 N.ar    1  UNL1       -0.2871
     29 C           6.6392   -5.2471   29.7329 C.ar    1  UNL1        0.1825
     30 N           7.0700   -6.0349   30.9344 N.ar    1  UNL1       -0.2280
@<TRIPOS>BOND
     1    25    26    1
     2    26    27   ar
     3    27    28   ar
     4    28    18    1
     5    18    19   ar
     6    19    20   ar
     7    20    21   ar
     8    21     1    1
     9     1     3    1
    10     3     4   ar
    11     4     5   ar
    12     5     6   ar
    13     6     7   ar
    14     6     8    1
    15     8     9    1
    16     9    10    1
    17    10    11    1
    18    11    12    1
    19    12    13   ar
    20    13    14   ar
    21    14    15   ar
    22    15    16   ar
    23    16    17   ar
    24    21    22   ar
    25    22    23   ar
    26    23    24    1
    27    28    29   ar
    28    29    30   ar
    29    30    26   ar
    30    23    18   ar
    31     7     3   ar
    32    17    12   ar
    33    11     5    1
    34     1     2    1
@<TRIPOS>MOLECULE
*****
 30 34 0 0 0
SMALL
GASTEIGER

@<TRIPOS>ATOM
      1 N          -6.9548  -20.4742   20.7126 N.pl3   1  UNL1       -0.2928
      2 H          -7.0657  -21.4278   20.4943 H       1  UNL1        0.1541
      3 C          -8.1459  -19.6513   21.1051 C.ar    1  UNL1        0.1629
      4 N          -8.2882  -18.8514   22.3660 N.ar    1  UNL1       -0.2284
      5 C          -9.6341  -18.1895   22.3458 C.ar    1  UNL1        0.0666
      6 C         -10.3237  -18.5803   21.0723 C.ar    1  UNL1        0.0237
      7 S          -9.4040  -19.4838   20.3056 S.2     1  UNL1       -0.0561
      8 C         -11.7000  -18.0631   20.7755 C.3     1  UNL1        0.0343
      9 C         -12.3867  -17.1550   21.7521 C.3     1  UNL1        0.0060
     10 C         -11.6971  -16.7642   23.0256 C.3     1  UNL1        0.0107
     11 C         -10.3207  -17.2814   23.3224 C.3     1  UNL1        0.0627
     12 C          -9.6311  -16.8906   24.5959 C.ar    1  UNL1       -0.0169
     13 C          -9.6342  -17.8264   25.7682 C.ar    1  UNL1       -0.0039
     14 C          -8.9446  -17.4356   27.0416 C.ar    1  UNL1       -0.0003
     15 C          -8.2518  -16.1090   27.1427 C.ar    1  UNL1       -0.0000
     16 C          -8.2487  -15.1733   25.9704 C.ar    1  UNL1       -0.0003
     17 C          -8.9383  -15.5641   24.6970 C.ar    1  UNL1       -0.0039
     18 C          -2.8749  -18.5845   20.5329 C.ar    1  UNL1        0.0616
     19 C          -3.4446  -19.2557   19.3185 C.ar    1  UNL1        0.0185
     20 C          -4.8046  -19.8857   19.3784 C.ar    1  UNL1        0.0161
     21 C          -5.5949  -19.8443   20.6527 C.ar    1  UNL1        0.0495
     22 C          -5.0251  -19.1730   21.8671 C.ar    1  UNL1        0.0118
     23 C          -3.6651  -18.5431   21.8072 C.ar    1  UNL1       -0.0045
     24 C          -3.0953  -17.8718   23.0216 C.3     1  UNL1        0.0326
     25 C           2.3550  -17.8952   20.7673 C.3     1  UNL1        0.0538
     26 C           0.8891  -17.6377   20.5807 C.ar    1  UNL1        0.0786
     27 C          -0.2122  -18.6401   20.7612 C.ar    1  UNL1        0.0962
     28 N          -1.5148  -17.9545   20.4730 N.ar    1  UNL1       -0.2871
     29 C          -1.2187  -16.5284   20.1144 C.ar    1  UNL1        0.1825
     30 N           0.2670  -16.3326   20.1810 N.ar    1  UNL1       -0.2280
@<TRIPOS>BOND
     1    25    26    1
     2    26    27   ar
     3    27    28   ar
     4    28    18    1
     5    18    19   ar
     6    19    20   ar
     7    20    21   ar
     8    21     1    1
     9     1     3    1
    10     3     4   ar
    11     4     5   ar
    12     5     6   ar
    13     6     7   ar
    14     6     8    1
    15     8     9    1
    16     9    10    1
    17    10    11    1
    18    11    12    1
    19    12    13   ar
    20    13    14   ar
    21    14    15   ar
    22    15    16   ar
    23    16    17   ar
    24    21    22   ar
    25    22    23   ar
    26    23    24    1
    27    28    29   ar
    28    29    30   ar
    29    30    26   ar
    30    23    18   ar
    31     7     3   ar
    32    17    12   ar
    33    11     5    1
    34     1     2    1
