@<TRIPOS>MOLECULE
*****
 13 13 0 0 0
SMALL
GASTEIGER

@<TRIPOS>ATOM
      1 C          -9.6826  -20.6223   24.1611 C.3     1  UNL1        0.0318
      2 C          -9.2785  -19.5555   23.1871 C.ar    1  UNL1       -0.0111
      3 C          -7.9253  -19.6028   22.5417 C.ar    1  UNL1        0.0170
      4 C          -7.5212  -18.5360   21.5677 C.ar    1  UNL1        0.0986
      5 N          -8.4703  -17.4219   21.2392 N.ar    1  UNL1       -0.2417
      6 C          -9.8235  -17.3747   21.8845 C.ar    1  UNL1        0.1067
      7 C         -10.2276  -18.4415   22.8585 C.ar    1  UNL1        0.0569
      8 C         -11.5809  -18.3942   23.5039 C.1     1  UNL1       -0.0618
      9 C         -12.9342  -18.3468   24.1492 C.1     1  UNL1       -0.0689
     10 C         -14.2874  -18.2995   24.7946 C.3     1  UNL1        0.1432
     11 N         -14.4379  -18.6415   26.2473 N.3     1  UNL1       -0.3102
     12 H         -14.2153  -19.6267   26.3895 H       1  UNL1        0.1198
     13 H         -15.3986  -18.4642   26.5406 H       1  UNL1        0.1198
@<TRIPOS>BOND
     1     1     2    1
     2     2     3   ar
     3     3     4   ar
     4     4     5   ar
     5     5     6   ar
     6     6     7   ar
     7     7     8    1
     8     8     9    3
     9     9    10    1
    10    10    11    1
    11     7     2   ar
    12    11    12    1
    13    11    13    1
@<TRIPOS>MOLECULE
*****
 13 13 0 0 0
SMALL
GASTEIGER

@<TRIPOS>ATOM
      1 C          -4.1899  -19.4713   22.5128 C.3     1  UNL1        0.0318
      2 C          -3.1390  -18.5989   21.8928 C.ar    1  UNL1       -0.0111
      3 C          -2.1587  -19.1825   20.9190 C.ar    1  UNL1        0.0170
      4 C          -1.1078  -18.3101   20.2989 C.ar    1  UNL1        0.0986
      5 N          -1.0372  -16.8542   20.6526 N.ar    1  UNL1       -0.2417
      6 C          -2.0175  -16.2706   21.6264 C.ar    1  UNL1        0.1067
      7 C          -3.0685  -17.1430   22.2465 C.ar    1  UNL1        0.0569
      8 C          -4.0488  -16.5593   23.2203 C.1     1  UNL1       -0.0618
      9 C          -5.0291  -15.9757   24.1941 C.1     1  UNL1       -0.0689
     10 C          -6.0095  -15.3920   25.1680 C.3     1  UNL1        0.1432
     11 N          -7.0415  -14.4110   24.6963 N.3     1  UNL1       -0.3102
     12 H          -6.5806  -13.5560   24.3850 H       1  UNL1        0.1198
     13 H          -7.6793  -14.1939   25.4621 H       1  UNL1        0.1198
@<TRIPOS>BOND
     1     1     2    1
     2     2     3   ar
     3     3     4   ar
     4     4     5   ar
     5     5     6   ar
     6     6     7   ar
     7     7     8    1
     8     8     9    3
     9     9    10    1
    10    10    11    1
    11     7     2   ar
    12    11    12    1
    13    11    13    1
@<TRIPOS>MOLECULE
*****
 13 13 0 0 0
SMALL
GASTEIGER

@<TRIPOS>ATOM
      1 C         -10.1453  -18.5328   24.9763 C.3     1  UNL1        0.0318
      2 C         -10.8273  -17.9066   23.7961 C.ar    1  UNL1       -0.0111
      3 C         -12.2065  -18.3483   23.4054 C.ar    1  UNL1        0.0170
      4 C         -12.8884  -17.7222   22.2252 C.ar    1  UNL1        0.0986
      5 N         -12.1911  -16.6544   21.4356 N.ar    1  UNL1       -0.2417
      6 C         -10.8119  -16.2127   21.8263 C.ar    1  UNL1        0.1067
      7 C         -10.1300  -16.8388   23.0065 C.ar    1  UNL1        0.0569
      8 C          -8.7507  -16.3970   23.3971 C.1     1  UNL1       -0.0618
      9 C          -7.3715  -15.9553   23.7877 C.1     1  UNL1       -0.0689
     10 C          -5.9922  -15.5136   24.1783 C.3     1  UNL1        0.1432
     11 N          -5.1442  -14.7521   23.2031 N.3     1  UNL1       -0.3102
     12 H          -4.9133  -15.3530   22.4119 H       1  UNL1        0.1198
     13 H          -4.2852  -14.4502   23.6628 H       1  UNL1        0.1198
@<TRIPOS>BOND
     1     1     2    1
     2     2     3   ar
     3     3     4   ar
     4     4     5   ar
     5     5     6   ar
     6     6     7   ar
     7     7     8    1
     8     8     9    3
     9     9    10    1
    10    10    11    1
    11     7     2   ar
    12    11    12    1
    13    11    13    1
@<TRIPOS>MOLECULE
*****
 13 13 0 0 0
SMALL
GASTEIGER

@<TRIPOS>ATOM
      1 C         -11.0454  -18.9253   24.6019 C.3     1  UNL1        0.0318
      2 C         -10.7824  -18.2225   23.3030 C.ar    1  UNL1       -0.0111
      3 C         -11.4500  -18.6955   22.0458 C.ar    1  UNL1        0.0170
      4 C         -11.1870  -17.9928   20.7470 C.ar    1  UNL1        0.0986
      5 N         -10.2565  -16.8170   20.7053 N.ar    1  UNL1       -0.2417
      6 C          -9.5890  -16.3440   21.9625 C.ar    1  UNL1        0.1067
      7 C          -9.8520  -17.0468   23.2614 C.ar    1  UNL1        0.0569
      8 C          -9.1844  -16.5737   24.5186 C.1     1  UNL1       -0.0618
      9 C          -8.5168  -16.1007   25.7759 C.1     1  UNL1       -0.0689
     10 C          -7.8493  -15.6277   27.0331 C.3     1  UNL1        0.1432
     11 N          -6.5686  -14.8506   26.9556 N.3     1  UNL1       -0.3102
     12 H          -5.8301  -15.4484   26.5847 H       1  UNL1        0.1198
     13 H          -6.3093  -14.5285   27.8880 H       1  UNL1        0.1198
@<TRIPOS>BOND
     1     1     2    1
     2     2     3   ar
     3     3     4   ar
     4     4     5   ar
     5     5     6   ar
     6     6     7   ar
     7     7     8    1
     8     8     9    3
     9     9    10    1
    10    10    11    1
    11     7     2   ar
    12    11    12    1
    13    11    13    1
@<TRIPOS>MOLECULE
*****
 13 13 0 0 0
SMALL
GASTEIGER

@<TRIPOS>ATOM
      1 C         -10.2316  -16.4204   22.0274 C.3     1  UNL1        0.0318
      2 C          -9.4623  -17.6800   22.2946 C.ar    1  UNL1       -0.0111
      3 C          -8.0813  -17.8486   21.7339 C.ar    1  UNL1        0.0170
      4 C          -7.3119  -19.1082   22.0010 C.ar    1  UNL1        0.0986
      5 N          -7.9236  -20.1994   22.8289 N.ar    1  UNL1       -0.2417
      6 C          -9.3046  -20.0308   23.3895 C.ar    1  UNL1        0.1067
      7 C         -10.0739  -18.7712   23.1224 C.ar    1  UNL1        0.0569
      8 C         -11.4550  -18.6026   23.6831 C.1     1  UNL1       -0.0618
      9 C         -12.8360  -18.4341   24.2438 C.1     1  UNL1       -0.0689
     10 C         -14.2170  -18.2656   24.8045 C.3     1  UNL1        0.1432
     11 N         -14.5099  -18.6833   26.2151 N.3     1  UNL1       -0.3102
     12 H         -14.4149  -19.6956   26.2966 H       1  UNL1        0.1198
     13 H         -15.4617  -18.4103   26.4599 H       1  UNL1        0.1198
@<TRIPOS>BOND
     1     1     2    1
     2     2     3   ar
     3     3     4   ar
     4     4     5   ar
     5     5     6   ar
     6     6     7   ar
     7     7     8    1
     8     8     9    3
     9     9    10    1
    10    10    11    1
    11     7     2   ar
    12    11    12    1
    13    11    13    1
@<TRIPOS>MOLECULE
*****
 13 13 0 0 0
SMALL
GASTEIGER

@<TRIPOS>ATOM
      1 C          -6.2135  -21.4623   20.0938 C.3     1  UNL1        0.0318
      2 C          -5.3402  -20.3644   20.6245 C.ar    1  UNL1       -0.0111
      3 C          -3.9919  -20.1176   20.0151 C.ar    1  UNL1        0.0170
      4 C          -3.1186  -19.0196   20.5458 C.ar    1  UNL1        0.0986
      5 N          -3.5934  -18.1684   21.6859 N.ar    1  UNL1       -0.2417
      6 C          -4.9417  -18.4151   22.2953 C.ar    1  UNL1        0.1067
      7 C          -5.8150  -19.5131   21.7645 C.ar    1  UNL1        0.0569
      8 C          -7.1633  -19.7598   22.3740 C.1     1  UNL1       -0.0618
      9 C          -8.5115  -20.0065   22.9833 C.1     1  UNL1       -0.0689
     10 C          -9.8598  -20.2532   23.5927 C.3     1  UNL1        0.1432
     11 N          -9.9779  -20.5453   25.0592 N.3     1  UNL1       -0.3102
     12 H          -9.5315  -21.4391   25.2649 H       1  UNL1        0.1198
     13 H         -10.9634  -20.5898   25.3188 H       1  UNL1        0.1198
@<TRIPOS>BOND
     1     1     2    1
     2     2     3   ar
     3     3     4   ar
     4     4     5   ar
     5     5     6   ar
     6     6     7   ar
     7     7     8    1
     8     8     9    3
     9     9    10    1
    10    10    11    1
    11     7     2   ar
    12    11    12    1
    13    11    13    1
@<TRIPOS>MOLECULE
*****
 13 13 0 0 0
SMALL
GASTEIGER

@<TRIPOS>ATOM
      1 C          -8.6981  -16.5346   27.1553 C.3     1  UNL1        0.0318
      2 C          -7.6191  -15.9750   26.2764 C.ar    1  UNL1       -0.0111
      3 C          -6.3297  -15.5029   26.8801 C.ar    1  UNL1        0.0170
      4 C          -5.2506  -14.9433   26.0012 C.ar    1  UNL1        0.0986
      5 N          -5.4609  -14.8558   24.5187 N.ar    1  UNL1       -0.2417
      6 C          -6.7503  -15.3280   23.9150 C.ar    1  UNL1        0.1067
      7 C          -7.8293  -15.8876   24.7938 C.ar    1  UNL1        0.0569
      8 C          -9.1188  -16.3597   24.1900 C.1     1  UNL1       -0.0618
      9 C         -10.4082  -16.8318   23.5863 C.1     1  UNL1       -0.0689
     10 C         -11.6976  -17.3040   22.9825 C.3     1  UNL1        0.1432
     11 N         -12.4740  -16.4006   22.0709 N.3     1  UNL1       -0.3102
     12 H         -12.8166  -15.5978   22.5987 H       1  UNL1        0.1198
     13 H         -13.2645  -16.9118   21.6782 H       1  UNL1        0.1198
@<TRIPOS>BOND
     1     1     2    1
     2     2     3   ar
     3     3     4   ar
     4     4     5   ar
     5     5     6   ar
     6     6     7   ar
     7     7     8    1
     8     8     9    3
     9     9    10    1
    10    10    11    1
    11     7     2   ar
    12    11    12    1
    13    11    13    1
@<TRIPOS>MOLECULE
*****
 13 13 0 0 0
SMALL
GASTEIGER

@<TRIPOS>ATOM
      1 C          -9.9211  -19.8113   24.5440 C.3     1  UNL1        0.0318
      2 C         -10.9689  -19.0686   23.7691 C.ar    1  UNL1       -0.0111
      3 C         -12.2811  -18.7327   24.4135 C.ar    1  UNL1        0.0170
      4 C         -13.3289  -17.9900   23.6386 C.ar    1  UNL1        0.0986
      5 N         -13.0646  -17.5833   22.2193 N.ar    1  UNL1       -0.2417
      6 C         -11.7525  -17.9192   21.5748 C.ar    1  UNL1        0.1067
      7 C         -10.7046  -18.6619   22.3497 C.ar    1  UNL1        0.0569
      8 C          -9.3925  -18.9979   21.7051 C.1     1  UNL1       -0.0618
      9 C          -8.0804  -19.3339   21.0606 C.1     1  UNL1       -0.0689
     10 C          -6.7682  -19.6699   20.4160 C.3     1  UNL1        0.1432
     11 N          -5.9586  -18.5926   19.7573 N.3     1  UNL1       -0.3102
     12 H          -6.4622  -18.2379   18.9443 H       1  UNL1        0.1198
     13 H          -5.0608  -18.9753   19.4607 H       1  UNL1        0.1198
@<TRIPOS>BOND
     1     1     2    1
     2     2     3   ar
     3     3     4   ar
     4     4     5   ar
     5     5     6   ar
     6     6     7   ar
     7     7     8    1
     8     8     9    3
     9     9    10    1
    10    10    11    1
    11     7     2   ar
    12    11    12    1
    13    11    13    1
@<TRIPOS>MOLECULE
*****
 13 13 0 0 0
SMALL
GASTEIGER

@<TRIPOS>ATOM
      1 C          -6.1144  -18.8849   22.1965 C.3     1  UNL1        0.0318
      2 C          -4.6218  -18.8731   22.0479 C.ar    1  UNL1       -0.0111
      3 C          -3.9542  -19.8320   21.1073 C.ar    1  UNL1        0.0170
      4 C          -2.4616  -19.8202   20.9587 C.ar    1  UNL1        0.0986
      5 N          -1.6367  -18.8495   21.7506 N.ar    1  UNL1       -0.2417
      6 C          -2.3043  -17.8906   22.6911 C.ar    1  UNL1        0.1067
      7 C          -3.7969  -17.9024   22.8398 C.ar    1  UNL1        0.0569
      8 C          -4.4646  -16.9434   23.7804 C.1     1  UNL1       -0.0618
      9 C          -5.1321  -15.9845   24.7209 C.1     1  UNL1       -0.0689
     10 C          -5.7998  -15.0255   25.6615 C.3     1  UNL1        0.1432
     11 N          -7.2576  -15.1791   25.9794 N.3     1  UNL1       -0.3102
     12 H          -7.8090  -15.0056   25.1390 H       1  UNL1        0.1198
     13 H          -7.5203  -14.5095   26.7026 H       1  UNL1        0.1198
@<TRIPOS>BOND
     1     1     2    1
     2     2     3   ar
     3     3     4   ar
     4     4     5   ar
     5     5     6   ar
     6     6     7   ar
     7     7     8    1
     8     8     9    3
     9     9    10    1
    10    10    11    1
    11     7     2   ar
    12    11    12    1
    13    11    13    1
