@<TRIPOS>MOLECULE
*****
 33 36 0 0 0
SMALL
GASTEIGER

@<TRIPOS>ATOM
      1 C         -16.8133   -8.9818   18.6644 C.3     1  UNL1        0.0437
      2 C         -16.6434   -7.5723   19.1484 C.3     1  UNL1        0.1352
      3 C         -18.0983   -7.7779   19.4504 C.3     1  UNL1        0.0437
      4 C         -16.9789   -6.2342   19.7374 C.3     1  UNL1        0.0642
      5 C         -15.9185   -5.1800   19.8563 C.3     1  UNL1        0.1019
      6 C         -14.5226   -5.4639   19.3862 C.ar    1  UNL1        0.0298
      7 C         -13.4622   -4.4097   19.5051 C.ar    1  UNL1        0.0034
      8 C         -12.0664   -4.6937   19.0350 C.ar    1  UNL1        0.0371
      9 C         -11.7309   -6.0318   18.4460 C.ar    1  UNL1        0.1498
     10 C         -12.7913   -7.0860   18.3271 C.ar    1  UNL1        0.0738
     11 C         -14.1871   -6.8021   18.7972 C.ar    1  UNL1        0.1387
     12 O         -15.2476   -7.8563   18.6784 O.3     1  UNL1       -0.4827
     13 N         -16.2539   -3.8419   20.4452 N.am    1  UNL1       -0.2863
     14 C         -16.5367   -2.6758   19.5450 C.2     1  UNL1        0.3047
     15 O         -16.4841   -2.8479   18.0558 O.2     1  UNL1       -0.2525
     16 N         -16.8721   -1.3377   20.1340 N.am    1  UNL1       -0.2683
     17 H         -16.2884   -3.7289   21.4226 H       1  UNL1        0.1512
     18 H         -16.9067   -1.2247   21.1114 H       1  UNL1        0.1564
     19 C         -17.1550   -0.1716   19.2337 C.ar    1  UNL1        0.0516
     20 C         -18.5721    0.2185   18.9345 C.ar    1  UNL1        0.0147
     21 C         -18.8548    1.3845   18.0343 C.ar    1  UNL1        0.0013
     22 C         -17.7205    2.1604   17.4333 C.ar    1  UNL1        0.0016
     23 C         -16.3034    1.7702   17.7325 C.ar    1  UNL1        0.0204
     24 C         -15.1690    2.5461   17.1314 C.ar    1  UNL1        0.0989
     25 N         -13.7519    2.1560   17.4306 N.ar    1  UNL1       -0.2423
     26 C         -13.4691    0.9899   18.3309 C.ar    1  UNL1        0.0989
     27 C         -14.6034    0.2141   18.9319 C.ar    1  UNL1        0.0219
     28 C         -16.0206    0.6042   18.6327 C.ar    1  UNL1        0.0166
     29 O         -10.3350   -6.3157   17.9759 O.3     1  UNL1       -0.4044
     30 C          -9.4040   -7.1207   18.8334 C.3     1  UNL1        0.5753
     31 F          -8.4730   -7.9257   19.6908 F       1  UNL1       -0.1328
     32 F          -9.6609   -8.3270   17.9797 F       1  UNL1       -0.1328
     33 F          -9.1472   -5.9144   19.6870 F       1  UNL1       -0.1328
@<TRIPOS>BOND
     1     1     2    1
     2     2     3    1
     3     2     4    1
     4     4     5    1
     5     5    13    1
     6    13    14   am
     7    14    15    2
     8    14    16   am
     9    16    19    1
    10    19    20   ar
    11    20    21   ar
    12    21    22   ar
    13    22    23   ar
    14    23    24   ar
    15    24    25   ar
    16    25    26   ar
    17    26    27   ar
    18    27    28   ar
    19     5     6    1
    20     6     7   ar
    21     7     8   ar
    22     8     9   ar
    23     9    29    1
    24    29    30    1
    25    30    31    1
    26    30    32    1
    27    30    33    1
    28     9    10   ar
    29    10    11   ar
    30    11    12    1
    31    12     2    1
    32    28    19   ar
    33    11     6   ar
    34    28    23   ar
    35    13    17    1
    36    16    18    1
@<TRIPOS>MOLECULE
*****
 33 36 0 0 0
SMALL
GASTEIGER

@<TRIPOS>ATOM
      1 C          -4.9405    4.0296   18.0453 C.3     1  UNL1        0.0437
      2 C          -3.6129    3.8683   18.7247 C.3     1  UNL1        0.1352
      3 C          -3.1648    3.9621   17.2962 C.3     1  UNL1        0.0437
      4 C          -2.1297    3.7397   18.9079 C.3     1  UNL1        0.0642
      5 C          -1.5556    3.5732   20.2836 C.3     1  UNL1        0.1019
      6 C          -2.4648    3.5355   21.4762 C.ar    1  UNL1        0.0298
      7 C          -1.8907    3.3691   22.8520 C.ar    1  UNL1        0.0034
      8 C          -2.7998    3.3313   24.0444 C.ar    1  UNL1        0.0371
      9 C          -4.2830    3.4600   23.8612 C.ar    1  UNL1        0.1498
     10 C          -4.8571    3.6265   22.4854 C.ar    1  UNL1        0.0738
     11 C          -3.9480    3.6642   21.2930 C.ar    1  UNL1        0.1387
     12 O          -4.5220    3.8306   19.9171 O.3     1  UNL1       -0.4827
     13 N          -0.0724    3.4446   20.4669 N.am    1  UNL1       -0.2863
     14 C           0.5486    2.0887   20.6276 C.2     1  UNL1        0.3047
     15 O          -0.3136    0.8614   20.6050 O.2     1  UNL1       -0.2525
     16 N           2.0318    1.9600   20.8108 N.am    1  UNL1       -0.2683
     17 H           0.4934    4.2500   20.4817 H       1  UNL1        0.1512
     18 H           2.5976    2.7654   20.8257 H       1  UNL1        0.1564
     19 C           2.6527    0.6040   20.9715 C.ar    1  UNL1        0.0516
     20 C           2.7131   -0.0376   22.3260 C.ar    1  UNL1        0.0147
     21 C           3.3341   -1.3935   22.4866 C.ar    1  UNL1        0.0013
     22 C           3.8947   -2.1078   21.2927 C.ar    1  UNL1        0.0016
     23 C           3.8343   -1.4663   19.9382 C.ar    1  UNL1        0.0204
     24 C           4.3949   -2.1807   18.7443 C.ar    1  UNL1        0.0989
     25 N           4.3346   -1.5391   17.3898 N.ar    1  UNL1       -0.2423
     26 C           3.7136   -0.1831   17.2291 C.ar    1  UNL1        0.0989
     27 C           3.1530    0.5312   18.4230 C.ar    1  UNL1        0.0219
     28 C           3.2134   -0.1104   19.7776 C.ar    1  UNL1        0.0166
     29 O          -5.1921    3.4223   25.0537 O.3     1  UNL1       -0.4044
     30 C          -5.1634    4.5394   26.0543 C.3     1  UNL1        0.5753
     31 F          -5.1348    5.6566   27.0550 F       1  UNL1       -0.1328
     32 F          -4.3213    3.6994   26.9681 F       1  UNL1       -0.1328
     33 F          -6.0056    5.3795   25.1405 F       1  UNL1       -0.1328
@<TRIPOS>BOND
     1     1     2    1
     2     2     3    1
     3     2     4    1
     4     4     5    1
     5     5    13    1
     6    13    14   am
     7    14    15    2
     8    14    16   am
     9    16    19    1
    10    19    20   ar
    11    20    21   ar
    12    21    22   ar
    13    22    23   ar
    14    23    24   ar
    15    24    25   ar
    16    25    26   ar
    17    26    27   ar
    18    27    28   ar
    19     5     6    1
    20     6     7   ar
    21     7     8   ar
    22     8     9   ar
    23     9    29    1
    24    29    30    1
    25    30    31    1
    26    30    32    1
    27    30    33    1
    28     9    10   ar
    29    10    11   ar
    30    11    12    1
    31    12     2    1
    32    28    19   ar
    33    11     6   ar
    34    28    23   ar
    35    13    17    1
    36    16    18    1
@<TRIPOS>MOLECULE
*****
 33 36 0 0 0
SMALL
GASTEIGER

@<TRIPOS>ATOM
      1 C          -6.2623    3.6000   18.7982 C.3     1  UNL1        0.0437
      2 C          -4.8211    3.6323   19.2127 C.3     1  UNL1        0.1352
      3 C          -4.6638    3.6615   17.7213 C.3     1  UNL1        0.0437
      4 C          -3.3253    3.6747   19.1093 C.3     1  UNL1        0.0642
      5 C          -2.4872    3.6768   20.3533 C.3     1  UNL1        0.1019
      6 C          -3.1450    3.6364   21.7008 C.ar    1  UNL1        0.0298
      7 C          -2.3069    3.6384   22.9448 C.ar    1  UNL1        0.0034
      8 C          -2.9647    3.5981   24.2923 C.ar    1  UNL1        0.0371
      9 C          -4.4605    3.5557   24.3957 C.ar    1  UNL1        0.1498
     10 C          -5.2985    3.5536   23.1517 C.ar    1  UNL1        0.0738
     11 C          -4.6408    3.5940   21.8043 C.ar    1  UNL1        0.1387
     12 O          -5.4789    3.5919   20.5602 O.3     1  UNL1       -0.4827
     13 N          -0.9914    3.7192   20.2499 N.am    1  UNL1       -0.2863
     14 C          -0.2035    2.4428   20.2435 C.2     1  UNL1        0.3047
     15 O          -0.9115    1.1239   20.3407 O.2     1  UNL1       -0.2525
     16 N           1.2923    2.4852   20.1401 N.am    1  UNL1       -0.2683
     17 H          -0.5267    4.5848   20.1861 H       1  UNL1        0.1512
     18 H           1.7570    3.3508   20.0763 H       1  UNL1        0.1564
     19 C           2.0802    1.2087   20.1338 C.ar    1  UNL1        0.0516
     20 C           2.5143    0.6018   18.8326 C.ar    1  UNL1        0.0147
     21 C           3.3021   -0.6747   18.8264 C.ar    1  UNL1        0.0013
     22 C           3.6558   -1.3441   20.1213 C.ar    1  UNL1        0.0016
     23 C           3.2217   -0.7371   21.4224 C.ar    1  UNL1        0.0204
     24 C           3.5754   -1.4065   22.7173 C.ar    1  UNL1        0.0989
     25 N           3.1413   -0.7995   24.0185 N.ar    1  UNL1       -0.2423
     26 C           2.3534    0.4770   24.0248 C.ar    1  UNL1        0.0989
     27 C           1.9997    1.1464   22.7299 C.ar    1  UNL1        0.0219
     28 C           2.4339    0.5393   21.4287 C.ar    1  UNL1        0.0166
     29 O          -5.1182    3.5153   25.7433 O.3     1  UNL1       -0.4044
     30 C          -5.1243    4.7382   26.6118 C.3     1  UNL1        0.5753
     31 F          -5.1304    5.9612   27.4804 F       1  UNL1       -0.1328
     32 F          -3.9395    4.2095   27.3645 F       1  UNL1       -0.1328
     33 F          -6.3092    5.2669   25.8591 F       1  UNL1       -0.1328
@<TRIPOS>BOND
     1     1     2    1
     2     2     3    1
     3     2     4    1
     4     4     5    1
     5     5    13    1
     6    13    14   am
     7    14    15    2
     8    14    16   am
     9    16    19    1
    10    19    20   ar
    11    20    21   ar
    12    21    22   ar
    13    22    23   ar
    14    23    24   ar
    15    24    25   ar
    16    25    26   ar
    17    26    27   ar
    18    27    28   ar
    19     5     6    1
    20     6     7   ar
    21     7     8   ar
    22     8     9   ar
    23     9    29    1
    24    29    30    1
    25    30    31    1
    26    30    32    1
    27    30    33    1
    28     9    10   ar
    29    10    11   ar
    30    11    12    1
    31    12     2    1
    32    28    19   ar
    33    11     6   ar
    34    28    23   ar
    35    13    17    1
    36    16    18    1
@<TRIPOS>MOLECULE
*****
 33 36 0 0 0
SMALL
GASTEIGER

@<TRIPOS>ATOM
      1 C           8.1717   -8.0416   25.8478 C.3     1  UNL1        0.0437
      2 C           7.8707   -6.5963   25.5825 C.3     1  UNL1        0.1352
      3 C           8.1811   -7.0577   24.1894 C.3     1  UNL1        0.0437
      4 C           7.6775   -5.3112   24.8333 C.3     1  UNL1        0.0642
      5 C           7.2785   -4.0667   25.5694 C.3     1  UNL1        0.1019
      6 C           7.0727   -4.1072   27.0547 C.ar    1  UNL1        0.0298
      7 C           6.6736   -2.8626   27.7907 C.ar    1  UNL1        0.0034
      8 C           6.4678   -2.9031   29.2759 C.ar    1  UNL1        0.0371
      9 C           6.6610   -4.1882   30.0251 C.ar    1  UNL1        0.1498
     10 C           7.0600   -5.4327   29.2891 C.ar    1  UNL1        0.0738
     11 C           7.2659   -5.3922   27.8038 C.ar    1  UNL1        0.1387
     12 O           7.6649   -6.6368   27.0677 O.3     1  UNL1       -0.4827
     13 N           7.0853   -2.7816   24.8202 N.am    1  UNL1       -0.2863
     14 C           6.0523   -2.6934   23.7362 C.2     1  UNL1        0.3047
     15 O           5.2123   -3.8903   23.4014 O.2     1  UNL1       -0.2525
     16 N           5.8591   -1.4083   22.9871 N.am    1  UNL1       -0.2683
     17 H           7.6365   -1.9961   25.0399 H       1  UNL1        0.1512
     18 H           6.4103   -0.6228   23.2068 H       1  UNL1        0.1564
     19 C           4.8260   -1.3202   21.9031 C.ar    1  UNL1        0.0516
     20 C           3.4162   -0.9345   22.2402 C.ar    1  UNL1        0.0147
     21 C           2.3832   -0.8463   21.1562 C.ar    1  UNL1        0.0013
     22 C           2.7599   -1.1439   19.7351 C.ar    1  UNL1        0.0016
     23 C           4.1697   -1.5296   19.3980 C.ar    1  UNL1        0.0204
     24 C           4.5464   -1.8272   17.9769 C.ar    1  UNL1        0.0989
     25 N           5.9562   -2.2129   17.6398 N.ar    1  UNL1       -0.2423
     26 C           6.9893   -2.3011   18.7238 C.ar    1  UNL1        0.0989
     27 C           6.6126   -2.0035   20.1449 C.ar    1  UNL1        0.0219
     28 C           5.2027   -1.6177   20.4820 C.ar    1  UNL1        0.0166
     29 O           6.4552   -4.2287   31.5104 O.3     1  UNL1       -0.4044
     30 C           6.5381   -2.9647   32.3138 C.3     1  UNL1        0.5753
     31 F           6.6210   -1.7006   33.1172 F       1  UNL1       -0.1328
     32 F           5.0413   -2.8672   32.3150 F       1  UNL1       -0.1328
     33 F           8.0349   -3.0621   32.3126 F       1  UNL1       -0.1328
@<TRIPOS>BOND
     1     1     2    1
     2     2     3    1
     3     2     4    1
     4     4     5    1
     5     5    13    1
     6    13    14   am
     7    14    15    2
     8    14    16   am
     9    16    19    1
    10    19    20   ar
    11    20    21   ar
    12    21    22   ar
    13    22    23   ar
    14    23    24   ar
    15    24    25   ar
    16    25    26   ar
    17    26    27   ar
    18    27    28   ar
    19     5     6    1
    20     6     7   ar
    21     7     8   ar
    22     8     9   ar
    23     9    29    1
    24    29    30    1
    25    30    31    1
    26    30    32    1
    27    30    33    1
    28     9    10   ar
    29    10    11   ar
    30    11    12    1
    31    12     2    1
    32    28    19   ar
    33    11     6   ar
    34    28    23   ar
    35    13    17    1
    36    16    18    1
@<TRIPOS>MOLECULE
*****
 33 36 0 0 0
SMALL
GASTEIGER

@<TRIPOS>ATOM
      1 C           4.4762   -1.6702   25.6367 C.3     1  UNL1        0.0437
      2 C           3.5938   -0.7124   24.8926 C.3     1  UNL1        0.1352
      3 C           3.5048   -0.1304   26.2722 C.3     1  UNL1        0.0437
      4 C           2.6805    0.4477   24.6276 C.3     1  UNL1        0.0642
      5 C           2.1626    0.6931   23.2414 C.3     1  UNL1        0.1019
      6 C           2.5581   -0.2216   22.1201 C.ar    1  UNL1        0.0298
      7 C           2.0402    0.0238   20.7340 C.ar    1  UNL1        0.0034
      8 C           2.4357   -0.8908   19.6128 C.ar    1  UNL1        0.0371
      9 C           3.3490   -2.0508   19.8778 C.ar    1  UNL1        0.1498
     10 C           3.8668   -2.2962   21.2640 C.ar    1  UNL1        0.0738
     11 C           3.4714   -1.3816   22.3852 C.ar    1  UNL1        0.1387
     12 O           3.9892   -1.6270   23.7714 O.3     1  UNL1       -0.4827
     13 N           1.2493    1.8531   22.9764 N.am    1  UNL1       -0.2863
     14 C           0.0619    2.0902   23.8617 C.2     1  UNL1        0.3047
     15 O          -0.2123    1.1674   25.0120 O.2     1  UNL1       -0.2525
     16 N          -0.8515    3.2502   23.5966 N.am    1  UNL1       -0.2683
     17 H           1.4292    2.4587   22.2214 H       1  UNL1        0.1512
     18 H          -0.6715    3.8559   22.8417 H       1  UNL1        0.1564
     19 C          -2.0389    3.4874   24.4820 C.ar    1  UNL1        0.0516
     20 C          -1.8616    3.5668   25.9693 C.ar    1  UNL1        0.0147
     21 C          -3.0490    3.8039   26.8546 C.ar    1  UNL1        0.0013
     22 C          -4.4138    3.9617   26.2525 C.ar    1  UNL1        0.0016
     23 C          -4.5911    3.8823   24.7652 C.ar    1  UNL1        0.0204
     24 C          -5.9559    4.0400   24.1631 C.ar    1  UNL1        0.0989
     25 N          -6.1333    3.9606   22.6758 N.ar    1  UNL1       -0.2423
     26 C          -4.9458    3.7235   21.7904 C.ar    1  UNL1        0.0989
     27 C          -3.5810    3.5657   22.3925 C.ar    1  UNL1        0.0219
     28 C          -3.4037    3.6451   23.8799 C.ar    1  UNL1        0.0166
     29 O           3.7444   -2.9654   18.7566 O.3     1  UNL1       -0.4044
     30 C           3.9230   -4.4325   19.0129 C.3     1  UNL1        0.5753
     31 F           4.1016   -5.8996   19.2692 F       1  UNL1       -0.1328
     32 F           2.4351   -4.6193   18.9807 F       1  UNL1       -0.1328
     33 F           5.4110   -4.2457   19.0451 F       1  UNL1       -0.1328
@<TRIPOS>BOND
     1     1     2    1
     2     2     3    1
     3     2     4    1
     4     4     5    1
     5     5    13    1
     6    13    14   am
     7    14    15    2
     8    14    16   am
     9    16    19    1
    10    19    20   ar
    11    20    21   ar
    12    21    22   ar
    13    22    23   ar
    14    23    24   ar
    15    24    25   ar
    16    25    26   ar
    17    26    27   ar
    18    27    28   ar
    19     5     6    1
    20     6     7   ar
    21     7     8   ar
    22     8     9   ar
    23     9    29    1
    24    29    30    1
    25    30    31    1
    26    30    32    1
    27    30    33    1
    28     9    10   ar
    29    10    11   ar
    30    11    12    1
    31    12     2    1
    32    28    19   ar
    33    11     6   ar
    34    28    23   ar
    35    13    17    1
    36    16    18    1
@<TRIPOS>MOLECULE
*****
 33 36 0 0 0
SMALL
GASTEIGER

@<TRIPOS>ATOM
      1 C           1.5544    0.9074   23.3121 C.3     1  UNL1        0.0437
      2 C           2.7833    0.4775   24.0569 C.3     1  UNL1        0.1352
      3 C           2.3613    1.6431   24.9015 C.3     1  UNL1        0.0437
      4 C           3.8657    0.4524   25.0951 C.3     1  UNL1        0.0642
      5 C           4.9433   -0.5889   25.0300 C.3     1  UNL1        0.1019
      6 C           4.9386   -1.6052   23.9267 C.ar    1  UNL1        0.0298
      7 C           6.0162   -2.6466   23.8616 C.ar    1  UNL1        0.0034
      8 C           6.0115   -3.6628   22.7583 C.ar    1  UNL1        0.0371
      9 C           4.9291   -3.6376   21.7201 C.ar    1  UNL1        0.1498
     10 C           3.8515   -2.5963   21.7852 C.ar    1  UNL1        0.0738
     11 C           3.8562   -1.5801   22.8885 C.ar    1  UNL1        0.1387
     12 O           2.7785   -0.5387   22.9536 O.3     1  UNL1       -0.4827
     13 N           6.0257   -0.6141   26.0682 N.am    1  UNL1       -0.2863
     14 C           5.7932   -1.3083   27.3774 C.2     1  UNL1        0.3047
     15 O           4.4783   -1.9774   27.6484 O.2     1  UNL1       -0.2525
     16 N           6.8756   -1.3334   28.4155 N.am    1  UNL1       -0.2683
     17 H           6.8887   -0.1749   25.8903 H       1  UNL1        0.1512
     18 H           7.7386   -0.8943   28.2377 H       1  UNL1        0.1564
     19 C           6.6431   -2.0277   29.7248 C.ar    1  UNL1        0.0516
     20 C           6.0340   -1.2790   30.8730 C.ar    1  UNL1        0.0147
     21 C           5.8016   -1.9732   32.1821 C.ar    1  UNL1        0.0013
     22 C           6.1781   -3.4163   32.3430 C.ar    1  UNL1        0.0016
     23 C           6.7872   -4.1650   31.1948 C.ar    1  UNL1        0.0204
     24 C           7.1637   -5.6080   31.3558 C.ar    1  UNL1        0.0989
     25 N           7.7728   -6.3568   30.2076 N.ar    1  UNL1       -0.2423
     26 C           8.0053   -5.6625   28.8984 C.ar    1  UNL1        0.0989
     27 C           7.6287   -4.2195   28.7374 C.ar    1  UNL1        0.0219
     28 C           7.0197   -3.4707   29.8857 C.ar    1  UNL1        0.0166
     29 O           4.9244   -4.6539   20.6168 O.3     1  UNL1       -0.4044
     30 C           3.7901   -4.6908   19.6360 C.3     1  UNL1        0.5753
     31 F           2.6558   -4.7277   18.6551 F       1  UNL1       -0.1328
     32 F           4.4572   -3.6203   18.8243 F       1  UNL1       -0.1328
     33 F           3.1230   -5.7613   20.4477 F       1  UNL1       -0.1328
@<TRIPOS>BOND
     1     1     2    1
     2     2     3    1
     3     2     4    1
     4     4     5    1
     5     5    13    1
     6    13    14   am
     7    14    15    2
     8    14    16   am
     9    16    19    1
    10    19    20   ar
    11    20    21   ar
    12    21    22   ar
    13    22    23   ar
    14    23    24   ar
    15    24    25   ar
    16    25    26   ar
    17    26    27   ar
    18    27    28   ar
    19     5     6    1
    20     6     7   ar
    21     7     8   ar
    22     8     9   ar
    23     9    29    1
    24    29    30    1
    25    30    31    1
    26    30    32    1
    27    30    33    1
    28     9    10   ar
    29    10    11   ar
    30    11    12    1
    31    12     2    1
    32    28    19   ar
    33    11     6   ar
    34    28    23   ar
    35    13    17    1
    36    16    18    1
@<TRIPOS>MOLECULE
*****
 33 36 0 0 0
SMALL
GASTEIGER

@<TRIPOS>ATOM
      1 C           7.2807   -5.1996   25.3588 C.3     1  UNL1        0.0437
      2 C           6.6288   -3.8505   25.4280 C.3     1  UNL1        0.1352
      3 C           7.3040   -3.8824   26.7670 C.3     1  UNL1        0.0437
      4 C           6.2114   -2.5124   25.9622 C.3     1  UNL1        0.0642
      5 C           5.3452   -1.6110   25.1333 C.3     1  UNL1        0.1019
      6 C           4.8964   -2.0475   23.7702 C.ar    1  UNL1        0.0298
      7 C           4.0302   -1.1461   22.9414 C.ar    1  UNL1        0.0034
      8 C           3.5814   -1.5827   21.5783 C.ar    1  UNL1        0.0371
      9 C           3.9988   -2.9207   21.0441 C.ar    1  UNL1        0.1498
     10 C           4.8650   -3.8222   21.8729 C.ar    1  UNL1        0.0738
     11 C           5.3138   -3.3856   23.2360 C.ar    1  UNL1        0.1387
     12 O           6.1801   -4.2871   24.0649 O.3     1  UNL1       -0.4827
     13 N           4.9277   -0.2729   25.6676 N.am    1  UNL1       -0.2863
     14 C           3.8548   -0.1839   26.7120 C.2     1  UNL1        0.3047
     15 O           3.1993   -1.4329   27.2223 O.2     1  UNL1       -0.2525
     16 N           3.4374    1.1542   27.2462 N.am    1  UNL1       -0.2683
     17 H           5.3580    0.5468   25.3327 H       1  UNL1        0.1512
     18 H           3.8676    1.9739   26.9113 H       1  UNL1        0.1564
     19 C           2.3644    1.2432   28.2907 C.ar    1  UNL1        0.0516
     20 C           0.9202    1.2082   27.8872 C.ar    1  UNL1        0.0147
     21 C          -0.1527    1.2972   28.9316 C.ar    1  UNL1        0.0013
     22 C           0.2186    1.4212   30.3796 C.ar    1  UNL1        0.0016
     23 C           1.6629    1.4562   30.7832 C.ar    1  UNL1        0.0204
     24 C           2.0342    1.5801   32.2312 C.ar    1  UNL1        0.0989
     25 N           3.4785    1.6151   32.6347 N.ar    1  UNL1       -0.2423
     26 C           4.5515    1.5260   31.5902 C.ar    1  UNL1        0.0989
     27 C           4.1801    1.4021   30.1422 C.ar    1  UNL1        0.0219
     28 C           2.7358    1.3671   29.7387 C.ar    1  UNL1        0.0166
     29 O           3.5500   -3.3573   19.6810 O.3     1  UNL1       -0.4044
     30 C           4.1622   -4.5684   19.0419 C.3     1  UNL1        0.5753
     31 F           4.7744   -5.7796   18.4029 F       1  UNL1       -0.1328
     32 F           3.1161   -5.4337   19.6798 F       1  UNL1       -0.1328
     33 F           5.2083   -3.7031   18.4041 F       1  UNL1       -0.1328
@<TRIPOS>BOND
     1     1     2    1
     2     2     3    1
     3     2     4    1
     4     4     5    1
     5     5    13    1
     6    13    14   am
     7    14    15    2
     8    14    16   am
     9    16    19    1
    10    19    20   ar
    11    20    21   ar
    12    21    22   ar
    13    22    23   ar
    14    23    24   ar
    15    24    25   ar
    16    25    26   ar
    17    26    27   ar
    18    27    28   ar
    19     5     6    1
    20     6     7   ar
    21     7     8   ar
    22     8     9   ar
    23     9    29    1
    24    29    30    1
    25    30    31    1
    26    30    32    1
    27    30    33    1
    28     9    10   ar
    29    10    11   ar
    30    11    12    1
    31    12     2    1
    32    28    19   ar
    33    11     6   ar
    34    28    23   ar
    35    13    17    1
    36    16    18    1
@<TRIPOS>MOLECULE
*****
 33 36 0 0 0
SMALL
GASTEIGER

@<TRIPOS>ATOM
      1 C           7.5528   -5.4881   25.2490 C.3     1  UNL1        0.0437
      2 C           6.9604   -4.1158   25.3746 C.3     1  UNL1        0.1352
      3 C           7.6728   -4.2134   26.6910 C.3     1  UNL1        0.0437
      4 C           6.6154   -2.7774   25.9574 C.3     1  UNL1        0.0642
      5 C           5.7638   -1.8179   25.1802 C.3     1  UNL1        0.1019
      6 C           5.2571   -2.1969   23.8201 C.ar    1  UNL1        0.0298
      7 C           4.4055   -1.2374   23.0428 C.ar    1  UNL1        0.0034
      8 C           3.8988   -1.6164   21.6828 C.ar    1  UNL1        0.0371
      9 C           4.2438   -2.9548   21.1001 C.ar    1  UNL1        0.1498
     10 C           5.0955   -3.9142   21.8773 C.ar    1  UNL1        0.0738
     11 C           5.6021   -3.5353   23.2373 C.ar    1  UNL1        0.1387
     12 O           6.4538   -4.4948   24.0146 O.3     1  UNL1       -0.4827
     13 N           5.4188   -0.4795   25.7629 N.am    1  UNL1       -0.2863
     14 C           4.1901   -0.3242   26.6092 C.2     1  UNL1        0.3047
     15 O           3.3063   -1.5072   26.8727 O.2     1  UNL1       -0.2525
     16 N           3.8451    1.0143   27.1919 N.am    1  UNL1       -0.2683
     17 H           5.9988    0.2970   25.5900 H       1  UNL1        0.1512
     18 H           4.4251    1.7907   27.0190 H       1  UNL1        0.1564
     19 C           2.6163    1.1696   28.0382 C.ar    1  UNL1        0.0516
     20 C           2.6987    0.9739   29.5231 C.ar    1  UNL1        0.0147
     21 C           1.4700    1.1292   30.3693 C.ar    1  UNL1        0.0013
     22 C           0.1589    1.4802   29.7306 C.ar    1  UNL1        0.0016
     23 C           0.0766    1.6759   28.2457 C.ar    1  UNL1        0.0204
     24 C          -1.2345    2.0269   27.6070 C.ar    1  UNL1        0.0989
     25 N          -1.3168    2.2226   26.1222 N.ar    1  UNL1       -0.2423
     26 C          -0.0881    2.0673   25.2759 C.ar    1  UNL1        0.0989
     27 C           1.2230    1.7163   25.9146 C.ar    1  UNL1        0.0219
     28 C           1.3053    1.5206   27.3995 C.ar    1  UNL1        0.0166
     29 O           3.7372   -3.3337   19.7400 O.3     1  UNL1       -0.4044
     30 C           4.2844   -4.5461   19.0467 C.3     1  UNL1        0.5753
     31 F           4.8315   -5.7586   18.3535 F       1  UNL1       -0.1328
     32 F           3.1631   -5.3714   19.6051 F       1  UNL1       -0.1328
     33 F           5.4056   -3.7208   18.4884 F       1  UNL1       -0.1328
@<TRIPOS>BOND
     1     1     2    1
     2     2     3    1
     3     2     4    1
     4     4     5    1
     5     5    13    1
     6    13    14   am
     7    14    15    2
     8    14    16   am
     9    16    19    1
    10    19    20   ar
    11    20    21   ar
    12    21    22   ar
    13    22    23   ar
    14    23    24   ar
    15    24    25   ar
    16    25    26   ar
    17    26    27   ar
    18    27    28   ar
    19     5     6    1
    20     6     7   ar
    21     7     8   ar
    22     8     9   ar
    23     9    29    1
    24    29    30    1
    25    30    31    1
    26    30    32    1
    27    30    33    1
    28     9    10   ar
    29    10    11   ar
    30    11    12    1
    31    12     2    1
    32    28    19   ar
    33    11     6   ar
    34    28    23   ar
    35    13    17    1
    36    16    18    1
@<TRIPOS>MOLECULE
*****
 33 36 0 0 0
SMALL
GASTEIGER

@<TRIPOS>ATOM
      1 C           2.8633    4.6437   17.6773 C.3     1  UNL1        0.0437
      2 C           1.8197    3.9383   18.4916 C.3     1  UNL1        0.1352
      3 C           1.2405    5.3218   18.4681 C.3     1  UNL1        0.0437
      4 C           0.5748    3.7133   19.2977 C.3     1  UNL1        0.0642
      5 C           0.2716    2.3499   19.8445 C.3     1  UNL1        0.1019
      6 C           1.2132    1.2114   19.5852 C.ar    1  UNL1        0.0298
      7 C           0.9099   -0.1521   20.1320 C.ar    1  UNL1        0.0034
      8 C           1.8515   -1.2905   19.8728 C.ar    1  UNL1        0.0371
      9 C           3.0963   -1.0656   19.0666 C.ar    1  UNL1        0.1498
     10 C           3.3996    0.2979   18.5198 C.ar    1  UNL1        0.0738
     11 C           2.4580    1.4363   18.7791 C.ar    1  UNL1        0.1387
     12 O           2.7612    2.7998   18.2323 O.3     1  UNL1       -0.4827
     13 N          -0.9732    2.1250   20.6506 N.am    1  UNL1       -0.2863
     14 C          -2.2141    2.9121   20.3497 C.2     1  UNL1        0.3047
     15 O          -2.2102    3.9244   19.2427 O.2     1  UNL1       -0.2525
     16 N          -3.4589    2.6872   21.1558 N.am    1  UNL1       -0.2683
     17 H          -0.9758    1.4606   21.3772 H       1  UNL1        0.1512
     18 H          -3.4615    2.0229   21.8824 H       1  UNL1        0.1564
     19 C          -4.6998    3.4744   20.8549 C.ar    1  UNL1        0.0516
     20 C          -5.1114    3.7108   19.4320 C.ar    1  UNL1        0.0147
     21 C          -6.3522    4.4981   19.1311 C.ar    1  UNL1        0.0013
     22 C          -7.1815    5.0489   20.2531 C.ar    1  UNL1        0.0016
     23 C          -6.7699    4.8125   21.6760 C.ar    1  UNL1        0.0204
     24 C          -7.5992    5.3633   22.7980 C.ar    1  UNL1        0.0989
     25 N          -7.1876    5.1269   24.2209 N.ar    1  UNL1       -0.2423
     26 C          -5.9467    4.3396   24.5219 C.ar    1  UNL1        0.0989
     27 C          -5.1174    3.7888   23.3999 C.ar    1  UNL1        0.0219
     28 C          -5.5291    4.0252   21.9769 C.ar    1  UNL1        0.0166
     29 O           4.0379   -2.2041   18.8074 O.3     1  UNL1       -0.4044
     30 C           3.9784   -3.4359   19.6612 C.3     1  UNL1        0.5753
     31 F           3.9190   -4.6677   20.5152 F       1  UNL1       -0.1328
     32 F           4.7910   -2.7443   20.7155 F       1  UNL1       -0.1328
     33 F           3.1659   -4.1275   18.6070 F       1  UNL1       -0.1328
@<TRIPOS>BOND
     1     1     2    1
     2     2     3    1
     3     2     4    1
     4     4     5    1
     5     5    13    1
     6    13    14   am
     7    14    15    2
     8    14    16   am
     9    16    19    1
    10    19    20   ar
    11    20    21   ar
    12    21    22   ar
    13    22    23   ar
    14    23    24   ar
    15    24    25   ar
    16    25    26   ar
    17    26    27   ar
    18    27    28   ar
    19     5     6    1
    20     6     7   ar
    21     7     8   ar
    22     8     9   ar
    23     9    29    1
    24    29    30    1
    25    30    31    1
    26    30    32    1
    27    30    33    1
    28     9    10   ar
    29    10    11   ar
    30    11    12    1
    31    12     2    1
    32    28    19   ar
    33    11     6   ar
    34    28    23   ar
    35    13    17    1
    36    16    18    1
