@<TRIPOS>MOLECULE
*****
 32 35 0 0 0
SMALL
GASTEIGER

@<TRIPOS>ATOM
      1 C          -5.2093  -19.9515   21.0145 C.ar    1  UNL1        0.1773
      2 C          -5.6167  -18.7270   20.2499 C.ar    1  UNL1        0.1402
      3 N          -6.9823  -18.1391   20.4479 N.ar    1  UNL1       -0.2089
      4 C          -7.9405  -18.7755   21.4106 C.ar    1  UNL1        0.2205
      5 N          -7.5331  -20.0000   22.1752 N.ar    1  UNL1       -0.2089
      6 C          -6.1675  -20.5880   21.9772 C.ar    1  UNL1        0.1402
      7 N          -9.3062  -18.1875   21.6086 N.pl3   1  UNL1       -0.2748
      8 C         -10.5060  -18.8584   21.0082 C.3     1  UNL1        0.1135
      9 C         -11.8716  -18.2703   21.2062 C.3     1  UNL1        0.0984
     10 C         -12.9860  -17.3668   21.6442 C.3     1  UNL1        0.0234
     11 C         -12.3891  -16.2527   22.4519 C.3     1  UNL1        0.0234
     12 C         -10.9058  -16.4676   22.5131 C.3     1  UNL1        0.0984
     13 C          -9.4722  -16.9286   22.4072 C.3     1  UNL1        0.1135
     14 N         -10.5860  -17.7146   21.7433 N.am    1  UNL1       -0.2459
     15 C          -9.2204  -18.3027   21.5452 C.2     1  UNL1        0.4051
     16 O          -8.0206  -17.6318   22.1456 O.2     1  UNL1       -0.2262
     17 O          -9.0544  -19.5616   20.7466 O.3     1  UNL1       -0.4252
     18 C          -8.9251  -19.4912   19.2540 C.3     1  UNL1        0.3125
     19 C          -8.9246  -20.7518   18.4409 C.3     1  UNL1        0.4382
     20 F          -8.9241  -22.0124   17.6279 F       1  UNL1       -0.1663
     21 F         -10.2555  -20.3773   17.8594 F       1  UNL1       -0.1663
     22 F          -7.5936  -21.1263   19.0225 F       1  UNL1       -0.1663
     23 O          -3.8436  -20.5396   20.8165 O.3     1  UNL1       -0.4675
     24 C          -2.6835  -20.0287   21.6184 C.3     1  UNL1        0.2329
     25 C          -2.3474  -17.4633   21.8546 C.ar    1  UNL1        0.0871
     26 C          -1.6489  -16.2013   21.4431 C.ar    1  UNL1        0.1089
     27 N          -0.5877  -16.2428   20.3837 N.ar    1  UNL1       -0.2416
     28 C          -0.2252  -17.5462   19.7359 C.ar    1  UNL1        0.0987
     29 C          -0.9237  -18.8082   20.1475 C.ar    1  UNL1        0.0207
     30 C          -1.9849  -18.7667   21.2068 C.ar    1  UNL1        0.0339
     31 N          -4.4698  -17.3804   23.9733 N.1     1  UNL1       -0.1908
     32 C          -3.4086  -17.4218   22.9140 C.1     1  UNL1        0.1018
@<TRIPOS>BOND
     1    31    32    3
     2    32    25    1
     3    25    26   ar
     4    26    27   ar
     5    27    28   ar
     6    28    29   ar
     7    29    30   ar
     8    30    24    1
     9    24    23    1
    10    23     1    1
    11     1     2   ar
    12     2     3   ar
    13     3     4   ar
    14     4     7    1
    15     7     8    1
    16     8     9    1
    17     9    10    1
    18    10    11    1
    19    11    12    1
    20    12    13    1
    21    12    14    1
    22    14    15   am
    23    15    16    2
    24    15    17    1
    25    17    18    1
    26    18    19    1
    27    19    20    1
    28    19    21    1
    29    19    22    1
    30     4     5   ar
    31     5     6   ar
    32    30    25   ar
    33     6     1   ar
    34    13     7    1
    35    14     9    1
@<TRIPOS>MOLECULE
*****
 32 35 0 0 0
SMALL
GASTEIGER

@<TRIPOS>ATOM
      1 C          -7.0435  -18.8691   20.6626 C.ar    1  UNL1        0.1773
      2 C          -8.2906  -19.5050   20.1236 C.ar    1  UNL1        0.1402
      3 N          -9.5760  -19.4028   20.8898 N.ar    1  UNL1       -0.2089
      4 C          -9.6144  -18.6646   22.1951 C.ar    1  UNL1        0.2205
      5 N          -8.3673  -18.0288   22.7341 N.ar    1  UNL1       -0.2089
      6 C          -7.0819  -18.1310   21.9678 C.ar    1  UNL1        0.1402
      7 N         -10.8999  -18.5624   22.9614 N.pl3   1  UNL1       -0.2748
      8 C         -12.0975  -17.9130   22.3337 C.3     1  UNL1        0.1135
      9 C         -13.3830  -17.8108   23.1001 C.3     1  UNL1        0.0984
     10 C         -14.4075  -17.9270   24.1895 C.3     1  UNL1        0.0234
     11 C         -13.7666  -18.6178   25.3566 C.3     1  UNL1        0.0234
     12 C         -12.3461  -18.9285   24.9885 C.3     1  UNL1        0.0984
     13 C         -10.9876  -19.1095   24.3553 C.3     1  UNL1        0.1135
     14 N         -12.1090  -18.4298   23.5938 N.am    1  UNL1       -0.2459
     15 C         -10.8235  -18.5320   22.8275 C.2     1  UNL1        0.4051
     16 O          -9.6259  -19.1813   23.4551 O.2     1  UNL1       -0.2262
     17 O         -10.7358  -17.9849   21.4336 O.3     1  UNL1       -0.4252
     18 C         -10.4431  -16.5299   21.2161 C.3     1  UNL1        0.3125
     19 C         -10.8017  -15.8794   19.9130 C.3     1  UNL1        0.4382
     20 F         -11.1604  -15.2289   18.6098 F       1  UNL1       -0.1663
     21 F         -10.0742  -14.6368   20.3330 F       1  UNL1       -0.1663
     22 F         -11.5294  -17.1220   19.4930 F       1  UNL1       -0.1663
     23 O          -5.7581  -18.9714   19.8964 O.3     1  UNL1       -0.4675
     24 C          -4.4971  -19.3811   20.5980 C.3     1  UNL1        0.2329
     25 C          -2.6852  -17.8001   21.5815 C.ar    1  UNL1        0.0871
     26 C          -1.4337  -16.9918   21.4079 C.ar    1  UNL1        0.1089
     27 N          -0.7424  -16.9562   20.0772 N.ar    1  UNL1       -0.2416
     28 C          -1.3027  -17.7288   18.9200 C.ar    1  UNL1        0.0987
     29 C          -2.5543  -18.5371   19.0936 C.ar    1  UNL1        0.0207
     30 C          -3.2455  -18.5728   20.4243 C.ar    1  UNL1        0.0339
     31 N          -4.0677  -17.8714   24.2430 N.1     1  UNL1       -0.1908
     32 C          -3.3765  -17.8358   22.9122 C.1     1  UNL1        0.1018
@<TRIPOS>BOND
     1    31    32    3
     2    32    25    1
     3    25    26   ar
     4    26    27   ar
     5    27    28   ar
     6    28    29   ar
     7    29    30   ar
     8    30    24    1
     9    24    23    1
    10    23     1    1
    11     1     2   ar
    12     2     3   ar
    13     3     4   ar
    14     4     7    1
    15     7     8    1
    16     8     9    1
    17     9    10    1
    18    10    11    1
    19    11    12    1
    20    12    13    1
    21    12    14    1
    22    14    15   am
    23    15    16    2
    24    15    17    1
    25    17    18    1
    26    18    19    1
    27    19    20    1
    28    19    21    1
    29    19    22    1
    30     4     5   ar
    31     5     6   ar
    32    30    25   ar
    33     6     1   ar
    34    13     7    1
    35    14     9    1
@<TRIPOS>MOLECULE
*****
 32 35 0 0 0
SMALL
GASTEIGER

@<TRIPOS>ATOM
      1 C          -5.7776  -20.2191   20.7648 C.ar    1  UNL1        0.1773
      2 C          -6.4044  -19.2617   19.7949 C.ar    1  UNL1        0.1402
      3 N          -7.7211  -18.6206   20.1189 N.ar    1  UNL1       -0.2089
      4 C          -8.4111  -18.9367   21.4126 C.ar    1  UNL1        0.2205
      5 N          -7.7844  -19.8941   22.3825 N.ar    1  UNL1       -0.2089
      6 C          -6.4677  -20.5353   22.0586 C.ar    1  UNL1        0.1402
      7 N          -9.7280  -18.2955   21.7366 N.pl3   1  UNL1       -0.2748
      8 C          -9.7716  -16.8794   22.2294 C.3     1  UNL1        0.1135
      9 C         -11.0884  -16.2383   22.5533 C.3     1  UNL1        0.0984
     10 C         -12.5601  -16.0194   22.7434 C.3     1  UNL1        0.0234
     11 C         -13.2700  -17.2843   22.3614 C.3     1  UNL1        0.0234
     12 C         -12.2370  -18.2850   21.9352 C.3     1  UNL1        0.0984
     13 C         -11.0012  -19.0704   21.5677 C.3     1  UNL1        0.1135
     14 N         -10.8887  -17.6385   22.0539 N.am    1  UNL1       -0.2459
     15 C          -9.5719  -18.2797   21.7299 C.2     1  UNL1        0.4051
     16 O          -9.5283  -19.6957   21.2371 O.2     1  UNL1       -0.2262
     17 O          -8.2987  -17.5048   21.8988 O.3     1  UNL1       -0.4252
     18 C          -7.8222  -17.1352   23.2722 C.3     1  UNL1        0.3125
     19 C          -6.5927  -16.2922   23.4379 C.3     1  UNL1        0.4382
     20 F          -5.3631  -15.4492   23.6037 F       1  UNL1       -0.1663
     21 F          -7.4400  -15.1499   23.9145 F       1  UNL1       -0.1663
     22 F          -5.7453  -17.4345   22.9614 F       1  UNL1       -0.1663
     23 O          -4.4609  -20.8603   20.4409 O.3     1  UNL1       -0.4675
     24 C          -3.3225  -20.0231   19.9378 C.3     1  UNL1        0.2329
     25 C          -2.0935  -17.7374   20.0598 C.ar    1  UNL1        0.0871
     26 C          -1.6206  -16.5577   20.8563 C.ar    1  UNL1        0.1089
     27 N          -1.9040  -16.4838   22.3275 N.ar    1  UNL1       -0.2416
     28 C          -2.6602  -17.5898   23.0020 C.ar    1  UNL1        0.0987
     29 C          -3.1330  -18.7695   22.2055 C.ar    1  UNL1        0.0207
     30 C          -2.8496  -18.8434   20.7344 C.ar    1  UNL1        0.0339
     31 N          -1.5267  -17.8851   17.1175 N.1     1  UNL1       -0.1908
     32 C          -1.8101  -17.8113   18.5887 C.1     1  UNL1        0.1018
@<TRIPOS>BOND
     1    31    32    3
     2    32    25    1
     3    25    26   ar
     4    26    27   ar
     5    27    28   ar
     6    28    29   ar
     7    29    30   ar
     8    30    24    1
     9    24    23    1
    10    23     1    1
    11     1     2   ar
    12     2     3   ar
    13     3     4   ar
    14     4     7    1
    15     7     8    1
    16     8     9    1
    17     9    10    1
    18    10    11    1
    19    11    12    1
    20    12    13    1
    21    12    14    1
    22    14    15   am
    23    15    16    2
    24    15    17    1
    25    17    18    1
    26    18    19    1
    27    19    20    1
    28    19    21    1
    29    19    22    1
    30     4     5   ar
    31     5     6   ar
    32    30    25   ar
    33     6     1   ar
    34    13     7    1
    35    14     9    1
@<TRIPOS>MOLECULE
*****
 32 35 0 0 0
SMALL
GASTEIGER

@<TRIPOS>ATOM
      1 C          -5.4269  -19.9181   20.9959 C.ar    1  UNL1        0.1773
      2 C          -6.2430  -20.3790   22.1671 C.ar    1  UNL1        0.1402
      3 N          -7.6191  -19.8243   22.3870 N.ar    1  UNL1       -0.2089
      4 C          -8.1793  -18.8089   21.4356 C.ar    1  UNL1        0.2205
      5 N          -7.3632  -18.3480   20.2644 N.ar    1  UNL1       -0.2089
      6 C          -5.9871  -18.9027   20.0446 C.ar    1  UNL1        0.1402
      7 N          -9.5556  -18.2542   21.6555 N.pl3   1  UNL1       -0.2748
      8 C          -9.7321  -16.8128   22.0311 C.3     1  UNL1        0.1135
      9 C         -11.1084  -16.2582   22.2510 C.3     1  UNL1        0.0984
     10 C         -12.5998  -16.1460   22.3652 C.3     1  UNL1        0.0234
     11 C         -13.1905  -17.4902   22.0584 C.3     1  UNL1        0.0234
     12 C         -12.0642  -18.4331   21.7545 C.3     1  UNL1        0.0984
     13 C         -10.7553  -19.1410   21.4997 C.3     1  UNL1        0.1135
     14 N         -10.7773  -17.6717   21.8735 N.am    1  UNL1       -0.2459
     15 C          -9.4011  -18.2263   21.6537 C.2     1  UNL1        0.4051
     16 O          -9.2245  -19.6677   21.2780 O.2     1  UNL1       -0.2262
     17 O          -8.2014  -17.3394   21.8095 O.3     1  UNL1       -0.4252
     18 C          -7.6052  -17.1162   23.1676 C.3     1  UNL1        0.3125
     19 C          -7.6659  -15.7569   23.7991 C.3     1  UNL1        0.4382
     20 F          -7.7265  -14.3976   24.4306 F       1  UNL1       -0.1663
     21 F          -8.2969  -16.3533   25.0222 F       1  UNL1       -0.1663
     22 F          -7.0348  -15.1606   22.5760 F       1  UNL1       -0.1663
     23 O          -4.0507  -20.4727   20.7760 O.3     1  UNL1       -0.4675
     24 C          -2.9020  -19.9802   21.6056 C.3     1  UNL1        0.2329
     25 C          -2.3738  -17.4511   21.8786 C.ar    1  UNL1        0.0871
     26 C          -1.6123  -16.2300   21.4555 C.ar    1  UNL1        0.1089
     27 N          -0.6175  -16.3170   20.3362 N.ar    1  UNL1       -0.2416
     28 C          -0.3842  -17.6250   19.6400 C.ar    1  UNL1        0.0987
     29 C          -1.1457  -18.8461   20.0631 C.ar    1  UNL1        0.0207
     30 C          -2.1405  -18.7591   21.1824 C.ar    1  UNL1        0.0339
     31 N          -4.3634  -17.2772   24.1172 N.1     1  UNL1       -0.1908
     32 C          -3.3686  -17.3641   22.9979 C.1     1  UNL1        0.1018
@<TRIPOS>BOND
     1    31    32    3
     2    32    25    1
     3    25    26   ar
     4    26    27   ar
     5    27    28   ar
     6    28    29   ar
     7    29    30   ar
     8    30    24    1
     9    24    23    1
    10    23     1    1
    11     1     2   ar
    12     2     3   ar
    13     3     4   ar
    14     4     7    1
    15     7     8    1
    16     8     9    1
    17     9    10    1
    18    10    11    1
    19    11    12    1
    20    12    13    1
    21    12    14    1
    22    14    15   am
    23    15    16    2
    24    15    17    1
    25    17    18    1
    26    18    19    1
    27    19    20    1
    28    19    21    1
    29    19    22    1
    30     4     5   ar
    31     5     6   ar
    32    30    25   ar
    33     6     1   ar
    34    13     7    1
    35    14     9    1
@<TRIPOS>MOLECULE
*****
 32 35 0 0 0
SMALL
GASTEIGER

@<TRIPOS>ATOM
      1 C          -8.1483  -19.6492   22.7316 C.ar    1  UNL1        0.1773
      2 C          -7.8710  -18.2776   22.1914 C.ar    1  UNL1        0.1402
      3 N          -6.5261  -17.9588   21.6087 N.ar    1  UNL1       -0.2089
      4 C          -5.4585  -19.0116   21.5662 C.ar    1  UNL1        0.2205
      5 N          -5.7358  -20.3832   22.1064 N.ar    1  UNL1       -0.2089
      6 C          -7.0806  -20.7020   22.6891 C.ar    1  UNL1        0.1402
      7 N          -4.1135  -18.6928   20.9834 N.pl3   1  UNL1       -0.2748
      8 C          -3.0154  -18.1804   21.8675 C.3     1  UNL1        0.1135
      9 C          -1.6705  -17.8616   21.2848 C.3     1  UNL1        0.0984
     10 C          -0.5433  -17.6844   20.3111 C.3     1  UNL1        0.0234
     11 C          -1.0348  -18.0920   18.9538 C.3     1  UNL1        0.0234
     12 C          -2.4658  -18.5212   19.0886 C.3     1  UNL1        0.0984
     13 C          -3.8667  -18.8864   19.5166 C.3     1  UNL1        0.1135
     14 N          -2.8587  -18.3788   20.5292 N.am    1  UNL1       -0.2459
     15 C          -4.2036  -18.6976   21.1120 C.2     1  UNL1        0.4051
     16 O          -5.3017  -19.2099   20.2279 O.2     1  UNL1       -0.2262
     17 O          -4.4504  -18.5039   22.5788 O.3     1  UNL1       -0.4252
     18 C          -4.6302  -17.1218   23.1330 C.3     1  UNL1        0.3125
     19 C          -4.6584  -16.9066   24.6173 C.3     1  UNL1        0.4382
     20 F          -4.6866  -16.6916   26.1015 F       1  UNL1       -0.1663
     21 F          -5.7393  -15.8805   24.4480 F       1  UNL1       -0.1663
     22 F          -3.5775  -17.9328   24.7865 F       1  UNL1       -0.1663
     23 O          -9.4932  -19.9680   23.3143 O.3     1  UNL1       -0.4675
     24 C         -10.6916  -20.0782   22.4190 C.3     1  UNL1        0.2329
     25 C         -10.9867  -18.5063   20.3716 C.ar    1  UNL1        0.0871
     26 C         -11.5782  -17.2735   19.7549 C.ar    1  UNL1        0.1089
     27 N         -12.4661  -16.3798   20.5691 N.ar    1  UNL1       -0.2416
     28 C         -12.7626  -16.7189   21.9998 C.ar    1  UNL1        0.0987
     29 C         -12.1711  -17.9517   22.6165 C.ar    1  UNL1        0.0207
     30 C         -11.2831  -18.8454   21.8023 C.ar    1  UNL1        0.0339
     31 N          -9.2107  -20.2937   18.7433 N.1     1  UNL1       -0.1908
     32 C         -10.0987  -19.4000   19.5574 C.1     1  UNL1        0.1018
@<TRIPOS>BOND
     1    31    32    3
     2    32    25    1
     3    25    26   ar
     4    26    27   ar
     5    27    28   ar
     6    28    29   ar
     7    29    30   ar
     8    30    24    1
     9    24    23    1
    10    23     1    1
    11     1     2   ar
    12     2     3   ar
    13     3     4   ar
    14     4     7    1
    15     7     8    1
    16     8     9    1
    17     9    10    1
    18    10    11    1
    19    11    12    1
    20    12    13    1
    21    12    14    1
    22    14    15   am
    23    15    16    2
    24    15    17    1
    25    17    18    1
    26    18    19    1
    27    19    20    1
    28    19    21    1
    29    19    22    1
    30     4     5   ar
    31     5     6   ar
    32    30    25   ar
    33     6     1   ar
    34    13     7    1
    35    14     9    1
@<TRIPOS>MOLECULE
*****
 32 35 0 0 0
SMALL
GASTEIGER

@<TRIPOS>ATOM
      1 C          -8.5129  -19.4940   23.0989 C.ar    1  UNL1        0.1773
      2 C          -8.0902  -18.1052   22.7211 C.ar    1  UNL1        0.1402
      3 N          -6.7346  -17.8703   22.1237 N.ar    1  UNL1       -0.2089
      4 C          -5.8016  -19.0241   21.9040 C.ar    1  UNL1        0.2205
      5 N          -6.2242  -20.4128   22.2817 N.ar    1  UNL1       -0.2089
      6 C          -7.5799  -20.6478   22.8791 C.ar    1  UNL1        0.1402
      7 N          -4.4458  -18.7891   21.3065 N.pl3   1  UNL1       -0.2748
      8 C          -4.2937  -18.6590   19.8199 C.3     1  UNL1        0.1135
      9 C          -2.9380  -18.4241   19.2225 C.3     1  UNL1        0.0984
     10 C          -1.4611  -18.2051   19.0782 C.3     1  UNL1        0.0234
     11 C          -0.8541  -18.2197   20.4498 C.3     1  UNL1        0.0234
     12 C          -1.9559  -18.4476   21.4419 C.3     1  UNL1        0.0984
     13 C          -3.2423  -18.6842   22.1957 C.3     1  UNL1        0.1135
     14 N          -3.2438  -18.5740   20.6834 N.am    1  UNL1       -0.2459
     15 C          -4.5995  -18.8089   21.2808 C.2     1  UNL1        0.4051
     16 O          -4.7517  -18.9390   22.7673 O.2     1  UNL1       -0.2262
     17 O          -5.8030  -18.9138   20.3916 O.3     1  UNL1       -0.4252
     18 C          -6.1457  -20.2230   19.7447 C.3     1  UNL1        0.3125
     19 C          -7.5073  -20.4328   19.1516 C.3     1  UNL1        0.4382
     20 F          -8.8690  -20.6426   18.5584 F       1  UNL1       -0.1663
     21 F          -7.2105  -21.8938   18.9868 F       1  UNL1       -0.1663
     22 F          -7.8042  -18.9717   19.3163 F       1  UNL1       -0.1663
     23 O          -9.8685  -19.7290   23.6963 O.3     1  UNL1       -0.4675
     24 C         -11.0608  -19.9077   22.8039 C.3     1  UNL1        0.2329
     25 C         -12.5841  -17.8666   22.2910 C.ar    1  UNL1        0.0871
     26 C         -13.0058  -16.7588   21.3718 C.ar    1  UNL1        0.1089
     27 N         -12.3258  -16.5844   20.0462 N.ar    1  UNL1       -0.2416
     28 C         -11.2242  -17.5178   19.6398 C.ar    1  UNL1        0.0987
     29 C         -10.8025  -18.6255   20.5590 C.ar    1  UNL1        0.0207
     30 C         -11.4825  -18.7999   21.8846 C.ar    1  UNL1        0.0339
     31 N         -13.9441  -18.2154   24.9422 N.1     1  UNL1       -0.1908
     32 C         -13.2641  -18.0410   23.6166 C.1     1  UNL1        0.1018
@<TRIPOS>BOND
     1    31    32    3
     2    32    25    1
     3    25    26   ar
     4    26    27   ar
     5    27    28   ar
     6    28    29   ar
     7    29    30   ar
     8    30    24    1
     9    24    23    1
    10    23     1    1
    11     1     2   ar
    12     2     3   ar
    13     3     4   ar
    14     4     7    1
    15     7     8    1
    16     8     9    1
    17     9    10    1
    18    10    11    1
    19    11    12    1
    20    12    13    1
    21    12    14    1
    22    14    15   am
    23    15    16    2
    24    15    17    1
    25    17    18    1
    26    18    19    1
    27    19    20    1
    28    19    21    1
    29    19    22    1
    30     4     5   ar
    31     5     6   ar
    32    30    25   ar
    33     6     1   ar
    34    13     7    1
    35    14     9    1
@<TRIPOS>MOLECULE
*****
 32 35 0 0 0
SMALL
GASTEIGER

@<TRIPOS>ATOM
      1 C          -8.2882  -19.5082   22.7437 C.ar    1  UNL1        0.1773
      2 C          -7.2550  -20.5940   22.6838 C.ar    1  UNL1        0.1402
      3 N          -5.9012  -20.3097   22.1040 N.ar    1  UNL1       -0.2089
      4 C          -5.5805  -18.9398   21.5841 C.ar    1  UNL1        0.2205
      5 N          -6.6137  -17.8540   21.6439 N.ar    1  UNL1       -0.2089
      6 C          -7.9676  -18.1383   22.2237 C.ar    1  UNL1        0.1402
      7 N          -4.2265  -18.6555   21.0043 N.pl3   1  UNL1       -0.2748
      8 C          -3.1050  -18.2162   21.8982 C.3     1  UNL1        0.1135
      9 C          -1.7511  -17.9320   21.3183 C.3     1  UNL1        0.0984
     10 C          -0.6221  -17.7677   20.3445 C.3     1  UNL1        0.0234
     11 C          -1.1356  -18.1109   18.9775 C.3     1  UNL1        0.0234
     12 C          -2.5818  -18.4872   19.1065 C.3     1  UNL1        0.0984
     13 C          -3.9942  -18.8106   19.5305 C.3     1  UNL1        0.1135
     14 N          -2.9623  -18.3767   20.5532 N.am    1  UNL1       -0.2459
     15 C          -4.3161  -18.6609   21.1331 C.2     1  UNL1        0.4051
     16 O          -5.4377  -19.1002   20.2392 O.2     1  UNL1       -0.2262
     17 O          -4.5485  -18.5059   22.6069 O.3     1  UNL1       -0.4252
     18 C          -4.6795  -17.1368   23.2055 C.3     1  UNL1        0.3125
     19 C          -4.6513  -16.9637   24.6952 C.3     1  UNL1        0.4382
     20 F          -4.6230  -16.7906   26.1849 F       1  UNL1       -0.1663
     21 F          -5.7633  -15.9617   24.5999 F       1  UNL1       -0.1663
     22 F          -3.5392  -17.9658   24.7905 F       1  UNL1       -0.1663
     23 O          -9.6421  -19.7924   23.3235 O.3     1  UNL1       -0.4675
     24 C         -10.8297  -19.9390   22.4190 C.3     1  UNL1        0.2329
     25 C         -12.3953  -17.8725   22.2501 C.ar    1  UNL1        0.0871
     26 C         -12.9052  -16.6883   21.4837 C.ar    1  UNL1        0.1089
     27 N         -12.3593  -16.3862   20.1196 N.ar    1  UNL1       -0.2416
     28 C         -11.3036  -17.2683   19.5220 C.ar    1  UNL1        0.0987
     29 C         -10.7937  -18.4526   20.2884 C.ar    1  UNL1        0.0207
     30 C         -11.3396  -18.7547   21.6525 C.ar    1  UNL1        0.0339
     31 N         -13.4871  -18.4768   24.9783 N.1     1  UNL1       -0.1908
     32 C         -12.9412  -18.1746   23.6142 C.1     1  UNL1        0.1018
@<TRIPOS>BOND
     1    31    32    3
     2    32    25    1
     3    25    26   ar
     4    26    27   ar
     5    27    28   ar
     6    28    29   ar
     7    29    30   ar
     8    30    24    1
     9    24    23    1
    10    23     1    1
    11     1     2   ar
    12     2     3   ar
    13     3     4   ar
    14     4     7    1
    15     7     8    1
    16     8     9    1
    17     9    10    1
    18    10    11    1
    19    11    12    1
    20    12    13    1
    21    12    14    1
    22    14    15   am
    23    15    16    2
    24    15    17    1
    25    17    18    1
    26    18    19    1
    27    19    20    1
    28    19    21    1
    29    19    22    1
    30     4     5   ar
    31     5     6   ar
    32    30    25   ar
    33     6     1   ar
    34    13     7    1
    35    14     9    1
@<TRIPOS>MOLECULE
*****
 32 35 0 0 0
SMALL
GASTEIGER

@<TRIPOS>ATOM
      1 C          -8.2709  -19.6484   22.0727 C.ar    1  UNL1        0.1773
      2 C          -8.0348  -18.5973   21.0289 C.ar    1  UNL1        0.1402
      3 N          -6.6366  -18.2753   20.5918 N.ar    1  UNL1       -0.2089
      4 C          -5.4745  -19.0043   21.1983 C.ar    1  UNL1        0.2205
      5 N          -5.7106  -20.0555   22.2421 N.ar    1  UNL1       -0.2089
      6 C          -7.1088  -20.3775   22.6792 C.ar    1  UNL1        0.1402
      7 N          -4.0761  -18.6822   20.7612 N.pl3   1  UNL1       -0.2748
      8 C          -3.0956  -18.1132   21.7433 C.3     1  UNL1        0.1135
      9 C          -1.6973  -17.7911   21.3061 C.3     1  UNL1        0.0984
     10 C          -0.4679  -17.6304   20.4619 C.3     1  UNL1        0.0234
     11 C          -0.7929  -18.1016   19.0754 C.3     1  UNL1        0.0234
     12 C          -2.2232  -18.5535   19.0627 C.3     1  UNL1        0.0984
     13 C          -3.6584  -18.9293   19.3418 C.3     1  UNL1        0.1135
     14 N          -2.7821  -18.3616   20.4414 N.am    1  UNL1       -0.2459
     15 C          -4.1804  -18.6837   20.8786 C.2     1  UNL1        0.4051
     16 O          -5.1610  -19.2528   19.8965 O.2     1  UNL1       -0.2262
     17 O          -4.5981  -18.4366   22.2979 O.3     1  UNL1       -0.4252
     18 C          -5.0762  -17.0769   22.7131 C.3     1  UNL1        0.3125
     19 C          -4.9484  -16.6411   24.1427 C.3     1  UNL1        0.4382
     20 F          -4.8206  -16.2053   25.5723 F       1  UNL1       -0.1663
     21 F          -5.8343  -15.4635   23.8630 F       1  UNL1       -0.1663
     22 F          -4.0625  -17.8187   24.4224 F       1  UNL1       -0.1663
     23 O          -9.6692  -19.9705   22.5099 O.3     1  UNL1       -0.4675
     24 C         -10.5146  -18.9144   23.1579 C.3     1  UNL1        0.2329
     25 C          -9.5920  -16.5418   23.6772 C.ar    1  UNL1        0.0871
     26 C          -8.9729  -15.5704   24.6378 C.ar    1  UNL1        0.1089
     27 N          -8.6572  -16.0000   26.0399 N.ar    1  UNL1       -0.2416
     28 C          -8.9606  -17.4011   26.4812 C.ar    1  UNL1        0.0987
     29 C          -9.5797  -18.3726   25.5206 C.ar    1  UNL1        0.0207
     30 C          -9.8954  -17.9429   24.1186 C.ar    1  UNL1        0.0339
     31 N         -10.2236  -15.6825   20.8731 N.1     1  UNL1       -0.1908
     32 C          -9.9078  -16.1122   22.2752 C.1     1  UNL1        0.1018
@<TRIPOS>BOND
     1    31    32    3
     2    32    25    1
     3    25    26   ar
     4    26    27   ar
     5    27    28   ar
     6    28    29   ar
     7    29    30   ar
     8    30    24    1
     9    24    23    1
    10    23     1    1
    11     1     2   ar
    12     2     3   ar
    13     3     4   ar
    14     4     7    1
    15     7     8    1
    16     8     9    1
    17     9    10    1
    18    10    11    1
    19    11    12    1
    20    12    13    1
    21    12    14    1
    22    14    15   am
    23    15    16    2
    24    15    17    1
    25    17    18    1
    26    18    19    1
    27    19    20    1
    28    19    21    1
    29    19    22    1
    30     4     5   ar
    31     5     6   ar
    32    30    25   ar
    33     6     1   ar
    34    13     7    1
    35    14     9    1
@<TRIPOS>MOLECULE
*****
 32 35 0 0 0
SMALL
GASTEIGER

@<TRIPOS>ATOM
      1 C          -7.8214  -19.8410   22.4575 C.ar    1  UNL1        0.1773
      2 C          -7.6840  -18.5833   21.6517 C.ar    1  UNL1        0.1402
      3 N          -6.3471  -18.1910   21.0961 N.ar    1  UNL1       -0.2089
      4 C          -5.1477  -19.0563   21.3461 C.ar    1  UNL1        0.2205
      5 N          -5.2851  -20.3141   22.1518 N.ar    1  UNL1       -0.2089
      6 C          -6.6220  -20.7064   22.7075 C.ar    1  UNL1        0.1402
      7 N          -3.8108  -18.6640   20.7903 N.pl3   1  UNL1       -0.2748
      8 C          -2.7817  -18.0374   21.6839 C.3     1  UNL1        0.1135
      9 C          -1.4448  -17.6451   21.1281 C.3     1  UNL1        0.0984
     10 C          -0.3021  -17.4255   20.1816 C.3     1  UNL1        0.0234
     11 C          -0.7185  -17.9225   18.8290 C.3     1  UNL1        0.0234
     12 C          -2.1187  -18.4492   18.9395 C.3     1  UNL1        0.0984
     13 C          -3.5030  -18.8982   19.3411 C.3     1  UNL1        0.1135
     14 N          -2.5676  -18.2778   20.3605 N.am    1  UNL1       -0.2459
     15 C          -3.9044  -18.6701   20.9163 C.2     1  UNL1        0.4051
     16 O          -4.9335  -19.2966   20.0227 O.2     1  UNL1       -0.2262
     17 O          -4.2122  -18.4359   22.3656 O.3     1  UNL1       -0.4252
     18 C          -4.5322  -17.0529   22.8503 C.3     1  UNL1        0.3125
     19 C          -4.6350  -16.7789   24.3214 C.3     1  UNL1        0.4382
     20 F          -4.7377  -16.5048   25.7926 F       1  UNL1       -0.1663
     21 F          -5.5315  -15.6095   24.0410 F       1  UNL1       -0.1663
     22 F          -3.7384  -17.9483   24.6018 F       1  UNL1       -0.1663
     23 O          -9.1582  -20.2334   23.0132 O.3     1  UNL1       -0.4675
     24 C          -9.9751  -19.2346   23.7782 C.3     1  UNL1        0.2329
     25 C         -10.6284  -16.7746   23.2574 C.ar    1  UNL1        0.0871
     26 C         -11.4840  -15.7854   22.5231 C.ar    1  UNL1        0.1089
     27 N         -12.5421  -16.2671   21.5752 N.ar    1  UNL1       -0.2416
     28 C         -12.7445  -17.7379   21.3616 C.ar    1  UNL1        0.0987
     29 C         -11.8888  -18.7271   22.0959 C.ar    1  UNL1        0.0207
     30 C         -10.8308  -18.2454   23.0438 C.ar    1  UNL1        0.0339
     31 N          -8.5122  -15.8112   25.1532 N.1     1  UNL1       -0.1908
     32 C          -9.5703  -16.2929   24.2053 C.1     1  UNL1        0.1018
@<TRIPOS>BOND
     1    31    32    3
     2    32    25    1
     3    25    26   ar
     4    26    27   ar
     5    27    28   ar
     6    28    29   ar
     7    29    30   ar
     8    30    24    1
     9    24    23    1
    10    23     1    1
    11     1     2   ar
    12     2     3   ar
    13     3     4   ar
    14     4     7    1
    15     7     8    1
    16     8     9    1
    17     9    10    1
    18    10    11    1
    19    11    12    1
    20    12    13    1
    21    12    14    1
    22    14    15   am
    23    15    16    2
    24    15    17    1
    25    17    18    1
    26    18    19    1
    27    19    20    1
    28    19    21    1
    29    19    22    1
    30     4     5   ar
    31     5     6   ar
    32    30    25   ar
    33     6     1   ar
    34    13     7    1
    35    14     9    1
