@<TRIPOS>MOLECULE
*****
 31 33 0 0 0
SMALL
GASTEIGER

@<TRIPOS>ATOM
      1 N         -10.1244  -15.7094   22.2796 N.3     1  UNL1       -0.2972
      2 H          -9.9543  -14.7148   22.4291 H       1  UNL1        0.1233
      3 C          -8.9894  -16.4451   22.9282 C.3     1  UNL1        0.0462
      4 C          -9.5155  -16.0647   24.2804 C.3     1  UNL1        0.0161
      5 C          -8.4633  -16.8255   21.5759 C.3     1  UNL1        0.0161
      6 C          -7.8544  -17.1808   23.5767 C.3     1  UNL1        0.0424
      7 C          -2.6018  -18.3827   21.9638 C.2     1  UNL1        0.1222
      8 C          -3.7967  -19.2870   21.8989 C.2     1  UNL1        0.0328
      9 C          -5.1328  -18.7997   22.3757 C.2     1  UNL1        0.0037
     10 C          -5.2740  -17.4081   22.9175 C.2     1  UNL1        0.0116
     11 C          -6.4544  -16.6559   23.4567 C.2     1  UNL1       -0.0006
     12 C          -5.9890  -15.2867   23.8549 C.2     1  UNL1        0.0942
     13 N          -4.5209  -15.1926   23.5618 N.2     1  UNL1       -0.2480
     14 C          -4.0791  -16.5038   22.9824 C.2     1  UNL1        0.0663
     15 C          -2.7430  -16.9911   22.5056 C.3     1  UNL1        0.1095
     16 C          -0.7170  -18.3910   20.1757 C.3     1  UNL1        0.2520
     17 O          -1.2657  -18.8699   21.4870 O.2     1  UNL1       -0.4753
     18 C         -10.3938  -15.8872   20.8148 C.3     1  UNL1        0.1020
     19 C         -11.8063  -15.9681   20.3163 C.3     1  UNL1        0.1697
     20 O         -12.1539  -15.4349   18.9580 O.3     1  UNL1       -0.3793
     21 H         -11.3568  -15.0754   18.5381 H       1  UNL1        0.2106
     22 C         -12.8710  -16.5821   21.1761 C.3     1  UNL1        0.2358
     23 O         -12.8926  -18.0654   21.3984 O.3     1  UNL1       -0.4721
     24 C         -12.0078  -18.6803   22.4418 C.ar    1  UNL1        0.1482
     25 C         -12.3143  -18.4820   23.8967 C.ar    1  UNL1        0.0376
     26 C         -11.4295  -19.0969   24.9404 C.ar    1  UNL1        0.0032
     27 C         -10.2381  -19.9102   24.5290 C.ar    1  UNL1        0.0009
     28 C          -9.9316  -20.1085   23.0741 C.ar    1  UNL1        0.0133
     29 C         -10.8164  -19.4936   22.0305 C.ar    1  UNL1        0.1023
     30 C         -10.5098  -19.6920   20.5757 C.1     1  UNL1        0.1035
     31 N         -10.2033  -19.8903   19.1208 N.1     1  UNL1       -0.1907
@<TRIPOS>BOND
     1    16    17    1
     2    17     7    1
     3     7     8    2
     4     8     9    1
     5     9    10    2
     6    10    11    1
     7    11     6    1
     8     6     3    1
     9     3     4    1
    10     3     5    1
    11     3     1    1
    12     1    18    1
    13    18    19    1
    14    19    20    1
    15    19    22    1
    16    22    23    1
    17    23    24    1
    18    24    25   ar
    19    25    26   ar
    20    26    27   ar
    21    27    28   ar
    22    28    29   ar
    23    29    30    1
    24    30    31    3
    25    11    12    2
    26    12    13    1
    27    13    14    2
    28    14    15    1
    29    15     7    1
    30    14    10    1
    31    29    24   ar
    32     1     2    1
    33    20    21    1
@<TRIPOS>MOLECULE
*****
 31 33 0 0 0
SMALL
GASTEIGER

@<TRIPOS>ATOM
      1 N          -6.4671  -14.7363   25.6394 N.3     1  UNL1       -0.2972
      2 H          -6.4144  -14.4049   26.6027 H       1  UNL1        0.1233
      3 C          -7.8639  -15.2418   25.4313 C.3     1  UNL1        0.0462
      4 C          -7.9015  -15.7229   26.8515 C.3     1  UNL1        0.0161
      5 C          -7.8264  -14.7608   24.0110 C.3     1  UNL1        0.0161
      6 C          -9.2608  -15.7474   25.2231 C.3     1  UNL1        0.0424
      7 C         -10.0908  -19.2536   20.9041 C.2     1  UNL1        0.1222
      8 C          -9.8907  -17.7685   20.8374 C.2     1  UNL1        0.0328
      9 C          -9.6813  -16.9826   22.0978 C.2     1  UNL1        0.0037
     10 C          -9.6719  -17.6818   23.4248 C.2     1  UNL1        0.0116
     11 C          -9.4900  -17.1753   24.8249 C.2     1  UNL1       -0.0006
     12 C          -9.5776  -18.3474   25.7569 C.2     1  UNL1        0.0942
     13 N          -9.8136  -19.5783   24.9329 N.2     1  UNL1       -0.2480
     14 C          -9.8720  -19.1669   23.4915 C.2     1  UNL1        0.0663
     15 C         -10.0814  -19.9528   22.2311 C.3     1  UNL1        0.1095
     16 C          -9.1691  -20.2188   18.6750 C.3     1  UNL1        0.2520
     17 O         -10.3002  -20.0395   19.6438 O.2     1  UNL1       -0.4753
     18 C          -5.2988  -15.6539   25.4326 C.3     1  UNL1        0.1020
     19 C          -4.7287  -15.8445   24.0583 C.3     1  UNL1        0.1697
     20 O          -4.7734  -14.7210   23.0654 O.3     1  UNL1       -0.3793
     21 H          -5.2001  -13.9492   23.4695 H       1  UNL1        0.2106
     22 C          -4.1139  -17.1584   23.6769 C.3     1  UNL1        0.2358
     23 O          -3.8428  -17.4690   22.2347 O.3     1  UNL1       -0.4721
     24 C          -4.4647  -18.6763   21.5977 C.ar    1  UNL1        0.1482
     25 C          -5.8736  -19.0622   21.9385 C.ar    1  UNL1        0.0376
     26 C          -6.4956  -20.2695   21.3016 C.ar    1  UNL1        0.0032
     27 C          -5.7086  -21.0909   20.3239 C.ar    1  UNL1        0.0009
     28 C          -4.2997  -20.7050   19.9831 C.ar    1  UNL1        0.0133
     29 C          -3.6778  -19.4978   20.6199 C.ar    1  UNL1        0.1023
     30 C          -2.2689  -19.1119   20.2791 C.1     1  UNL1        0.1035
     31 N          -0.8600  -18.7260   19.9383 N.1     1  UNL1       -0.1907
@<TRIPOS>BOND
     1    16    17    1
     2    17     7    1
     3     7     8    2
     4     8     9    1
     5     9    10    2
     6    10    11    1
     7    11     6    1
     8     6     3    1
     9     3     4    1
    10     3     5    1
    11     3     1    1
    12     1    18    1
    13    18    19    1
    14    19    20    1
    15    19    22    1
    16    22    23    1
    17    23    24    1
    18    24    25   ar
    19    25    26   ar
    20    26    27   ar
    21    27    28   ar
    22    28    29   ar
    23    29    30    1
    24    30    31    3
    25    11    12    2
    26    12    13    1
    27    13    14    2
    28    14    15    1
    29    15     7    1
    30    14    10    1
    31    29    24   ar
    32     1     2    1
    33    20    21    1
@<TRIPOS>MOLECULE
*****
 31 33 0 0 0
SMALL
GASTEIGER

@<TRIPOS>ATOM
      1 N         -10.4139  -19.7974   22.1279 N.3     1  UNL1       -0.2972
      2 H         -10.6132  -20.5832   22.7469 H       1  UNL1        0.1233
      3 C          -8.9896  -19.3991   22.3787 C.3     1  UNL1        0.0462
      4 C          -8.8906  -20.4340   23.4600 C.3     1  UNL1        0.0161
      5 C          -9.0886  -18.3642   21.2973 C.3     1  UNL1        0.0161
      6 C          -7.5653  -19.0009   22.6294 C.3     1  UNL1        0.0424
      7 C          -2.0878  -18.7079   21.3854 C.2     1  UNL1        0.1222
      8 C          -2.8263  -17.9007   22.4116 C.2     1  UNL1        0.0328
      9 C          -4.2979  -18.1099   22.6134 C.2     1  UNL1        0.0037
     10 C          -5.0309  -19.1263   21.7892 C.2     1  UNL1        0.0116
     11 C          -6.4696  -19.5499   21.7645 C.2     1  UNL1       -0.0006
     12 C          -6.6203  -20.6189   20.7231 C.2     1  UNL1        0.0942
     13 N          -5.2748  -20.8560   20.1041 N.2     1  UNL1       -0.2480
     14 C          -4.2924  -19.9335   20.7630 C.2     1  UNL1        0.0663
     15 C          -2.8209  -19.7243   20.5612 C.3     1  UNL1        0.1095
     16 C          -0.1107  -17.9204   19.8952 C.3     1  UNL1        0.2520
     17 O          -0.6163  -18.4986   21.1836 O.2     1  UNL1       -0.4753
     18 C         -11.5172  -18.8004   22.3248 C.3     1  UNL1        0.1020
     19 C         -11.8380  -18.2989   23.7017 C.3     1  UNL1        0.1697
     20 O         -13.2590  -18.2831   24.1817 O.3     1  UNL1       -0.3793
     21 H         -13.8396  -18.6271   23.4850 H       1  UNL1        0.2106
     22 C         -10.7380  -17.8132   24.5982 C.3     1  UNL1        0.2358
     23 O          -9.9869  -16.5615   24.2532 O.3     1  UNL1       -0.4721
     24 C          -8.7392  -16.2041   25.0053 C.ar    1  UNL1        0.1482
     25 C          -8.6327  -16.5102   26.4699 C.ar    1  UNL1        0.0376
     26 C          -7.3850  -16.1529   27.2220 C.ar    1  UNL1        0.0032
     27 C          -6.2439  -15.4894   26.5095 C.ar    1  UNL1        0.0009
     28 C          -6.3504  -15.1833   25.0450 C.ar    1  UNL1        0.0133
     29 C          -7.5980  -15.5407   24.2929 C.ar    1  UNL1        0.1023
     30 C          -7.7045  -15.2346   22.8283 C.1     1  UNL1        0.1035
     31 N          -7.8111  -14.9285   21.3637 N.1     1  UNL1       -0.1907
@<TRIPOS>BOND
     1    16    17    1
     2    17     7    1
     3     7     8    2
     4     8     9    1
     5     9    10    2
     6    10    11    1
     7    11     6    1
     8     6     3    1
     9     3     4    1
    10     3     5    1
    11     3     1    1
    12     1    18    1
    13    18    19    1
    14    19    20    1
    15    19    22    1
    16    22    23    1
    17    23    24    1
    18    24    25   ar
    19    25    26   ar
    20    26    27   ar
    21    27    28   ar
    22    28    29   ar
    23    29    30    1
    24    30    31    3
    25    11    12    2
    26    12    13    1
    27    13    14    2
    28    14    15    1
    29    15     7    1
    30    14    10    1
    31    29    24   ar
    32     1     2    1
    33    20    21    1
@<TRIPOS>MOLECULE
*****
 31 33 0 0 0
SMALL
GASTEIGER

@<TRIPOS>ATOM
      1 N         -10.6747  -18.9596   20.3524 N.3     1  UNL1       -0.2972
      2 H         -10.9261  -18.6389   21.2875 H       1  UNL1        0.1233
      3 C          -9.2799  -19.5041   20.4417 C.3     1  UNL1        0.0462
      4 C          -9.0332  -19.1062   19.0167 C.3     1  UNL1        0.0161
      5 C          -9.5265  -19.9020   21.8668 C.3     1  UNL1        0.0161
      6 C          -7.8851  -20.0487   20.5311 C.3     1  UNL1        0.0424
      7 C          -2.3562  -19.0618   20.8384 C.2     1  UNL1        0.1222
      8 C          -3.0535  -20.0226   19.9216 C.2     1  UNL1        0.0328
      9 C          -4.5463  -20.1602   19.9740 C.2     1  UNL1        0.0037
     10 C          -5.3418  -19.3369   20.9431 C.2     1  UNL1        0.0116
     11 C          -6.8137  -19.2572   21.2208 C.2     1  UNL1       -0.0006
     12 C          -7.0261  -18.2471   22.3092 C.2     1  UNL1        0.0942
     13 N          -5.6855  -17.7025   22.7043 N.2     1  UNL1       -0.2480
     14 C          -4.6445  -18.3761   21.8599 C.2     1  UNL1        0.0663
     15 C          -3.1517  -18.2385   21.8076 C.3     1  UNL1        0.1095
     16 C          -0.2331  -17.9482   19.8374 C.3     1  UNL1        0.2520
     17 O          -0.8635  -18.9243   20.7860 O.2     1  UNL1       -0.4753
     18 C         -10.9809  -17.8324   19.4112 C.3     1  UNL1        0.1020
     19 C         -11.4177  -16.5026   19.9505 C.3     1  UNL1        0.1697
     20 O         -12.6720  -15.8603   19.4366 O.3     1  UNL1       -0.3793
     21 H         -13.0765  -16.4320   18.7654 H       1  UNL1        0.2106
     22 C         -10.6001  -15.8151   21.0034 C.3     1  UNL1        0.2358
     23 O         -11.1287  -15.6919   22.4018 O.3     1  UNL1       -0.4721
     24 C         -10.9889  -16.8374   23.3600 C.ar    1  UNL1        0.1482
     25 C         -12.0557  -17.8894   23.4322 C.ar    1  UNL1        0.0376
     26 C         -11.9160  -19.0350   24.3905 C.ar    1  UNL1        0.0032
     27 C         -10.7093  -19.1285   25.2765 C.ar    1  UNL1        0.0009
     28 C          -9.6424  -18.0766   25.2043 C.ar    1  UNL1        0.0133
     29 C          -9.7822  -16.9311   24.2461 C.ar    1  UNL1        0.1023
     30 C          -8.7153  -15.8792   24.1739 C.1     1  UNL1        0.1035
     31 N          -7.6484  -14.8273   24.1018 N.1     1  UNL1       -0.1907
@<TRIPOS>BOND
     1    16    17    1
     2    17     7    1
     3     7     8    2
     4     8     9    1
     5     9    10    2
     6    10    11    1
     7    11     6    1
     8     6     3    1
     9     3     4    1
    10     3     5    1
    11     3     1    1
    12     1    18    1
    13    18    19    1
    14    19    20    1
    15    19    22    1
    16    22    23    1
    17    23    24    1
    18    24    25   ar
    19    25    26   ar
    20    26    27   ar
    21    27    28   ar
    22    28    29   ar
    23    29    30    1
    24    30    31    3
    25    11    12    2
    26    12    13    1
    27    13    14    2
    28    14    15    1
    29    15     7    1
    30    14    10    1
    31    29    24   ar
    32     1     2    1
    33    20    21    1
@<TRIPOS>MOLECULE
*****
 31 33 0 0 0
SMALL
GASTEIGER

@<TRIPOS>ATOM
      1 N         -10.1151  -19.0378   20.9095 N.3     1  UNL1       -0.2972
      2 H         -10.1850  -18.5673   21.8118 H       1  UNL1        0.1233
      3 C          -8.6929  -19.4930   20.7676 C.3     1  UNL1        0.0462
      4 C          -8.7410  -19.1860   19.3001 C.3     1  UNL1        0.0161
      5 C          -8.6447  -19.8001   22.2350 C.3     1  UNL1        0.0161
      6 C          -7.2707  -19.9483   20.6256 C.3     1  UNL1        0.0424
      7 C          -1.7690  -18.7801   20.6852 C.2     1  UNL1        0.1222
      8 C          -2.5037  -19.6222   19.6846 C.2     1  UNL1        0.0328
      9 C          -3.9828  -19.8305   19.8216 C.2     1  UNL1        0.0037
     10 C          -4.7273  -19.1967   20.9591 C.2     1  UNL1        0.0116
     11 C          -6.1753  -19.2233   21.3498 C.2     1  UNL1       -0.0006
     12 C          -6.3356  -18.3976   22.5918 C.2     1  UNL1        0.0942
     13 N          -4.9866  -17.8607   22.9688 N.2     1  UNL1       -0.2480
     14 C          -3.9927  -18.3546   21.9597 C.2     1  UNL1        0.0663
     15 C          -2.5135  -18.1463   21.8227 C.3     1  UNL1        0.1095
     16 C           0.2341  -17.3561   19.8430 C.3     1  UNL1        0.2520
     17 O          -0.2899  -18.5718   20.5482 O.2     1  UNL1       -0.4753
     18 C         -10.7113  -18.1118   19.8911 C.3     1  UNL1        0.1020
     19 C         -11.2512  -16.7781   20.3150 C.3     1  UNL1        0.1697
     20 O         -12.5957  -16.3243   19.8288 O.3     1  UNL1       -0.3793
     21 H         -12.9787  -17.0057   19.2544 H       1  UNL1        0.2106
     22 C         -10.4466  -15.8982   21.2251 C.3     1  UNL1        0.2358
     23 O          -9.0685  -16.3152   21.6459 O.3     1  UNL1       -0.4721
     24 C          -8.6051  -16.0645   23.0504 C.ar    1  UNL1        0.1482
     25 C          -7.4109  -15.1923   23.3017 C.ar    1  UNL1        0.0376
     26 C          -6.9475  -14.9415   24.7061 C.ar    1  UNL1        0.0032
     27 C          -7.6783  -15.5630   25.8592 C.ar    1  UNL1        0.0009
     28 C          -8.8725  -16.4352   25.6079 C.ar    1  UNL1        0.0133
     29 C          -9.3359  -16.6860   24.2036 C.ar    1  UNL1        0.1023
     30 C         -10.5301  -17.5581   23.9522 C.1     1  UNL1        0.1035
     31 N         -11.7243  -18.4303   23.7009 N.1     1  UNL1       -0.1907
@<TRIPOS>BOND
     1    16    17    1
     2    17     7    1
     3     7     8    2
     4     8     9    1
     5     9    10    2
     6    10    11    1
     7    11     6    1
     8     6     3    1
     9     3     4    1
    10     3     5    1
    11     3     1    1
    12     1    18    1
    13    18    19    1
    14    19    20    1
    15    19    22    1
    16    22    23    1
    17    23    24    1
    18    24    25   ar
    19    25    26   ar
    20    26    27   ar
    21    27    28   ar
    22    28    29   ar
    23    29    30    1
    24    30    31    3
    25    11    12    2
    26    12    13    1
    27    13    14    2
    28    14    15    1
    29    15     7    1
    30    14    10    1
    31    29    24   ar
    32     1     2    1
    33    20    21    1
@<TRIPOS>MOLECULE
*****
 31 33 0 0 0
SMALL
GASTEIGER

@<TRIPOS>ATOM
      1 N         -11.6843   -7.6988   18.6955 N.3     1  UNL1       -0.2972
      2 H         -12.3193   -7.8035   19.4868 H       1  UNL1        0.1233
      3 C         -10.9066   -6.4375   18.9283 C.3     1  UNL1        0.0462
      4 C          -9.6259   -7.1862   18.7065 C.3     1  UNL1        0.0161
      5 C         -12.1873   -5.6888   19.1502 C.3     1  UNL1        0.0161
      6 C         -10.1288   -5.1762   19.1611 C.3     1  UNL1        0.0424
      7 C         -11.6232   -0.1079   17.2336 C.2     1  UNL1        0.1222
      8 C         -12.0759   -0.7608   18.5058 C.2     1  UNL1        0.0328
      9 C         -11.5736   -2.1271   18.8676 C.2     1  UNL1        0.0037
     10 C         -10.6186   -2.8405   17.9572 C.2     1  UNL1        0.0116
     11 C          -9.9582   -4.1842   18.0490 C.2     1  UNL1       -0.0006
     12 C          -9.0974   -4.3617   16.8335 C.2     1  UNL1        0.0942
     13 N          -9.2256   -3.1277   15.9904 N.2     1  UNL1       -0.2480
     14 C         -10.1658   -2.1875   16.6849 C.2     1  UNL1        0.0663
     15 C         -10.6681   -0.8212   16.3231 C.3     1  UNL1        0.1095
     16 C         -13.5621    1.6171   17.1111 C.3     1  UNL1        0.2520
     17 O         -12.1254    1.2585   16.8718 O.2     1  UNL1       -0.4753
     18 C         -12.5113   -7.8516   17.4535 C.3     1  UNL1        0.1020
     19 C         -13.9233   -8.3490   17.5489 C.3     1  UNL1        0.1697
     20 O         -14.3151   -9.2865   18.6524 O.3     1  UNL1       -0.3793
     21 H         -13.5436   -9.4683   19.2114 H       1  UNL1        0.2106
     22 C         -14.9432   -7.9090   16.5410 C.3     1  UNL1        0.2358
     23 O         -16.1453   -7.1279   16.9824 O.3     1  UNL1       -0.4721
     24 C         -15.9710   -5.8748   17.7882 C.ar    1  UNL1        0.1482
     25 C         -15.2000   -4.7197   17.2213 C.ar    1  UNL1        0.0376
     26 C         -15.0257   -3.4665   18.0271 C.ar    1  UNL1        0.0032
     27 C         -15.6224   -3.3685   19.3998 C.ar    1  UNL1        0.0009
     28 C         -16.3934   -4.5235   19.9667 C.ar    1  UNL1        0.0133
     29 C         -16.5677   -5.7766   19.1609 C.ar    1  UNL1        0.1023
     30 C         -17.3387   -6.9317   19.7278 C.1     1  UNL1        0.1035
     31 N         -18.1097   -8.0868   20.2947 N.1     1  UNL1       -0.1907
@<TRIPOS>BOND
     1    16    17    1
     2    17     7    1
     3     7     8    2
     4     8     9    1
     5     9    10    2
     6    10    11    1
     7    11     6    1
     8     6     3    1
     9     3     4    1
    10     3     5    1
    11     3     1    1
    12     1    18    1
    13    18    19    1
    14    19    20    1
    15    19    22    1
    16    22    23    1
    17    23    24    1
    18    24    25   ar
    19    25    26   ar
    20    26    27   ar
    21    27    28   ar
    22    28    29   ar
    23    29    30    1
    24    30    31    3
    25    11    12    2
    26    12    13    1
    27    13    14    2
    28    14    15    1
    29    15     7    1
    30    14    10    1
    31    29    24   ar
    32     1     2    1
    33    20    21    1
@<TRIPOS>MOLECULE
*****
 31 33 0 0 0
SMALL
GASTEIGER

@<TRIPOS>ATOM
      1 N          -9.4419  -19.6404   21.7509 N.3     1  UNL1       -0.2972
      2 H          -9.6373  -19.9285   22.7097 H       1  UNL1        0.1233
      3 C          -7.9696  -19.8277   21.5340 C.3     1  UNL1        0.0462
      4 C          -8.0829  -19.1651   20.1930 C.3     1  UNL1        0.0161
      5 C          -7.8563  -20.4903   22.8749 C.3     1  UNL1        0.0161
      6 C          -6.4972  -20.0151   21.3170 C.3     1  UNL1        0.0424
      7 C          -1.5658  -17.4683   20.4052 C.2     1  UNL1        0.1222
      8 C          -2.2077  -18.5257   19.5568 C.2     1  UNL1        0.0328
      9 C          -3.5361  -19.0998   19.9515 C.2     1  UNL1        0.0037
     10 C          -4.2226  -18.6165   21.1946 C.2     1  UNL1        0.0116
     11 C          -5.5273  -18.9932   21.8317 C.2     1  UNL1       -0.0006
     12 C          -5.6917  -18.1685   23.0738 C.2     1  UNL1        0.0942
     13 N          -4.4886  -17.2821   23.2044 N.2     1  UNL1       -0.2480
     14 C          -3.5807  -17.5591   22.0429 C.2     1  UNL1        0.0663
     15 C          -2.2523  -16.9850   21.6482 C.3     1  UNL1        0.1095
     16 C           0.9873  -17.7601   20.0224 C.3     1  UNL1        0.2520
     17 O          -0.2374  -16.8941   20.0105 O.2     1  UNL1       -0.4753
     18 C         -10.0601  -18.2855   21.5715 C.3     1  UNL1        0.1020
     19 C         -10.7689  -17.6266   22.7177 C.3     1  UNL1        0.1697
     20 O         -12.1371  -17.0450   22.5187 O.3     1  UNL1       -0.3793
     21 H         -12.4146  -17.1787   21.5989 H       1  UNL1        0.2106
     22 C         -10.1094  -17.5495   24.0627 C.3     1  UNL1        0.2358
     23 O          -9.8814  -16.2160   24.7107 O.3     1  UNL1       -0.4721
     24 C          -8.5320  -15.8747   25.2698 C.ar    1  UNL1        0.1482
     25 C          -8.2627  -16.0445   26.7356 C.ar    1  UNL1        0.0376
     26 C          -6.9132  -15.7032   27.2948 C.ar    1  UNL1        0.0032
     27 C          -5.8331  -15.1921   26.3880 C.ar    1  UNL1        0.0009
     28 C          -6.1025  -15.0224   24.9222 C.ar    1  UNL1        0.0133
     29 C          -7.4518  -15.3636   24.3631 C.ar    1  UNL1        0.1023
     30 C          -7.7211  -15.1939   22.8972 C.1     1  UNL1        0.1035
     31 N          -7.9905  -15.0241   21.4314 N.1     1  UNL1       -0.1907
@<TRIPOS>BOND
     1    16    17    1
     2    17     7    1
     3     7     8    2
     4     8     9    1
     5     9    10    2
     6    10    11    1
     7    11     6    1
     8     6     3    1
     9     3     4    1
    10     3     5    1
    11     3     1    1
    12     1    18    1
    13    18    19    1
    14    19    20    1
    15    19    22    1
    16    22    23    1
    17    23    24    1
    18    24    25   ar
    19    25    26   ar
    20    26    27   ar
    21    27    28   ar
    22    28    29   ar
    23    29    30    1
    24    30    31    3
    25    11    12    2
    26    12    13    1
    27    13    14    2
    28    14    15    1
    29    15     7    1
    30    14    10    1
    31    29    24   ar
    32     1     2    1
    33    20    21    1
@<TRIPOS>MOLECULE
*****
 31 33 0 0 0
SMALL
GASTEIGER

@<TRIPOS>ATOM
      1 N           7.1555   -9.7432   27.4371 N.3     1  UNL1       -0.2972
      2 H           6.7674   -9.9996   26.5294 H       1  UNL1        0.1233
      3 C           8.0703   -8.5776   27.2034 C.3     1  UNL1        0.0462
      4 C           9.1125   -9.2220   28.0687 C.3     1  UNL1        0.0161
      5 C           7.0281   -7.9332   26.3382 C.3     1  UNL1        0.0161
      6 C           8.9850   -7.4120   26.9697 C.3     1  UNL1        0.0424
      7 C           6.9976   -4.2552   31.1793 C.2     1  UNL1        0.1222
      8 C           7.3022   -5.7235   31.2163 C.2     1  UNL1        0.0328
      9 C           7.8305   -6.4108   29.9921 C.2     1  UNL1        0.0037
     10 C           8.0541   -5.6300   28.7311 C.2     1  UNL1        0.0116
     11 C           8.5611   -6.0323   27.3780 C.2     1  UNL1       -0.0006
     12 C           8.5698   -4.8127   26.5047 C.2     1  UNL1        0.0942
     13 N           8.0682   -3.6566   27.3182 N.2     1  UNL1       -0.2480
     14 C           7.7495   -4.1617   28.6942 C.2     1  UNL1        0.0663
     15 C           7.2212   -3.4744   29.9183 C.3     1  UNL1        0.1095
     16 C           5.3409   -2.5867   32.2846 C.3     1  UNL1        0.2520
     17 O           6.4693   -3.5678   32.4034 O.2     1  UNL1       -0.4753
     18 C           7.6885  -11.0035   28.0517 C.3     1  UNL1        0.1020
     19 C           6.8546  -12.2503   28.0488 C.3     1  UNL1        0.1697
     20 O           7.0336  -13.2697   26.9631 O.3     1  UNL1       -0.3793
     21 H           7.7222  -12.9705   26.3490 H       1  UNL1        0.2106
     22 C           5.8418  -12.4777   29.1316 C.3     1  UNL1        0.2358
     23 O           4.5570  -11.7037   29.1313 O.3     1  UNL1       -0.4721
     24 C           3.2452  -12.4278   29.0618 C.ar    1  UNL1        0.1482
     25 C           2.4304  -12.6248   30.3057 C.ar    1  UNL1        0.0376
     26 C           1.1186  -13.3489   30.2363 C.ar    1  UNL1        0.0032
     27 C           0.6215  -13.8761   28.9229 C.ar    1  UNL1        0.0009
     28 C           1.4363  -13.6791   27.6790 C.ar    1  UNL1        0.0133
     29 C           2.7481  -12.9550   27.7484 C.ar    1  UNL1        0.1023
     30 C           3.5628  -12.7581   26.5044 C.1     1  UNL1        0.1035
     31 N           4.3775  -12.5611   25.2605 N.1     1  UNL1       -0.1907
@<TRIPOS>BOND
     1    16    17    1
     2    17     7    1
     3     7     8    2
     4     8     9    1
     5     9    10    2
     6    10    11    1
     7    11     6    1
     8     6     3    1
     9     3     4    1
    10     3     5    1
    11     3     1    1
    12     1    18    1
    13    18    19    1
    14    19    20    1
    15    19    22    1
    16    22    23    1
    17    23    24    1
    18    24    25   ar
    19    25    26   ar
    20    26    27   ar
    21    27    28   ar
    22    28    29   ar
    23    29    30    1
    24    30    31    3
    25    11    12    2
    26    12    13    1
    27    13    14    2
    28    14    15    1
    29    15     7    1
    30    14    10    1
    31    29    24   ar
    32     1     2    1
    33    20    21    1
@<TRIPOS>MOLECULE
*****
 31 33 0 0 0
SMALL
GASTEIGER

@<TRIPOS>ATOM
      1 N           3.7193    0.3881   19.5888 N.3     1  UNL1       -0.2972
      2 H           4.6987    0.6696   19.5452 H       1  UNL1        0.1233
      3 C           3.6243   -0.6892   20.6283 C.3     1  UNL1        0.0462
      4 C           5.0420   -0.4195   21.0373 C.3     1  UNL1        0.0161
      5 C           2.2066   -0.9589   20.2192 C.3     1  UNL1        0.0161
      6 C           3.5293   -1.7664   21.6677 C.3     1  UNL1        0.0424
      7 C           6.3066   -2.8780   26.4309 C.2     1  UNL1        0.1222
      8 C           6.5160   -3.5198   25.0914 C.2     1  UNL1        0.0328
      9 C           5.6799   -3.0992   23.9193 C.2     1  UNL1        0.0037
     10 C           4.6344   -2.0367   24.0865 C.2     1  UNL1        0.0116
     11 C           3.6659   -1.4206   23.1209 C.2     1  UNL1       -0.0006
     12 C           2.8580   -0.3980   23.8636 C.2     1  UNL1        0.0942
     13 N           3.3271   -0.3820   25.2882 N.2     1  UNL1       -0.2480
     14 C           4.4250   -1.3948   25.4260 C.2     1  UNL1        0.0663
     15 C           5.2612   -1.8155   26.5982 C.3     1  UNL1        0.1095
     16 C           6.5509   -4.1669   28.6734 C.3     1  UNL1        0.2520
     17 O           7.1428   -3.2986   27.6030 O.2     1  UNL1       -0.4753
     18 C           3.2852    0.1112   18.1799 C.3     1  UNL1        0.1020
     19 C           4.1956   -0.6302   17.2464 C.3     1  UNL1        0.1697
     20 O           3.6221   -1.4038   16.0964 O.3     1  UNL1       -0.3793
     21 H           2.6557   -1.3209   16.1009 H       1  UNL1        0.2106
     22 C           5.6795   -0.5980   17.4630 C.3     1  UNL1        0.2358
     23 O           6.4738   -1.8691   17.4038 O.3     1  UNL1       -0.4721
     24 C           7.1059   -2.4172   18.6488 C.ar    1  UNL1        0.1482
     25 C           8.4908   -1.9912   19.0368 C.ar    1  UNL1        0.0376
     26 C           9.1231   -2.5393   20.2818 C.ar    1  UNL1        0.0032
     27 C           8.3703   -3.5134   21.1388 C.ar    1  UNL1        0.0009
     28 C           6.9854   -3.9394   20.7507 C.ar    1  UNL1        0.0133
     29 C           6.3532   -3.3914   19.5058 C.ar    1  UNL1        0.1023
     30 C           4.9683   -3.8174   19.1178 C.1     1  UNL1        0.1035
     31 N           3.5834   -4.2435   18.7298 N.1     1  UNL1       -0.1907
@<TRIPOS>BOND
     1    16    17    1
     2    17     7    1
     3     7     8    2
     4     8     9    1
     5     9    10    2
     6    10    11    1
     7    11     6    1
     8     6     3    1
     9     3     4    1
    10     3     5    1
    11     3     1    1
    12     1    18    1
    13    18    19    1
    14    19    20    1
    15    19    22    1
    16    22    23    1
    17    23    24    1
    18    24    25   ar
    19    25    26   ar
    20    26    27   ar
    21    27    28   ar
    22    28    29   ar
    23    29    30    1
    24    30    31    3
    25    11    12    2
    26    12    13    1
    27    13    14    2
    28    14    15    1
    29    15     7    1
    30    14    10    1
    31    29    24   ar
    32     1     2    1
    33    20    21    1
