@<TRIPOS>MOLECULE
*****
 27 30 0 0 0
SMALL
GASTEIGER

@<TRIPOS>ATOM
      1 O         -11.6996  -17.4997   22.8366 O.2     1  UNL1       -0.2699
      2 C         -10.2389  -17.6749   23.1294 C.2     1  UNL1        0.2494
      3 N          -9.3613  -18.4052   22.1565 N.am    1  UNL1       -0.2686
      4 C          -9.9444  -18.9602   20.8908 C.3     1  UNL1        0.1005
      5 C          -9.0668  -19.6905   19.9179 C.3     1  UNL1        0.0703
      6 C          -7.6061  -19.8657   20.2107 C.ar    1  UNL1        0.0955
      7 N          -6.5023  -20.5345   19.4461 N.ar    1  UNL1       -0.2136
      8 C          -5.2371  -20.3927   20.2392 C.ar    1  UNL1        0.2500
      9 O          -5.5589  -19.6364   21.4940 O.2     1  UNL1       -0.4379
     10 C          -7.0230  -19.3107   21.4764 C.ar    1  UNL1        0.1580
     11 C          -7.9006  -18.5804   22.4492 C.3     1  UNL1        0.1598
     12 C          -9.6558  -17.1199   24.3951 C.ar    1  UNL1        0.0537
     13 C          -9.6181  -17.9620   25.6358 C.ar    1  UNL1        0.0068
     14 C          -9.0349  -17.4069   26.9015 C.ar    1  UNL1        0.0298
     15 C          -8.4896  -16.0098   26.9264 C.ar    1  UNL1        0.1401
     16 F          -7.9065  -15.4548   28.1921 F       1  UNL1       -0.2042
     17 C          -8.5273  -15.1677   25.6856 C.ar    1  UNL1        0.0298
     18 C          -9.1104  -15.7227   24.4200 C.ar    1  UNL1        0.0068
     19 C          -3.8871  -20.9155   19.8466 C.3     1  UNL1        0.2895
     20 O          -2.6825  -20.5784   20.6744 O.3     1  UNL1       -0.4654
     21 C          -2.2522  -19.1495   20.8255 C.ar    1  UNL1        0.1415
     22 C          -1.1488  -18.6038   19.9683 C.ar    1  UNL1        0.0371
     23 C          -0.7185  -17.1749   20.1193 C.ar    1  UNL1        0.0054
     24 C          -1.3917  -16.2914   21.1276 C.ar    1  UNL1        0.0298
     25 C          -2.4950  -16.8371   21.9848 C.ar    1  UNL1        0.1432
     26 F          -3.1682  -15.9538   22.9931 F       1  UNL1       -0.2041
     27 C          -2.9253  -18.2662   21.8337 C.ar    1  UNL1        0.0665
@<TRIPOS>BOND
     1     1     2    2
     2     2    12    1
     3    12    13   ar
     4    13    14   ar
     5    14    15   ar
     6    15    16    1
     7    15    17   ar
     8    17    18   ar
     9     2     3   am
    10     3     4    1
    11     4     5    1
    12     5     6    1
    13     6     7   ar
    14     7     8   ar
    15     8    19    1
    16    19    20    1
    17    20    21    1
    18    21    22   ar
    19    22    23   ar
    20    23    24   ar
    21    24    25   ar
    22    25    26    1
    23    25    27   ar
    24     8     9   ar
    25     9    10   ar
    26    10    11    1
    27    18    12   ar
    28    11     3    1
    29    10     6   ar
    30    27    21   ar
@<TRIPOS>MOLECULE
*****
 27 30 0 0 0
SMALL
GASTEIGER

@<TRIPOS>ATOM
      1 O         -10.4928  -20.3818   19.0439 O.2     1  UNL1       -0.2699
      2 C          -9.8922  -19.4465   20.0511 C.2     1  UNL1        0.2494
      3 N          -8.4337  -19.5432   20.3881 N.am    1  UNL1       -0.2686
      4 C          -7.5759  -20.5751   19.7179 C.3     1  UNL1        0.1005
      5 C          -6.1175  -20.6718   20.0550 C.3     1  UNL1        0.0703
      6 C          -5.5169  -19.7365   21.0622 C.ar    1  UNL1        0.0955
      7 N          -4.1211  -19.5949   21.5932 N.ar    1  UNL1       -0.2136
      8 C          -4.1164  -18.4754   22.5916 C.ar    1  UNL1        0.2500
      9 O          -5.5092  -17.9251   22.6776 O.2     1  UNL1       -0.4379
     10 C          -6.3747  -18.7045   21.7324 C.ar    1  UNL1        0.1580
     11 C          -7.8331  -18.6079   21.3953 C.3     1  UNL1        0.1598
     12 C         -10.7500  -18.4145   20.7212 C.ar    1  UNL1        0.0537
     13 C         -11.3112  -18.6779   22.0871 C.ar    1  UNL1        0.0068
     14 C         -12.1691  -17.6458   22.7573 C.ar    1  UNL1        0.0298
     15 C         -12.4657  -16.3505   22.0615 C.ar    1  UNL1        0.1401
     16 F         -13.3235  -15.3185   22.7317 F       1  UNL1       -0.2042
     17 C         -11.9045  -16.0871   20.6956 C.ar    1  UNL1        0.0298
     18 C         -11.0467  -17.1191   20.0255 C.ar    1  UNL1        0.0068
     19 C          -2.9276  -17.9912   23.3677 C.3     1  UNL1        0.2895
     20 O          -1.8401  -17.2257   22.6739 O.3     1  UNL1       -0.4654
     21 C          -1.6243  -17.3988   21.1997 C.ar    1  UNL1        0.1415
     22 C          -0.3932  -18.0937   20.6983 C.ar    1  UNL1        0.0371
     23 C          -0.1774  -18.2668   19.2241 C.ar    1  UNL1        0.0054
     24 C          -1.1928  -17.7450   18.2511 C.ar    1  UNL1        0.0298
     25 C          -2.4240  -17.0501   18.7524 C.ar    1  UNL1        0.1432
     26 F          -3.4394  -16.5282   17.7795 F       1  UNL1       -0.2041
     27 C          -2.6397  -16.8770   20.2267 C.ar    1  UNL1        0.0665
@<TRIPOS>BOND
     1     1     2    2
     2     2    12    1
     3    12    13   ar
     4    13    14   ar
     5    14    15   ar
     6    15    16    1
     7    15    17   ar
     8    17    18   ar
     9     2     3   am
    10     3     4    1
    11     4     5    1
    12     5     6    1
    13     6     7   ar
    14     7     8   ar
    15     8    19    1
    16    19    20    1
    17    20    21    1
    18    21    22   ar
    19    22    23   ar
    20    23    24   ar
    21    24    25   ar
    22    25    26    1
    23    25    27   ar
    24     8     9   ar
    25     9    10   ar
    26    10    11    1
    27    18    12   ar
    28    11     3    1
    29    10     6   ar
    30    27    21   ar
@<TRIPOS>MOLECULE
*****
 27 30 0 0 0
SMALL
GASTEIGER

@<TRIPOS>ATOM
      1 O           3.8491   -1.0429   16.2047 O.2     1  UNL1       -0.2699
      2 C           3.7510   -0.6897   17.6592 C.2     1  UNL1        0.2494
      3 N           4.3545   -1.5938   18.6929 N.am    1  UNL1       -0.2686
      4 C           5.0560   -2.8511   18.2721 C.3     1  UNL1        0.1005
      5 C           5.6594   -3.7551   19.3057 C.3     1  UNL1        0.0703
      6 C           5.5614   -3.4019   20.7602 C.ar    1  UNL1        0.0955
      7 N           6.0557   -4.0930   21.9965 N.ar    1  UNL1       -0.2136
      8 C           5.6597   -3.2628   23.1813 C.ar    1  UNL1        0.2500
      9 O           4.9207   -2.0586   22.6774 O.2     1  UNL1       -0.4379
     10 C           4.8599   -2.1447   21.1811 C.ar    1  UNL1        0.1580
     11 C           4.2565   -1.2406   20.1474 C.3     1  UNL1        0.1598
     12 C           3.0496    0.5676   18.0801 C.ar    1  UNL1        0.0537
     13 C           1.5698    0.5547   18.3252 C.ar    1  UNL1        0.0068
     14 C           0.8683    1.8120   18.7461 C.ar    1  UNL1        0.0298
     15 C           1.6466    3.0822   18.9218 C.ar    1  UNL1        0.1401
     16 F           0.9451    4.3395   19.3427 F       1  UNL1       -0.2042
     17 C           3.1264    3.0951   18.6767 C.ar    1  UNL1        0.0298
     18 C           3.8279    1.8378   18.2558 C.ar    1  UNL1        0.0068
     19 C           5.9515   -3.5808   24.6179 C.3     1  UNL1        0.2895
     20 O           7.3405   -3.9651   25.0338 O.3     1  UNL1       -0.4654
     21 C           7.5865   -5.2895   25.6936 C.ar    1  UNL1        0.1415
     22 C           7.8761   -6.5013   24.8582 C.ar    1  UNL1        0.0371
     23 C           8.1220   -7.8257   25.5180 C.ar    1  UNL1        0.0054
     24 C           8.0784   -7.9385   27.0131 C.ar    1  UNL1        0.0298
     25 C           7.7888   -6.7267   27.8485 C.ar    1  UNL1        0.1432
     26 F           7.7452   -6.8394   29.3436 F       1  UNL1       -0.2041
     27 C           7.5428   -5.4022   27.1887 C.ar    1  UNL1        0.0665
@<TRIPOS>BOND
     1     1     2    2
     2     2    12    1
     3    12    13   ar
     4    13    14   ar
     5    14    15   ar
     6    15    16    1
     7    15    17   ar
     8    17    18   ar
     9     2     3   am
    10     3     4    1
    11     4     5    1
    12     5     6    1
    13     6     7   ar
    14     7     8   ar
    15     8    19    1
    16    19    20    1
    17    20    21    1
    18    21    22   ar
    19    22    23   ar
    20    23    24   ar
    21    24    25   ar
    22    25    26    1
    23    25    27   ar
    24     8     9   ar
    25     9    10   ar
    26    10    11    1
    27    18    12   ar
    28    11     3    1
    29    10     6   ar
    30    27    21   ar
@<TRIPOS>MOLECULE
*****
 27 30 0 0 0
SMALL
GASTEIGER

@<TRIPOS>ATOM
      1 O           7.1228   -6.0182   32.0526 O.2     1  UNL1       -0.2699
      2 C           6.9068   -4.7293   31.3163 C.2     1  UNL1        0.2494
      3 N           6.8575   -4.7212   29.8171 N.am    1  UNL1       -0.2686
      4 C           7.0241   -6.0020   29.0543 C.3     1  UNL1        0.1005
      5 C           6.9747   -5.9938   27.5551 C.3     1  UNL1        0.0703
      6 C           6.7588   -4.7050   26.8188 C.ar    1  UNL1        0.0955
      7 N           6.6646   -4.3886   25.3555 N.ar    1  UNL1       -0.2136
      8 C           6.4398   -2.9123   25.2140 C.ar    1  UNL1        0.2500
      9 O           6.3951   -2.3163   26.5898 O.2     1  UNL1       -0.4379
     10 C           6.5922   -3.4242   27.5816 C.ar    1  UNL1        0.1580
     11 C           6.6416   -3.4323   29.0807 C.3     1  UNL1        0.1598
     12 C           6.7403   -3.4485   32.0791 C.ar    1  UNL1        0.0537
     13 C           7.9350   -2.5914   32.3757 C.ar    1  UNL1        0.0068
     14 C           7.7684   -1.3106   33.1385 C.ar    1  UNL1        0.0298
     15 C           6.4071   -0.8870   33.6047 C.ar    1  UNL1        0.1401
     16 F           6.2405    0.3938   34.3675 F       1  UNL1       -0.2042
     17 C           5.2124   -1.7441   33.3081 C.ar    1  UNL1        0.0298
     18 C           5.3789   -3.0249   32.5453 C.ar    1  UNL1        0.0068
     19 C           6.2866   -2.1635   23.9233 C.3     1  UNL1        0.2895
     20 O           6.5809   -2.8463   22.6206 O.3     1  UNL1       -0.4654
     21 C           5.5434   -2.8751   21.5377 C.ar    1  UNL1        0.1415
     22 C           4.4442   -1.8545   21.5248 C.ar    1  UNL1        0.0371
     23 C           3.4067   -1.8834   20.4420 C.ar    1  UNL1        0.0054
     24 C           3.4683   -2.9328   19.3719 C.ar    1  UNL1        0.0298
     25 C           4.5675   -3.9534   19.3848 C.ar    1  UNL1        0.1432
     26 F           4.6291   -5.0028   18.3148 F       1  UNL1       -0.2041
     27 C           5.6051   -3.9245   20.4677 C.ar    1  UNL1        0.0665
@<TRIPOS>BOND
     1     1     2    2
     2     2    12    1
     3    12    13   ar
     4    13    14   ar
     5    14    15   ar
     6    15    16    1
     7    15    17   ar
     8    17    18   ar
     9     2     3   am
    10     3     4    1
    11     4     5    1
    12     5     6    1
    13     6     7   ar
    14     7     8   ar
    15     8    19    1
    16    19    20    1
    17    20    21    1
    18    21    22   ar
    19    22    23   ar
    20    23    24   ar
    21    24    25   ar
    22    25    26    1
    23    25    27   ar
    24     8     9   ar
    25     9    10   ar
    26    10    11    1
    27    18    12   ar
    28    11     3    1
    29    10     6   ar
    30    27    21   ar
@<TRIPOS>MOLECULE
*****
 27 30 0 0 0
SMALL
GASTEIGER

@<TRIPOS>ATOM
      1 O           9.0318   -6.8867   31.5727 O.2     1  UNL1       -0.2699
      2 C           8.4560   -5.7310   30.8093 C.2     1  UNL1        0.2494
      3 N           8.2164   -5.8517   29.3335 N.am    1  UNL1       -0.2686
      4 C           8.5527   -7.1282   28.6211 C.3     1  UNL1        0.1005
      5 C           8.3131   -7.2489   27.1453 C.3     1  UNL1        0.0703
      6 C           7.7373   -6.0932   26.3819 C.ar    1  UNL1        0.0955
      7 N           7.3935   -5.9194   24.9321 N.ar    1  UNL1       -0.2136
      8 C           6.8448   -4.5355   24.7486 C.ar    1  UNL1        0.2500
      9 O           6.8495   -3.8540   26.0849 O.2     1  UNL1       -0.4379
     10 C           7.4011   -4.8167   27.0943 C.ar    1  UNL1        0.1580
     11 C           7.6406   -4.6960   28.5701 C.3     1  UNL1        0.1598
     12 C           8.1197   -4.4545   31.5217 C.ar    1  UNL1        0.0537
     13 C           6.6995   -4.1613   31.9052 C.ar    1  UNL1        0.0068
     14 C           6.3633   -2.8847   32.6176 C.ar    1  UNL1        0.0298
     15 C           7.4473   -1.9015   32.9465 C.ar    1  UNL1        0.1401
     16 F           7.1111   -0.6251   33.6589 F       1  UNL1       -0.2042
     17 C           8.8675   -2.1947   32.5631 C.ar    1  UNL1        0.0298
     18 C           9.2037   -3.4712   31.8507 C.ar    1  UNL1        0.0068
     19 C           6.3740   -3.9379   23.4558 C.3     1  UNL1        0.2895
     20 O           4.9831   -3.3870   23.3467 O.3     1  UNL1       -0.4654
     21 C           4.4063   -3.0680   21.9994 C.ar    1  UNL1        0.1415
     22 C           3.7308   -1.7492   21.7658 C.ar    1  UNL1        0.0371
     23 C           3.1540   -1.4302   20.4185 C.ar    1  UNL1        0.0054
     24 C           3.2526   -2.4300   19.3045 C.ar    1  UNL1        0.0298
     25 C           3.9281   -3.7487   19.5381 C.ar    1  UNL1        0.1432
     26 F           4.0267   -4.7485   18.4242 F       1  UNL1       -0.2041
     27 C           4.5049   -4.0677   20.8855 C.ar    1  UNL1        0.0665
@<TRIPOS>BOND
     1     1     2    2
     2     2    12    1
     3    12    13   ar
     4    13    14   ar
     5    14    15   ar
     6    15    16    1
     7    15    17   ar
     8    17    18   ar
     9     2     3   am
    10     3     4    1
    11     4     5    1
    12     5     6    1
    13     6     7   ar
    14     7     8   ar
    15     8    19    1
    16    19    20    1
    17    20    21    1
    18    21    22   ar
    19    22    23   ar
    20    23    24   ar
    21    24    25   ar
    22    25    26    1
    23    25    27   ar
    24     8     9   ar
    25     9    10   ar
    26    10    11    1
    27    18    12   ar
    28    11     3    1
    29    10     6   ar
    30    27    21   ar
@<TRIPOS>MOLECULE
*****
 27 30 0 0 0
SMALL
GASTEIGER

@<TRIPOS>ATOM
      1 O           3.7918   -0.9527   16.5499 O.2     1  UNL1       -0.2699
      2 C           3.7988   -1.0289   18.0480 C.2     1  UNL1        0.2494
      3 N           2.8412   -0.1943   18.8459 N.am    1  UNL1       -0.2686
      4 C           1.8767    0.7165   18.1457 C.3     1  UNL1        0.1005
      5 C           0.9193    1.5511   18.9436 C.3     1  UNL1        0.0703
      6 C           0.9263    1.4749   20.4416 C.ar    1  UNL1        0.0955
      7 N           0.1063    2.1728   21.4860 N.ar    1  UNL1       -0.2136
      8 C           0.5640    1.6934   22.8315 C.ar    1  UNL1        0.2500
      9 O           1.6669    0.6992   22.6188 O.2     1  UNL1       -0.4379
     10 C           1.8908    0.5642   21.1418 C.ar    1  UNL1        0.1580
     11 C           2.8483   -0.2704   20.3439 C.3     1  UNL1        0.1598
     12 C           4.7633   -1.9396   18.7481 C.ar    1  UNL1        0.0537
     13 C           6.1129   -1.4299   19.1587 C.ar    1  UNL1        0.0068
     14 C           7.0775   -2.3407   19.8589 C.ar    1  UNL1        0.0298
     15 C           6.6923   -3.7612   20.1485 C.ar    1  UNL1        0.1401
     16 F           7.6568   -4.6719   20.8486 F       1  UNL1       -0.2042
     17 C           5.3426   -4.2709   19.7379 C.ar    1  UNL1        0.0298
     18 C           4.3781   -3.3602   19.0377 C.ar    1  UNL1        0.0068
     19 C           0.0153    2.1313   24.1572 C.3     1  UNL1        0.2895
     20 O           0.9376    2.3221   25.3246 O.3     1  UNL1       -0.4654
     21 C           0.7730    1.4813   26.5558 C.ar    1  UNL1        0.1415
     22 C           1.9644    0.8059   27.1676 C.ar    1  UNL1        0.0371
     23 C           1.7998   -0.0349   28.3988 C.ar    1  UNL1        0.0054
     24 C           0.4437   -0.2005   29.0182 C.ar    1  UNL1        0.0298
     25 C          -0.7478    0.4748   28.4063 C.ar    1  UNL1        0.1432
     26 F          -2.1039    0.3093   29.0256 F       1  UNL1       -0.2041
     27 C          -0.5831    1.3157   27.1751 C.ar    1  UNL1        0.0665
@<TRIPOS>BOND
     1     1     2    2
     2     2    12    1
     3    12    13   ar
     4    13    14   ar
     5    14    15   ar
     6    15    16    1
     7    15    17   ar
     8    17    18   ar
     9     2     3   am
    10     3     4    1
    11     4     5    1
    12     5     6    1
    13     6     7   ar
    14     7     8   ar
    15     8    19    1
    16    19    20    1
    17    20    21    1
    18    21    22   ar
    19    22    23   ar
    20    23    24   ar
    21    24    25   ar
    22    25    26    1
    23    25    27   ar
    24     8     9   ar
    25     9    10   ar
    26    10    11    1
    27    18    12   ar
    28    11     3    1
    29    10     6   ar
    30    27    21   ar
@<TRIPOS>MOLECULE
*****
 27 30 0 0 0
SMALL
GASTEIGER

@<TRIPOS>ATOM
      1 O         -11.8005  -15.9476   23.5827 O.2     1  UNL1       -0.2699
      2 C         -10.6002  -16.5718   22.9349 C.2     1  UNL1        0.2494
      3 N          -9.2348  -16.3514   23.5159 N.am    1  UNL1       -0.2686
      4 C          -9.0699  -15.5069   24.7445 C.3     1  UNL1        0.1005
      5 C          -7.7047  -15.2866   25.3254 C.3     1  UNL1        0.0703
      6 C          -6.5043  -15.9107   24.6776 C.ar    1  UNL1        0.0955
      7 N          -5.0445  -15.8715   25.0207 N.ar    1  UNL1       -0.2136
      8 C          -4.3073  -16.6917   24.0040 C.ar    1  UNL1        0.2500
      9 O          -5.3114  -17.2379   23.0327 O.2     1  UNL1       -0.4379
     10 C          -6.6692  -16.7552   23.4490 C.ar    1  UNL1        0.1580
     11 C          -8.0345  -16.9756   22.8681 C.3     1  UNL1        0.1598
     12 C         -10.7651  -17.4163   21.7063 C.ar    1  UNL1        0.0537
     13 C         -10.6356  -18.9079   21.7985 C.ar    1  UNL1        0.0068
     14 C         -10.8006  -19.7524   20.5698 C.ar    1  UNL1        0.0298
     15 C         -11.0949  -19.1053   19.2490 C.ar    1  UNL1        0.1401
     16 F         -11.2598  -19.9498   18.0203 F       1  UNL1       -0.2042
     17 C         -11.2243  -17.6138   19.1568 C.ar    1  UNL1        0.0298
     18 C         -11.0594  -16.7693   20.3854 C.ar    1  UNL1        0.0068
     19 C          -2.8260  -16.9249   23.9654 C.3     1  UNL1        0.2895
     20 O          -2.2771  -18.1530   23.3017 O.3     1  UNL1       -0.4654
     21 C          -2.4114  -18.3272   21.8179 C.ar    1  UNL1        0.1415
     22 C          -1.7949  -17.3261   20.8864 C.ar    1  UNL1        0.0371
     23 C          -1.9292  -17.5003   19.4026 C.ar    1  UNL1        0.0054
     24 C          -2.6800  -18.6756   18.8503 C.ar    1  UNL1        0.0298
     25 C          -3.2965  -19.6767   19.7819 C.ar    1  UNL1        0.1432
     26 F          -4.0472  -20.8520   19.2296 F       1  UNL1       -0.2041
     27 C          -3.1622  -19.5025   21.2657 C.ar    1  UNL1        0.0665
@<TRIPOS>BOND
     1     1     2    2
     2     2    12    1
     3    12    13   ar
     4    13    14   ar
     5    14    15   ar
     6    15    16    1
     7    15    17   ar
     8    17    18   ar
     9     2     3   am
    10     3     4    1
    11     4     5    1
    12     5     6    1
    13     6     7   ar
    14     7     8   ar
    15     8    19    1
    16    19    20    1
    17    20    21    1
    18    21    22   ar
    19    22    23   ar
    20    23    24   ar
    21    24    25   ar
    22    25    26    1
    23    25    27   ar
    24     8     9   ar
    25     9    10   ar
    26    10    11    1
    27    18    12   ar
    28    11     3    1
    29    10     6   ar
    30    27    21   ar
@<TRIPOS>MOLECULE
*****
 27 30 0 0 0
SMALL
GASTEIGER

@<TRIPOS>ATOM
      1 O           3.5368   -0.9138   16.5940 O.2     1  UNL1       -0.2699
      2 C           3.5782   -0.9990   18.0910 C.2     1  UNL1        0.2494
      3 N           2.6431   -0.1652   18.9159 N.am    1  UNL1       -0.2686
      4 C           1.6666    0.7538   18.2437 C.3     1  UNL1        0.1005
      5 C           0.7315    1.5876   19.0685 C.3     1  UNL1        0.0703
      6 C           0.7729    1.5024   20.5655 C.ar    1  UNL1        0.0955
      7 N          -0.0197    2.1975   21.6327 N.ar    1  UNL1       -0.2136
      8 C           0.4671    1.7080   22.9644 C.ar    1  UNL1        0.2500
      9 O           1.5604    0.7105   22.7203 O.2     1  UNL1       -0.4379
     10 C           1.7494    0.5834   21.2377 C.ar    1  UNL1        0.1580
     11 C           2.6845   -0.2504   20.4129 C.3     1  UNL1        0.1598
     12 C           4.5547   -1.9180   18.7632 C.ar    1  UNL1        0.0537
     13 C           5.9134   -1.4146   19.1512 C.ar    1  UNL1        0.0068
     14 C           6.8899   -2.3337   19.8234 C.ar    1  UNL1        0.0298
     15 C           6.5077   -3.7560   20.1076 C.ar    1  UNL1        0.1401
     16 F           7.4842   -4.6750   20.7798 F       1  UNL1       -0.2042
     17 C           5.1490   -4.2594   19.7196 C.ar    1  UNL1        0.0298
     18 C           4.1725   -3.3404   19.0474 C.ar    1  UNL1        0.0068
     19 C          -0.0489    2.1402   24.3050 C.3     1  UNL1        0.2895
     20 O          -0.6894    3.4873   24.4634 O.3     1  UNL1       -0.4654
     21 C          -2.1559    3.5901   24.7612 C.ar    1  UNL1        0.1415
     22 C          -2.6194    3.8690   26.1603 C.ar    1  UNL1        0.0371
     23 C          -4.0859    3.9718   26.4581 C.ar    1  UNL1        0.0054
     24 C          -5.0890    3.7957   25.3569 C.ar    1  UNL1        0.0298
     25 C          -4.6256    3.5168   23.9578 C.ar    1  UNL1        0.1432
     26 F          -5.6287    3.3407   22.8565 F       1  UNL1       -0.2041
     27 C          -3.1590    3.4140   23.6600 C.ar    1  UNL1        0.0665
@<TRIPOS>BOND
     1     1     2    2
     2     2    12    1
     3    12    13   ar
     4    13    14   ar
     5    14    15   ar
     6    15    16    1
     7    15    17   ar
     8    17    18   ar
     9     2     3   am
    10     3     4    1
    11     4     5    1
    12     5     6    1
    13     6     7   ar
    14     7     8   ar
    15     8    19    1
    16    19    20    1
    17    20    21    1
    18    21    22   ar
    19    22    23   ar
    20    23    24   ar
    21    24    25   ar
    22    25    26    1
    23    25    27   ar
    24     8     9   ar
    25     9    10   ar
    26    10    11    1
    27    18    12   ar
    28    11     3    1
    29    10     6   ar
    30    27    21   ar
@<TRIPOS>MOLECULE
*****
 27 30 0 0 0
SMALL
GASTEIGER

@<TRIPOS>ATOM
      1 O           4.0362   -0.9851   16.3271 O.2     1  UNL1       -0.2699
      2 C           4.0152   -0.8476   17.8206 C.2     1  UNL1        0.2494
      3 N           5.1652   -1.3585   18.6371 N.am    1  UNL1       -0.2686
      4 C           6.3361   -2.0068   17.9600 C.3     1  UNL1        0.1005
      5 C           7.4860   -2.5177   18.7765 C.3     1  UNL1        0.0703
      6 C           7.4650   -2.3802   20.2700 C.ar    1  UNL1        0.0955
      7 N           8.4468   -2.7856   21.3292 N.ar    1  UNL1       -0.2136
      8 C           7.8825   -2.3879   22.6609 C.ar    1  UNL1        0.2500
      9 O           6.5521   -1.7366   22.4247 O.2     1  UNL1       -0.4379
     10 C           6.2940   -1.7319   20.9471 C.ar    1  UNL1        0.1580
     11 C           5.1441   -1.2211   20.1306 C.3     1  UNL1        0.1598
     12 C           2.8442   -0.1993   18.4977 C.ar    1  UNL1        0.0537
     13 C           2.0246   -0.9758   19.4853 C.ar    1  UNL1        0.0068
     14 C           0.8536   -0.3274   20.1624 C.ar    1  UNL1        0.0298
     15 C           0.5022    1.0974   19.8518 C.ar    1  UNL1        0.1401
     16 F          -0.6688    1.7457   20.5289 F       1  UNL1       -0.2042
     17 C           1.3218    1.8739   18.8642 C.ar    1  UNL1        0.0298
     18 C           2.4927    1.2256   18.1871 C.ar    1  UNL1        0.0068
     19 C           8.5343   -2.6034   23.9946 C.3     1  UNL1        0.2895
     20 O           7.7441   -3.1821   25.1307 O.3     1  UNL1       -0.4654
     21 C           7.7010   -4.6676   25.3343 C.ar    1  UNL1        0.1415
     22 C           7.0231   -5.2395   26.5441 C.ar    1  UNL1        0.0371
     23 C           6.9800   -6.7249   26.7476 C.ar    1  UNL1        0.0054
     24 C           7.6147   -7.6386   25.7414 C.ar    1  UNL1        0.0298
     25 C           8.2925   -7.0668   24.5316 C.ar    1  UNL1        0.1432
     26 F           8.9272   -7.9804   23.5254 F       1  UNL1       -0.2041
     27 C           8.3356   -5.5812   24.3281 C.ar    1  UNL1        0.0665
@<TRIPOS>BOND
     1     1     2    2
     2     2    12    1
     3    12    13   ar
     4    13    14   ar
     5    14    15   ar
     6    15    16    1
     7    15    17   ar
     8    17    18   ar
     9     2     3   am
    10     3     4    1
    11     4     5    1
    12     5     6    1
    13     6     7   ar
    14     7     8   ar
    15     8    19    1
    16    19    20    1
    17    20    21    1
    18    21    22   ar
    19    22    23   ar
    20    23    24   ar
    21    24    25   ar
    22    25    26    1
    23    25    27   ar
    24     8     9   ar
    25     9    10   ar
    26    10    11    1
    27    18    12   ar
    28    11     3    1
    29    10     6   ar
    30    27    21   ar
