@<TRIPOS>MOLECULE
*****
 36 40 0 0 0
SMALL
GASTEIGER

@<TRIPOS>ATOM
      1 C           3.2388   -0.5356   17.5067 C.3     1  UNL1        0.0177
      2 C           4.3943   -0.3284   18.4405 C.3     1  UNL1        0.0626
      3 C           5.2057    0.9308   18.3617 C.3     1  UNL1        0.0436
      4 C           6.3612    1.1381   19.2955 C.2     1  UNL1       -0.0045
      5 C           6.7052    0.0862   20.3080 C.2     1  UNL1        0.0735
      6 N           7.8915    0.5664   21.0904 N.2     1  UNL1       -0.2523
      7 C           8.2807    1.9150   20.5613 C.2     1  UNL1        0.0627
      8 C           9.3741    2.8669   20.9464 C.3     1  UNL1        0.0717
      9 C           9.5217    4.1721   20.2221 C.2     1  UNL1       -0.0198
     10 C           8.5758    4.5254   19.1128 C.2     1  UNL1       -0.0042
     11 C           7.4825    3.5735   18.7277 C.2     1  UNL1        0.0006
     12 C           7.3349    2.2683   19.4520 C.2     1  UNL1        0.0111
     13 C           5.8938   -1.1729   20.3868 C.3     1  UNL1        0.1250
     14 N           4.7383   -1.3802   19.4531 N.3     1  UNL1       -0.2642
     15 C           6.2378   -2.2247   21.3994 C.ar    1  UNL1        0.0528
     16 C           7.3556   -3.1879   21.1301 C.ar    1  UNL1        0.1399
     17 F           8.1295   -3.0993   19.8482 F       1  UNL1       -0.2044
     18 C           7.6996   -4.2398   22.1428 C.ar    1  UNL1        0.0295
     19 C           6.9257   -4.3284   23.4246 C.ar    1  UNL1        0.0044
     20 C           5.8078   -3.3651   23.6939 C.ar    1  UNL1        0.0295
     21 C           5.4638   -2.3134   22.6814 C.ar    1  UNL1        0.1399
     22 F           4.3460   -1.3501   22.9506 F       1  UNL1       -0.2044
     23 C           7.2697   -5.3802   24.4372 C.ar    1  UNL1        0.0001
     24 C           6.8375   -5.2173   25.8643 C.ar    1  UNL1        0.0000
     25 C           7.1815   -6.2692   26.8769 C.ar    1  UNL1        0.0011
     26 C           7.9578   -7.4840   26.4623 C.ar    1  UNL1        0.0140
     27 C           8.3900   -7.6468   25.0352 C.ar    1  UNL1        0.0011
     28 C           8.0459   -6.5949   24.0226 C.ar    1  UNL1        0.0000
     29 C           8.3018   -8.5358   27.4748 C.2     1  UNL1        0.0729
     30 O           9.3488   -8.2629   28.5136 O.co2   1  UNL1       -0.5446
     31 O           7.5988   -9.8606   27.4484 O.co2   1  UNL1       -0.5446
     32 C           3.9269   -2.6393   19.5319 C.3     1  UNL1        0.1055
     33 C           4.5016   -3.9340   19.0386 C.3     1  UNL1        0.1486
     34 C           3.7169   -4.6783   20.0780 C.3     1  UNL1        0.0368
     35 C           5.2862   -3.1898   17.9992 C.3     1  UNL1        0.0368
     36 F           5.0763   -5.2288   18.5453 F       1  UNL1       -0.2386
@<TRIPOS>UNITY_ATOM_ATTR
30 1
charge -1
@<TRIPOS>BOND
     1     2     1    1
     2     2     3    1
     3     3     4    1
     4     4     5    2
     5     5     6    1
     6     6     7    2
     7     7     8    1
     8     8     9    1
     9     9    10    2
    10    10    11    1
    11    11    12    2
    12     5    13    1
    13    13    15    1
    14    15    16   ar
    15    16    17    1
    16    16    18   ar
    17    18    19   ar
    18    19    23    1
    19    23    24   ar
    20    24    25   ar
    21    25    26   ar
    22    26    29    1
    23    29    30   ar
    24    29    31   ar
    25    26    27   ar
    26    27    28   ar
    27    19    20   ar
    28    20    21   ar
    29    21    22    1
    30    13    14    1
    31    14    32    1
    32    32    33    1
    33    33    34    1
    34    33    35    1
    35    33    36    1
    36    14     2    1
    37    12     4    1
    38    21    15   ar
    39    12     7    1
    40    28    23   ar
@<TRIPOS>MOLECULE
*****
 36 40 0 0 0
SMALL
GASTEIGER

@<TRIPOS>ATOM
      1 C          -1.4200    5.0323   16.1022 C.3     1  UNL1        0.0177
      2 C          -1.2287    4.3075   17.4015 C.3     1  UNL1        0.0626
      3 C          -0.2205    3.2014   17.5018 C.3     1  UNL1        0.0436
      4 C          -0.0292    2.4766   18.8010 C.2     1  UNL1       -0.0045
      5 C          -0.8461    2.8578   19.9999 C.2     1  UNL1        0.0735
      6 N          -0.4398    1.9703   21.1389 N.2     1  UNL1       -0.2523
      7 C           0.6281    1.0405   20.6439 C.2     1  UNL1        0.0627
      8 C           1.4023   -0.0506   21.3222 C.3     1  UNL1        0.0717
      9 C           2.4302   -0.8288   20.5556 C.2     1  UNL1       -0.0198
     10 C           2.6840   -0.5160   19.1108 C.2     1  UNL1       -0.0042
     11 C           1.9099    0.5752   18.4324 C.2     1  UNL1        0.0006
     12 C           0.8819    1.3534   19.1990 C.2     1  UNL1        0.0111
     13 C          -1.8543    3.9639   19.8996 C.3     1  UNL1        0.1250
     14 N          -2.0456    4.6888   18.6003 N.3     1  UNL1       -0.2642
     15 C          -2.6712    4.3452   21.0984 C.ar    1  UNL1        0.0528
     16 C          -2.2140    5.4579   21.9944 C.ar    1  UNL1        0.1399
     17 F          -0.9400    6.1894   21.6915 F       1  UNL1       -0.2044
     18 C          -3.0310    5.8392   23.1933 C.ar    1  UNL1        0.0295
     19 C          -4.3051    5.1077   23.4962 C.ar    1  UNL1        0.0044
     20 C          -4.7622    3.9949   22.6001 C.ar    1  UNL1        0.0295
     21 C          -3.9453    3.6137   21.4013 C.ar    1  UNL1        0.1399
     22 F          -4.4024    2.5010   20.5053 F       1  UNL1       -0.2044
     23 C          -5.1220    5.4890   24.6950 C.ar    1  UNL1        0.0001
     24 C          -4.5404    5.3578   26.0715 C.ar    1  UNL1        0.0000
     25 C          -5.3572    5.7391   27.2703 C.ar    1  UNL1        0.0011
     26 C          -6.7558    6.2516   27.0928 C.ar    1  UNL1        0.0140
     27 C          -7.3374    6.3828   25.7164 C.ar    1  UNL1        0.0011
     28 C          -6.5204    6.0015   24.5175 C.ar    1  UNL1        0.0000
     29 C          -7.5727    6.6329   28.2916 C.2     1  UNL1        0.0729
     30 O          -7.3528    5.9361   29.6016 O.co2   1  UNL1       -0.5446
     31 O          -8.6097    7.7110   28.1804 O.co2   1  UNL1       -0.5446
     32 C          -3.0538    5.7949   18.5000 C.3     1  UNL1        0.1055
     33 C          -4.5191    5.4835   18.5785 C.3     1  UNL1        0.1486
     34 C          -4.7251    6.6764   19.4642 C.3     1  UNL1        0.0368
     35 C          -4.3130    4.2907   17.6927 C.3     1  UNL1        0.0368
     36 F          -5.9843    5.1722   18.6569 F       1  UNL1       -0.2386
@<TRIPOS>UNITY_ATOM_ATTR
30 1
charge -1
@<TRIPOS>BOND
     1     2     1    1
     2     2     3    1
     3     3     4    1
     4     4     5    2
     5     5     6    1
     6     6     7    2
     7     7     8    1
     8     8     9    1
     9     9    10    2
    10    10    11    1
    11    11    12    2
    12     5    13    1
    13    13    15    1
    14    15    16   ar
    15    16    17    1
    16    16    18   ar
    17    18    19   ar
    18    19    23    1
    19    23    24   ar
    20    24    25   ar
    21    25    26   ar
    22    26    29    1
    23    29    30   ar
    24    29    31   ar
    25    26    27   ar
    26    27    28   ar
    27    19    20   ar
    28    20    21   ar
    29    21    22    1
    30    13    14    1
    31    14    32    1
    32    32    33    1
    33    33    34    1
    34    33    35    1
    35    33    36    1
    36    14     2    1
    37    12     4    1
    38    21    15   ar
    39    12     7    1
    40    28    23   ar
@<TRIPOS>MOLECULE
*****
 36 40 0 0 0
SMALL
GASTEIGER

@<TRIPOS>ATOM
      1 C           6.3940    0.1505   17.0980 C.3     1  UNL1        0.0177
      2 C           6.0618   -0.3735   18.4637 C.3     1  UNL1        0.0626
      3 C           6.8489   -1.5119   19.0421 C.3     1  UNL1        0.0436
      4 C           6.5167   -2.0360   20.4078 C.2     1  UNL1       -0.0045
      5 C           5.3974   -1.4216   21.1950 C.2     1  UNL1        0.0735
      6 N           5.3013   -2.1446   22.5057 N.2     1  UNL1       -0.2523
      7 C           6.3612   -3.2058   22.5286 C.2     1  UNL1        0.0627
      8 C           6.7394   -4.2245   23.5625 C.3     1  UNL1        0.0717
      9 C           7.8687   -5.1761   23.2998 C.2     1  UNL1       -0.0198
     10 C           8.6199   -5.1090   22.0032 C.2     1  UNL1       -0.0042
     11 C           8.2417   -4.0902   20.9693 C.2     1  UNL1        0.0006
     12 C           7.1124   -3.1387   21.2319 C.2     1  UNL1        0.0111
     13 C           4.6103   -0.2832   20.6166 C.3     1  UNL1        0.1250
     14 N           4.9425    0.2408   19.2509 N.3     1  UNL1       -0.2642
     15 C           3.4910    0.3311   21.4038 C.ar    1  UNL1        0.0528
     16 C           2.1072   -0.2400   21.3110 C.ar    1  UNL1        0.1399
     17 F           1.8425   -1.4255   20.4309 F       1  UNL1       -0.2044
     18 C           0.9878    0.3744   22.0982 C.ar    1  UNL1        0.0295
     19 C           1.2525    1.5599   22.9783 C.ar    1  UNL1        0.0044
     20 C           2.6364    2.1311   23.0711 C.ar    1  UNL1        0.0295
     21 C           3.7556    1.5167   22.2839 C.ar    1  UNL1        0.1399
     22 F           5.1395    2.0878   22.3767 F       1  UNL1       -0.2044
     23 C           0.1332    2.1743   23.7655 C.ar    1  UNL1        0.0001
     24 C          -0.7940    3.1551   23.1110 C.ar    1  UNL1        0.0000
     25 C          -1.9133    3.7695   23.8982 C.ar    1  UNL1        0.0011
     26 C          -2.1055    3.4030   25.3401 C.ar    1  UNL1        0.0140
     27 C          -1.1783    2.4222   25.9946 C.ar    1  UNL1        0.0011
     28 C          -0.0590    1.8078   25.2073 C.ar    1  UNL1        0.0000
     29 C          -3.2247    4.0173   26.1273 C.2     1  UNL1        0.0729
     30 O          -2.9372    5.1140   27.1094 O.co2   1  UNL1       -0.5446
     31 O          -4.6316    3.5348   25.9325 O.co2   1  UNL1       -0.5446
     32 C           4.1554    1.3792   18.6725 C.3     1  UNL1        0.1055
     33 C           2.7147    1.1838   18.3033 C.3     1  UNL1        0.1486
     34 C           3.0536   -0.1381   17.6806 C.3     1  UNL1        0.0368
     35 C           2.3758    2.5056   18.9261 C.3     1  UNL1        0.0368
     36 F           1.2741    0.9884   17.9342 F       1  UNL1       -0.2386
@<TRIPOS>UNITY_ATOM_ATTR
30 1
charge -1
@<TRIPOS>BOND
     1     2     1    1
     2     2     3    1
     3     3     4    1
     4     4     5    2
     5     5     6    1
     6     6     7    2
     7     7     8    1
     8     8     9    1
     9     9    10    2
    10    10    11    1
    11    11    12    2
    12     5    13    1
    13    13    15    1
    14    15    16   ar
    15    16    17    1
    16    16    18   ar
    17    18    19   ar
    18    19    23    1
    19    23    24   ar
    20    24    25   ar
    21    25    26   ar
    22    26    29    1
    23    29    30   ar
    24    29    31   ar
    25    26    27   ar
    26    27    28   ar
    27    19    20   ar
    28    20    21   ar
    29    21    22    1
    30    13    14    1
    31    14    32    1
    32    32    33    1
    33    33    34    1
    34    33    35    1
    35    33    36    1
    36    14     2    1
    37    12     4    1
    38    21    15   ar
    39    12     7    1
    40    28    23   ar
@<TRIPOS>MOLECULE
*****
 36 40 0 0 0
SMALL
GASTEIGER

@<TRIPOS>ATOM
      1 C           4.2076   -0.6854   16.6915 C.3     1  UNL1        0.0177
      2 C           4.5887   -0.2942   18.0886 C.3     1  UNL1        0.0626
      3 C           4.5408    1.1465   18.5035 C.3     1  UNL1        0.0436
      4 C           4.9220    1.5377   19.9006 C.2     1  UNL1       -0.0045
      5 C           5.3511    0.4882   20.8826 C.2     1  UNL1        0.0735
      6 N           5.6666    1.1698   22.1810 N.2     1  UNL1       -0.2523
      7 C           5.4326    2.6405   22.0014 C.2     1  UNL1        0.0627
      8 C           5.5791    3.8020   22.9391 C.3     1  UNL1        0.0717
      9 C           5.2654    5.1909   22.4675 C.2     1  UNL1       -0.0198
     10 C           4.8052    5.4183   21.0580 C.2     1  UNL1       -0.0042
     11 C           4.6587    4.2568   20.1203 C.2     1  UNL1        0.0006
     12 C           4.9724    2.8679   20.5920 C.2     1  UNL1        0.0111
     13 C           5.3990   -0.9525   20.4677 C.3     1  UNL1        0.1250
     14 N           5.0178   -1.3437   19.0707 N.3     1  UNL1       -0.2642
     15 C           5.8280   -2.0020   21.4497 C.ar    1  UNL1        0.0528
     16 C           4.8559   -2.5174   22.4691 C.ar    1  UNL1        0.1399
     17 F           3.4547   -1.9834   22.5065 F       1  UNL1       -0.2044
     18 C           5.2851   -3.5669   23.4512 C.ar    1  UNL1        0.0295
     19 C           6.6863   -4.1010   23.4138 C.ar    1  UNL1        0.0044
     20 C           7.6584   -3.5855   22.3944 C.ar    1  UNL1        0.0295
     21 C           7.2293   -2.5360   21.4124 C.ar    1  UNL1        0.1399
     22 F           8.2014   -2.0205   20.3929 F       1  UNL1       -0.2044
     23 C           7.1153   -5.1505   24.3959 C.ar    1  UNL1        0.0001
     24 C           6.7816   -4.9979   25.8503 C.ar    1  UNL1        0.0000
     25 C           7.2106   -6.0474   26.8324 C.ar    1  UNL1        0.0011
     26 C           7.9735   -7.2495   26.3601 C.ar    1  UNL1        0.0140
     27 C           8.3073   -7.4021   24.9056 C.ar    1  UNL1        0.0011
     28 C           7.8782   -6.3525   23.9235 C.ar    1  UNL1        0.0000
     29 C           8.4026   -8.2990   27.3420 C.2     1  UNL1        0.0729
     30 O           7.7375   -9.6435   27.3414 O.co2   1  UNL1       -0.5446
     31 O           9.4969   -8.0040   28.3247 O.co2   1  UNL1       -0.5446
     32 C           5.0657   -2.7844   18.6557 C.3     1  UNL1        0.1055
     33 C           4.0294   -3.7448   19.1594 C.3     1  UNL1        0.1486
     34 C           3.0295   -2.6289   19.2296 C.3     1  UNL1        0.0368
     35 C           5.0294   -4.8606   19.0891 C.3     1  UNL1        0.0368
     36 F           2.9931   -4.7052   19.6630 F       1  UNL1       -0.2386
@<TRIPOS>UNITY_ATOM_ATTR
30 1
charge -1
@<TRIPOS>BOND
     1     2     1    1
     2     2     3    1
     3     3     4    1
     4     4     5    2
     5     5     6    1
     6     6     7    2
     7     7     8    1
     8     8     9    1
     9     9    10    2
    10    10    11    1
    11    11    12    2
    12     5    13    1
    13    13    15    1
    14    15    16   ar
    15    16    17    1
    16    16    18   ar
    17    18    19   ar
    18    19    23    1
    19    23    24   ar
    20    24    25   ar
    21    25    26   ar
    22    26    29    1
    23    29    30   ar
    24    29    31   ar
    25    26    27   ar
    26    27    28   ar
    27    19    20   ar
    28    20    21   ar
    29    21    22    1
    30    13    14    1
    31    14    32    1
    32    32    33    1
    33    33    34    1
    34    33    35    1
    35    33    36    1
    36    14     2    1
    37    12     4    1
    38    21    15   ar
    39    12     7    1
    40    28    23   ar
@<TRIPOS>MOLECULE
*****
 36 40 0 0 0
SMALL
GASTEIGER

@<TRIPOS>ATOM
      1 C           9.4222   -2.7892   18.9382 C.3     1  UNL1        0.0177
      2 C           8.6753   -3.1383   20.1914 C.3     1  UNL1        0.0626
      3 C           9.0987   -4.3202   21.0122 C.3     1  UNL1        0.0436
      4 C           8.3519   -4.6693   22.2654 C.2     1  UNL1       -0.0045
      5 C           7.1817   -3.8364   22.6977 C.2     1  UNL1        0.0735
      6 N           6.6425   -4.4197   23.9701 N.2     1  UNL1       -0.2523
      7 C           7.4795   -5.6131   24.3242 C.2     1  UNL1        0.0627
      8 C           7.4162   -6.5792   25.4699 C.3     1  UNL1        0.0717
      9 C           8.4093   -7.6995   25.5619 C.2     1  UNL1       -0.0198
     10 C           9.4658   -7.8537   24.5084 C.2     1  UNL1       -0.0042
     11 C           9.5292   -6.8876   23.3627 C.2     1  UNL1        0.0006
     12 C           8.5360   -5.7673   23.2706 C.2     1  UNL1        0.0111
     13 C           6.7582   -2.6545   21.8768 C.3     1  UNL1        0.1250
     14 N           7.5050   -2.3054   20.6237 N.3     1  UNL1       -0.2642
     15 C           5.5880   -1.8217   22.3091 C.ar    1  UNL1        0.0528
     16 C           5.8052   -0.6116   23.1683 C.ar    1  UNL1        0.1399
     17 F           7.1928   -0.2343   23.5953 F       1  UNL1       -0.2044
     18 C           4.6349    0.2212   23.6006 C.ar    1  UNL1        0.0295
     19 C           3.2473   -0.1561   23.1736 C.ar    1  UNL1        0.0044
     20 C           3.0301   -1.3663   22.3143 C.ar    1  UNL1        0.0295
     21 C           4.2003   -2.1990   21.8821 C.ar    1  UNL1        0.1399
     22 F           3.9832   -3.4092   21.0228 F       1  UNL1       -0.2044
     23 C           2.0771    0.6767   23.6059 C.ar    1  UNL1        0.0001
     24 C           1.6588    0.6922   25.0463 C.ar    1  UNL1        0.0000
     25 C           0.4885    1.5250   25.4786 C.ar    1  UNL1        0.0011
     26 C          -0.2635    2.3425   24.4704 C.ar    1  UNL1        0.0140
     27 C           0.1548    2.3270   23.0299 C.ar    1  UNL1        0.0011
     28 C           1.3251    1.4941   22.5977 C.ar    1  UNL1        0.0000
     29 C          -1.4337    3.1753   24.9026 C.2     1  UNL1        0.0729
     30 O          -2.0991    4.0984   23.9252 O.co2   1  UNL1       -0.5446
     31 O          -1.9386    3.0850   26.3122 O.co2   1  UNL1       -0.5446
     32 C           7.0816   -1.1235   19.8028 C.3     1  UNL1        0.1055
     33 C           5.7815   -1.1566   19.0554 C.3     1  UNL1        0.1486
     34 C           5.4860    0.2428   19.5074 C.3     1  UNL1        0.0368
     35 C           6.0770   -2.5559   18.6033 C.3     1  UNL1        0.0368
     36 F           4.4814   -1.1896   18.3080 F       1  UNL1       -0.2386
@<TRIPOS>UNITY_ATOM_ATTR
30 1
charge -1
@<TRIPOS>BOND
     1     2     1    1
     2     2     3    1
     3     3     4    1
     4     4     5    2
     5     5     6    1
     6     6     7    2
     7     7     8    1
     8     8     9    1
     9     9    10    2
    10    10    11    1
    11    11    12    2
    12     5    13    1
    13    13    15    1
    14    15    16   ar
    15    16    17    1
    16    16    18   ar
    17    18    19   ar
    18    19    23    1
    19    23    24   ar
    20    24    25   ar
    21    25    26   ar
    22    26    29    1
    23    29    30   ar
    24    29    31   ar
    25    26    27   ar
    26    27    28   ar
    27    19    20   ar
    28    20    21   ar
    29    21    22    1
    30    13    14    1
    31    14    32    1
    32    32    33    1
    33    33    34    1
    34    33    35    1
    35    33    36    1
    36    14     2    1
    37    12     4    1
    38    21    15   ar
    39    12     7    1
    40    28    23   ar
@<TRIPOS>MOLECULE
*****
 36 40 0 0 0
SMALL
GASTEIGER

@<TRIPOS>ATOM
      1 C           0.3714    3.0131   24.0941 C.3     1  UNL1        0.0177
      2 C           1.3167    1.9364   24.5383 C.3     1  UNL1        0.0626
      3 C           1.8770    0.9703   23.5369 C.3     1  UNL1        0.0436
      4 C           2.8223   -0.1064   23.9810 C.2     1  UNL1       -0.0045
      5 C           3.2073   -0.2169   25.4265 C.2     1  UNL1        0.0735
      6 N           4.1530   -1.3728   25.5671 N.2     1  UNL1       -0.2523
      7 C           4.3524   -1.9765   24.2085 C.2     1  UNL1        0.0627
      8 C           5.1766   -3.1378   23.7375 C.3     1  UNL1        0.0717
      9 C           5.1784   -3.5165   22.2861 C.2     1  UNL1       -0.0198
     10 C           4.3560   -2.7338   21.3057 C.2     1  UNL1       -0.0042
     11 C           3.5318   -1.5725   21.7768 C.2     1  UNL1        0.0006
     12 C           3.5300   -1.1938   23.2282 C.2     1  UNL1        0.0111
     13 C           2.6470    0.7491   26.4279 C.3     1  UNL1        0.1250
     14 N           1.7017    1.8258   25.9838 N.3     1  UNL1       -0.2642
     15 C           3.0320    0.6386   27.8734 C.ar    1  UNL1        0.0528
     16 C           2.2292   -0.2262   28.7994 C.ar    1  UNL1        0.1399
     17 F           1.0412   -0.9804   28.2798 F       1  UNL1       -0.2044
     18 C           2.6142   -0.3367   30.2449 C.ar    1  UNL1        0.0295
     19 C           3.8022    0.4175   30.7644 C.ar    1  UNL1        0.0044
     20 C           4.6051    1.2823   29.8384 C.ar    1  UNL1        0.0295
     21 C           4.2201    1.3928   28.3930 C.ar    1  UNL1        0.1399
     22 F           5.0229    2.2576   27.4669 F       1  UNL1       -0.2044
     23 C           4.1872    0.3069   32.2100 C.ar    1  UNL1        0.0001
     24 C           4.6633    1.5192   32.9542 C.ar    1  UNL1        0.0000
     25 C           5.0483    1.4086   34.3997 C.ar    1  UNL1        0.0011
     26 C           4.9572    0.0857   35.1011 C.ar    1  UNL1        0.0140
     27 C           4.4811   -1.1265   34.3568 C.ar    1  UNL1        0.0011
     28 C           4.0961   -1.0159   32.9113 C.ar    1  UNL1        0.0000
     29 C           5.3422   -0.0249   36.5465 C.2     1  UNL1        0.0729
     30 O           6.6291   -0.6929   36.9309 O.co2   1  UNL1       -0.5446
     31 O           4.4403    0.5324   37.6076 O.co2   1  UNL1       -0.5446
     32 C           1.1415    2.7919   26.9852 C.3     1  UNL1        0.1055
     33 C           0.1999    2.3085   28.0482 C.3     1  UNL1        0.1486
     34 C          -0.5635    1.5301   27.0180 C.3     1  UNL1        0.0368
     35 C           0.9634    3.0869   29.0784 C.3     1  UNL1        0.0368
     36 F          -0.7416    1.8251   29.1111 F       1  UNL1       -0.2386
@<TRIPOS>UNITY_ATOM_ATTR
30 1
charge -1
@<TRIPOS>BOND
     1     2     1    1
     2     2     3    1
     3     3     4    1
     4     4     5    2
     5     5     6    1
     6     6     7    2
     7     7     8    1
     8     8     9    1
     9     9    10    2
    10    10    11    1
    11    11    12    2
    12     5    13    1
    13    13    15    1
    14    15    16   ar
    15    16    17    1
    16    16    18   ar
    17    18    19   ar
    18    19    23    1
    19    23    24   ar
    20    24    25   ar
    21    25    26   ar
    22    26    29    1
    23    29    30   ar
    24    29    31   ar
    25    26    27   ar
    26    27    28   ar
    27    19    20   ar
    28    20    21   ar
    29    21    22    1
    30    13    14    1
    31    14    32    1
    32    32    33    1
    33    33    34    1
    34    33    35    1
    35    33    36    1
    36    14     2    1
    37    12     4    1
    38    21    15   ar
    39    12     7    1
    40    28    23   ar
@<TRIPOS>MOLECULE
*****
 36 40 0 0 0
SMALL
GASTEIGER

@<TRIPOS>ATOM
      1 C           0.3263    2.9882   24.0830 C.3     1  UNL1        0.0177
      2 C           1.2766    1.9191   24.5348 C.3     1  UNL1        0.0626
      3 C           1.8514    0.9566   23.5382 C.3     1  UNL1        0.0436
      4 C           2.8017   -0.1125   23.9899 C.2     1  UNL1       -0.0045
      5 C           3.1771   -0.2190   25.4383 C.2     1  UNL1        0.0735
      6 N           4.1305   -1.3675   25.5866 N.2     1  UNL1       -0.2523
      7 C           4.3443   -1.9707   24.2300 C.2     1  UNL1        0.0627
      8 C           5.1807   -3.1261   23.7658 C.3     1  UNL1        0.0717
      9 C           5.1958   -3.5058   22.3148 C.2     1  UNL1       -0.0198
     10 C           4.3745   -2.7302   21.3280 C.2     1  UNL1       -0.0042
     11 C           3.5381   -1.5748   21.7921 C.2     1  UNL1        0.0006
     12 C           3.5230   -1.1951   23.2432 C.2     1  UNL1        0.0111
     13 C           2.6023    0.7435   26.4348 C.3     1  UNL1        0.1250
     14 N           1.6521    1.8126   25.9831 N.3     1  UNL1       -0.2642
     15 C           2.9778    0.6370   27.8832 C.ar    1  UNL1        0.0528
     16 C           4.1751    1.3753   28.4038 C.ar    1  UNL1        0.1399
     17 F           4.9971    2.2201   27.4762 F       1  UNL1       -0.2044
     18 C           4.5506    1.2687   29.8522 C.ar    1  UNL1        0.0295
     19 C           3.7286    0.4239   30.7799 C.ar    1  UNL1        0.0044
     20 C           2.5312   -0.3145   30.2592 C.ar    1  UNL1        0.0295
     21 C           2.1558   -0.2079   28.8109 C.ar    1  UNL1        0.1399
     22 F           0.9584   -0.9462   28.2902 F       1  UNL1       -0.2044
     23 C           4.1040    0.3173   32.2282 C.ar    1  UNL1        0.0001
     24 C           4.2349   -1.0312   32.8719 C.ar    1  UNL1        0.0000
     25 C           4.6104   -1.1378   34.3202 C.ar    1  UNL1        0.0011
     26 C           4.8550    0.1043   35.1250 C.ar    1  UNL1        0.0140
     27 C           4.7241    1.4529   34.4813 C.ar    1  UNL1        0.0011
     28 C           4.3486    1.5594   33.0329 C.ar    1  UNL1        0.0000
     29 C           5.2304   -0.0021   36.5732 C.2     1  UNL1        0.0729
     30 O           6.5417   -0.6162   36.9650 O.co2   1  UNL1       -0.5446
     31 O           4.2946    0.5056   37.6299 O.co2   1  UNL1       -0.5446
     32 C           1.0773    2.7751   26.9797 C.3     1  UNL1        0.1055
     33 C           0.1454    2.2825   28.0469 C.3     1  UNL1        0.1486
     34 C          -0.6038    1.4821   27.0232 C.3     1  UNL1        0.0368
     35 C           0.8947    3.0829   29.0706 C.3     1  UNL1        0.0368
     36 F          -0.7864    1.7899   29.1141 F       1  UNL1       -0.2386
@<TRIPOS>UNITY_ATOM_ATTR
30 1
charge -1
@<TRIPOS>BOND
     1     2     1    1
     2     2     3    1
     3     3     4    1
     4     4     5    2
     5     5     6    1
     6     6     7    2
     7     7     8    1
     8     8     9    1
     9     9    10    2
    10    10    11    1
    11    11    12    2
    12     5    13    1
    13    13    15    1
    14    15    16   ar
    15    16    17    1
    16    16    18   ar
    17    18    19   ar
    18    19    23    1
    19    23    24   ar
    20    24    25   ar
    21    25    26   ar
    22    26    29    1
    23    29    30   ar
    24    29    31   ar
    25    26    27   ar
    26    27    28   ar
    27    19    20   ar
    28    20    21   ar
    29    21    22    1
    30    13    14    1
    31    14    32    1
    32    32    33    1
    33    33    34    1
    34    33    35    1
    35    33    36    1
    36    14     2    1
    37    12     4    1
    38    21    15   ar
    39    12     7    1
    40    28    23   ar
@<TRIPOS>MOLECULE
*****
 36 40 0 0 0
SMALL
GASTEIGER

@<TRIPOS>ATOM
      1 C           5.3224    4.2705   17.3414 C.3     1  UNL1        0.0177
      2 C           4.5092    3.1641   17.9456 C.3     1  UNL1        0.0626
      3 C           4.9989    1.7481   17.8738 C.3     1  UNL1        0.0436
      4 C           4.1858    0.6418   18.4779 C.2     1  UNL1       -0.0045
      5 C           2.8830    0.9516   19.1538 C.2     1  UNL1        0.0735
      6 N           2.3029   -0.3377   19.6550 N.2     1  UNL1       -0.2523
      7 C           3.2471   -1.4442   19.2888 C.2     1  UNL1        0.0627
      8 C           3.1975   -2.9249   19.5238 C.3     1  UNL1        0.0717
      9 C           4.3117   -3.8001   19.0313 C.2     1  UNL1       -0.0198
     10 C           5.4754   -3.1947   18.3038 C.2     1  UNL1       -0.0042
     11 C           5.5249   -1.7141   18.0688 C.2     1  UNL1        0.0006
     12 C           4.4108   -0.8389   18.5613 C.2     1  UNL1        0.0111
     13 C           2.3934    2.3676   19.2256 C.3     1  UNL1        0.1250
     14 N           3.2065    3.4739   18.6215 N.3     1  UNL1       -0.2642
     15 C           1.0907    2.6774   19.9016 C.ar    1  UNL1        0.0528
     16 C          -0.1500    2.8781   19.0828 C.ar    1  UNL1        0.1399
     17 F          -0.0879    2.7691   17.5881 F       1  UNL1       -0.2044
     18 C          -1.4527    3.1879   19.7589 C.ar    1  UNL1        0.0295
     19 C          -1.5148    3.2969   21.2536 C.ar    1  UNL1        0.0044
     20 C          -0.2741    3.0962   22.0724 C.ar    1  UNL1        0.0295
     21 C           1.0286    2.7864   21.3964 C.ar    1  UNL1        0.1399
     22 F           2.2693    2.5857   22.2151 F       1  UNL1       -0.2044
     23 C          -2.8175    3.6066   21.9295 C.ar    1  UNL1        0.0001
     24 C          -2.8297    4.0859   23.3509 C.ar    1  UNL1        0.0000
     25 C          -4.1324    4.3956   24.0268 C.ar    1  UNL1        0.0011
     26 C          -5.4231    4.2261   23.2814 C.ar    1  UNL1        0.0140
     27 C          -5.4109    3.7469   21.8601 C.ar    1  UNL1        0.0011
     28 C          -4.1081    3.4372   21.1841 C.ar    1  UNL1        0.0000
     29 C          -6.7258    4.5359   23.9573 C.2     1  UNL1        0.0729
     30 O          -8.0210    4.2041   23.2773 O.co2   1  UNL1       -0.5446
     31 O          -6.7334    5.1774   25.3131 O.co2   1  UNL1       -0.5446
     32 C           2.7168    4.8899   18.6933 C.3     1  UNL1        0.1055
     33 C           2.6261    5.5858   20.0190 C.3     1  UNL1        0.1486
     34 C           3.9524    5.0070   20.4136 C.3     1  UNL1        0.0368
     35 C           1.2997    6.1646   19.6244 C.3     1  UNL1        0.0368
     36 F           2.5353    6.2817   21.3447 F       1  UNL1       -0.2386
@<TRIPOS>UNITY_ATOM_ATTR
30 1
charge -1
@<TRIPOS>BOND
     1     2     1    1
     2     2     3    1
     3     3     4    1
     4     4     5    2
     5     5     6    1
     6     6     7    2
     7     7     8    1
     8     8     9    1
     9     9    10    2
    10    10    11    1
    11    11    12    2
    12     5    13    1
    13    13    15    1
    14    15    16   ar
    15    16    17    1
    16    16    18   ar
    17    18    19   ar
    18    19    23    1
    19    23    24   ar
    20    24    25   ar
    21    25    26   ar
    22    26    29    1
    23    29    30   ar
    24    29    31   ar
    25    26    27   ar
    26    27    28   ar
    27    19    20   ar
    28    20    21   ar
    29    21    22    1
    30    13    14    1
    31    14    32    1
    32    32    33    1
    33    33    34    1
    34    33    35    1
    35    33    36    1
    36    14     2    1
    37    12     4    1
    38    21    15   ar
    39    12     7    1
    40    28    23   ar
@<TRIPOS>MOLECULE
*****
 36 40 0 0 0
SMALL
GASTEIGER

@<TRIPOS>ATOM
      1 C           5.3233    4.2678   17.3342 C.3     1  UNL1        0.0177
      2 C           4.5095    3.1637   17.9415 C.3     1  UNL1        0.0626
      3 C           4.9975    1.7469   17.8721 C.3     1  UNL1        0.0436
      4 C           4.1838    0.6428   18.4794 C.2     1  UNL1       -0.0045
      5 C           2.8821    0.9555   19.1561 C.2     1  UNL1        0.0735
      6 N           2.3010   -0.3321   19.6605 N.2     1  UNL1       -0.2523
      7 C           3.2435   -1.4405   19.2956 C.2     1  UNL1        0.0627
      8 C           3.1925   -2.9206   19.5336 C.3     1  UNL1        0.0717
      9 C           4.3051   -3.7981   19.0417 C.2     1  UNL1       -0.0198
     10 C           5.4687   -3.1955   18.3117 C.2     1  UNL1       -0.0042
     11 C           5.5197   -1.7154   18.0736 C.2     1  UNL1        0.0006
     12 C           4.4071   -0.8379   18.5655 C.2     1  UNL1        0.0111
     13 C           2.3942    2.3722   19.2256 C.3     1  UNL1        0.1250
     14 N           3.2079    3.4763   18.6183 N.3     1  UNL1       -0.2642
     15 C           1.0926    2.6849   19.9023 C.ar    1  UNL1        0.0528
     16 C           1.0322    2.7969   21.3968 C.ar    1  UNL1        0.1399
     17 F           2.2735    2.5963   22.2147 F       1  UNL1       -0.2044
     18 C          -0.2695    3.1096   22.0736 C.ar    1  UNL1        0.0295
     19 C          -1.5108    3.3102   21.2557 C.ar    1  UNL1        0.0044
     20 C          -1.4504    3.1981   19.7611 C.ar    1  UNL1        0.0295
     21 C          -0.1488    2.8855   19.0844 C.ar    1  UNL1        0.1399
     22 F          -0.0884    2.7734   17.5898 F       1  UNL1       -0.2044
     23 C          -2.8124    3.6228   21.9324 C.ar    1  UNL1        0.0001
     24 C          -4.1082    3.3620   21.2232 C.ar    1  UNL1        0.0000
     25 C          -5.4098    3.6746   21.8999 C.ar    1  UNL1        0.0011
     26 C          -5.4157    4.2482   23.2860 C.ar    1  UNL1        0.0140
     27 C          -4.1200    4.5090   23.9953 C.ar    1  UNL1        0.0011
     28 C          -2.8183    4.1963   23.3184 C.ar    1  UNL1        0.0000
     29 C          -6.7173    4.5608   23.9628 C.2     1  UNL1        0.0729
     30 O          -6.7226    5.2131   25.3135 O.co2   1  UNL1       -0.5446
     31 O          -8.0136    4.2212   23.2888 O.co2   1  UNL1       -0.5446
     32 C           2.7200    4.8931   18.6877 C.3     1  UNL1        0.1055
     33 C           2.6355    5.5932   20.0116 C.3     1  UNL1        0.1486
     34 C           3.9625    5.0136   20.4028 C.3     1  UNL1        0.0368
     35 C           1.3085    6.1728   19.6205 C.3     1  UNL1        0.0368
     36 F           2.5510    6.2932   21.3355 F       1  UNL1       -0.2386
@<TRIPOS>UNITY_ATOM_ATTR
30 1
charge -1
@<TRIPOS>BOND
     1     2     1    1
     2     2     3    1
     3     3     4    1
     4     4     5    2
     5     5     6    1
     6     6     7    2
     7     7     8    1
     8     8     9    1
     9     9    10    2
    10    10    11    1
    11    11    12    2
    12     5    13    1
    13    13    15    1
    14    15    16   ar
    15    16    17    1
    16    16    18   ar
    17    18    19   ar
    18    19    23    1
    19    23    24   ar
    20    24    25   ar
    21    25    26   ar
    22    26    29    1
    23    29    30   ar
    24    29    31   ar
    25    26    27   ar
    26    27    28   ar
    27    19    20   ar
    28    20    21   ar
    29    21    22    1
    30    13    14    1
    31    14    32    1
    32    32    33    1
    33    33    34    1
    34    33    35    1
    35    33    36    1
    36    14     2    1
    37    12     4    1
    38    21    15   ar
    39    12     7    1
    40    28    23   ar
