@<TRIPOS>MOLECULE
*****
 25 27 0 0 0
SMALL
GASTEIGER

@<TRIPOS>ATOM
      1 C          -7.8726  -17.3365   23.1614 C.ar    1  UNL1        0.0533
      2 C          -7.0981  -16.2125   23.7833 C.ar    1  UNL1        0.0824
      3 C          -7.6744  -15.0793   24.5794 C.3     1  UNL1        0.0540
      4 N          -5.6462  -16.4206   23.4694 N.ar    1  UNL1       -0.1681
      5 N          -5.5233  -17.6733   22.6534 N.ar    1  UNL1       -0.2085
      6 C          -4.3362  -18.3716   22.0592 C.ar    1  UNL1        0.1569
      7 C          -4.5251  -19.6360   21.2746 C.ar    1  UNL1        0.0379
      8 C          -5.9011  -20.2020   21.0842 C.ar    1  UNL1        0.0625
      9 C          -6.0900  -21.4665   20.2996 C.3     1  UNL1        0.0522
     10 N          -7.0882  -19.5037   21.6785 N.ar    1  UNL1       -0.2308
     11 C          -6.8993  -18.2393   22.4631 C.ar    1  UNL1        0.1645
     12 C         -12.3328  -17.9010   23.3562 C.ar    1  UNL1        0.1682
     13 C         -11.4330  -18.7337   24.2204 C.ar    1  UNL1        0.0394
     14 C          -9.9462  -18.5455   24.1554 C.ar    1  UNL1        0.0056
     15 C          -9.3593  -17.5247   23.2263 C.ar    1  UNL1        0.0341
     16 C         -10.2592  -16.6920   22.3620 C.ar    1  UNL1        0.1705
     17 F          -9.6723  -15.6711   21.4329 F       1  UNL1       -0.2017
     18 C         -11.7459  -16.8802   22.4270 C.ar    1  UNL1        0.2010
     19 F         -12.6457  -16.0475   21.5628 F       1  UNL1       -0.1986
     20 C         -14.4844  -18.3604   24.7381 C.3     1  UNL1        0.2526
     21 O         -13.8195  -18.0892   23.4211 O.3     1  UNL1       -0.4691
     22 C          -2.9602  -17.8056   22.2495 C.3     1  UNL1        0.4350
     23 F          -1.5842  -17.2395   22.4399 F       1  UNL1       -0.1644
     24 F          -2.8328  -17.6166   20.7669 F       1  UNL1       -0.1644
     25 F          -3.0876  -17.9945   23.7321 F       1  UNL1       -0.1644
@<TRIPOS>BOND
     1    20    21    1
     2    21    12    1
     3    12    13   ar
     4    13    14   ar
     5    14    15   ar
     6    15     1    1
     7     1     2   ar
     8     2     3    1
     9     2     4   ar
    10     4     5   ar
    11     5     6   ar
    12     6    22    1
    13    22    23    1
    14    22    24    1
    15    22    25    1
    16     6     7   ar
    17     7     8   ar
    18     8     9    1
    19     8    10   ar
    20    10    11   ar
    21    15    16   ar
    22    16    17    1
    23    16    18   ar
    24    18    19    1
    25    18    12   ar
    26    11     1   ar
    27    11     5   ar
@<TRIPOS>MOLECULE
*****
 25 27 0 0 0
SMALL
GASTEIGER

@<TRIPOS>ATOM
      1 C          -6.1069  -19.0407   21.3761 C.ar    1  UNL1        0.0533
      2 C          -7.0701  -20.0950   20.9171 C.ar    1  UNL1        0.0824
      3 C          -6.7533  -21.2403   20.0016 C.3     1  UNL1        0.0540
      4 N          -8.4057  -19.8029   21.5342 N.ar    1  UNL1       -0.1681
      5 N          -8.2679  -18.5681   22.3746 N.ar    1  UNL1       -0.2085
      6 C          -9.2526  -17.8119   23.2162 C.ar    1  UNL1        0.1569
      7 C          -8.8166  -16.5845   23.9602 C.ar    1  UNL1        0.0379
      8 C          -7.3958  -16.1135   23.8625 C.ar    1  UNL1        0.0625
      9 C          -6.9598  -14.8861   24.6065 C.3     1  UNL1        0.0522
     10 N          -6.4111  -16.8697   23.0209 N.ar    1  UNL1       -0.2308
     11 C          -6.8472  -18.0971   22.2770 C.ar    1  UNL1        0.1645
     12 C          -1.7595  -18.7584   20.2489 C.ar    1  UNL1        0.1682
     13 C          -2.8070  -18.8519   19.1794 C.ar    1  UNL1        0.0394
     14 C          -4.2562  -18.9461   19.5552 C.ar    1  UNL1        0.0056
     15 C          -4.6578  -18.9466   21.0004 C.ar    1  UNL1        0.0341
     16 C          -3.6101  -18.8530   22.0699 C.ar    1  UNL1        0.1705
     17 F          -4.0117  -18.8536   23.5152 F       1  UNL1       -0.2017
     18 C          -2.1610  -18.7589   21.6942 C.ar    1  UNL1        0.2010
     19 F          -1.1135  -18.6653   22.7637 F       1  UNL1       -0.1986
     20 C           0.4316  -17.3745   20.0634 C.3     1  UNL1        0.2526
     21 O          -0.3103  -18.6642   19.8731 O.3     1  UNL1       -0.4691
     22 C         -10.6734  -18.2829   23.3139 C.3     1  UNL1        0.4350
     23 F         -12.0942  -18.7540   23.4116 F       1  UNL1       -0.1644
     24 F         -10.9336  -17.7865   21.9226 F       1  UNL1       -0.1644
     25 F         -10.4132  -18.7793   24.7053 F       1  UNL1       -0.1644
@<TRIPOS>BOND
     1    20    21    1
     2    21    12    1
     3    12    13   ar
     4    13    14   ar
     5    14    15   ar
     6    15     1    1
     7     1     2   ar
     8     2     3    1
     9     2     4   ar
    10     4     5   ar
    11     5     6   ar
    12     6    22    1
    13    22    23    1
    14    22    24    1
    15    22    25    1
    16     6     7   ar
    17     7     8   ar
    18     8     9    1
    19     8    10   ar
    20    10    11   ar
    21    15    16   ar
    22    16    17    1
    23    16    18   ar
    24    18    19    1
    25    18    12   ar
    26    11     1   ar
    27    11     5   ar
@<TRIPOS>MOLECULE
*****
 25 27 0 0 0
SMALL
GASTEIGER

@<TRIPOS>ATOM
      1 C          -7.6499  -18.3055   21.9364 C.ar    1  UNL1        0.0533
      2 C          -7.0111  -19.0873   20.8270 C.ar    1  UNL1        0.0824
      3 C          -7.7311  -19.9109   19.8007 C.3     1  UNL1        0.0540
      4 N          -5.5259  -18.9007   20.9241 N.ar    1  UNL1       -0.1681
      5 N          -5.2469  -18.0037   22.0935 N.ar    1  UNL1       -0.2085
      6 C          -3.9670  -17.4743   22.6694 C.ar    1  UNL1        0.1569
      7 C          -3.9999  -16.5771   23.8710 C.ar    1  UNL1        0.0379
      8 C          -5.3126  -16.2093   24.4967 C.ar    1  UNL1        0.0625
      9 C          -5.3455  -15.3120   25.6984 C.3     1  UNL1        0.0522
     10 N          -6.5925  -16.7386   23.9208 N.ar    1  UNL1       -0.2308
     11 C          -6.5596  -17.6358   22.7192 C.ar    1  UNL1        0.1645
     12 C         -12.0628  -18.0194   22.7702 C.ar    1  UNL1        0.1682
     13 C         -11.3617  -19.3404   22.8862 C.ar    1  UNL1        0.0394
     14 C          -9.8907  -19.4357   22.6083 C.ar    1  UNL1        0.0056
     15 C          -9.1209  -18.2102   22.2144 C.ar    1  UNL1        0.0341
     16 C          -9.8220  -16.8891   22.0984 C.ar    1  UNL1        0.1705
     17 F          -9.0522  -15.6635   21.7044 F       1  UNL1       -0.2017
     18 C         -11.2930  -16.7938   22.3763 C.ar    1  UNL1        0.2010
     19 F         -11.9940  -15.4728   22.2603 F       1  UNL1       -0.1986
     20 C         -14.0525  -18.1687   24.4342 C.3     1  UNL1        0.2526
     21 O         -13.5337  -17.9241   23.0482 O.3     1  UNL1       -0.4691
     22 C          -2.6543  -17.8421   22.0437 C.3     1  UNL1        0.4350
     23 F          -1.3416  -18.2100   21.4181 F       1  UNL1       -0.1644
     24 F          -2.4329  -16.4077   21.6651 F       1  UNL1       -0.1644
     25 F          -2.8757  -19.2766   22.4224 F       1  UNL1       -0.1644
@<TRIPOS>BOND
     1    20    21    1
     2    21    12    1
     3    12    13   ar
     4    13    14   ar
     5    14    15   ar
     6    15     1    1
     7     1     2   ar
     8     2     3    1
     9     2     4   ar
    10     4     5   ar
    11     5     6   ar
    12     6    22    1
    13    22    23    1
    14    22    24    1
    15    22    25    1
    16     6     7   ar
    17     7     8   ar
    18     8     9    1
    19     8    10   ar
    20    10    11   ar
    21    15    16   ar
    22    16    17    1
    23    16    18   ar
    24    18    19    1
    25    18    12   ar
    26    11     1   ar
    27    11     5   ar
@<TRIPOS>MOLECULE
*****
 25 27 0 0 0
SMALL
GASTEIGER

@<TRIPOS>ATOM
      1 C          -8.0007  -19.0576   21.3622 C.ar    1  UNL1        0.0533
      2 C          -8.0202  -19.5311   19.9390 C.ar    1  UNL1        0.0824
      3 C          -9.2372  -19.9358   19.1610 C.3     1  UNL1        0.0540
      4 N          -6.6091  -19.5288   19.4304 N.ar    1  UNL1       -0.1681
      5 N          -5.7174  -19.0539   20.5392 N.ar    1  UNL1       -0.2085
      6 C          -4.2335  -18.8490   20.6159 C.ar    1  UNL1        0.1569
      7 C          -3.6097  -18.3529   21.8866 C.ar    1  UNL1        0.0379
      8 C          -4.4697  -18.0618   23.0806 C.ar    1  UNL1        0.0625
      9 C          -3.8458  -17.5657   24.3513 C.3     1  UNL1        0.0522
     10 N          -5.9536  -18.2666   23.0038 N.ar    1  UNL1       -0.2308
     11 C          -6.5775  -18.7627   21.7331 C.ar    1  UNL1        0.1645
     12 C         -11.5828  -18.6019   24.0475 C.ar    1  UNL1        0.1682
     13 C         -10.7376  -19.8385   24.1279 C.ar    1  UNL1        0.0394
     14 C          -9.5436  -19.9904   23.2328 C.ar    1  UNL1        0.0056
     15 C          -9.1947  -18.9058   22.2573 C.ar    1  UNL1        0.0341
     16 C         -10.0399  -17.6691   22.1769 C.ar    1  UNL1        0.1705
     17 F          -9.6911  -16.5844   21.2014 F       1  UNL1       -0.2017
     18 C         -11.2340  -17.5172   23.0720 C.ar    1  UNL1        0.2010
     19 F         -12.0791  -16.2806   22.9916 F       1  UNL1       -0.1986
     20 C         -14.1444  -18.2892   24.3479 C.3     1  UNL1        0.2526
     21 O         -12.7768  -18.4501   24.9427 O.3     1  UNL1       -0.4691
     22 C          -3.3734  -19.1402   19.4220 C.3     1  UNL1        0.4350
     23 F          -2.5134  -19.4313   18.2281 F       1  UNL1       -0.1644
     24 F          -3.5281  -20.6115   19.6694 F       1  UNL1       -0.1644
     25 F          -3.2187  -17.6688   19.1746 F       1  UNL1       -0.1644
@<TRIPOS>BOND
     1    20    21    1
     2    21    12    1
     3    12    13   ar
     4    13    14   ar
     5    14    15   ar
     6    15     1    1
     7     1     2   ar
     8     2     3    1
     9     2     4   ar
    10     4     5   ar
    11     5     6   ar
    12     6    22    1
    13    22    23    1
    14    22    24    1
    15    22    25    1
    16     6     7   ar
    17     7     8   ar
    18     8     9    1
    19     8    10   ar
    20    10    11   ar
    21    15    16   ar
    22    16    17    1
    23    16    18   ar
    24    18    19    1
    25    18    12   ar
    26    11     1   ar
    27    11     5   ar
@<TRIPOS>MOLECULE
*****
 25 27 0 0 0
SMALL
GASTEIGER

@<TRIPOS>ATOM
      1 C          -7.6427  -18.9475   21.2692 C.ar    1  UNL1        0.0533
      2 C          -7.1387  -19.8078   20.1487 C.ar    1  UNL1        0.0824
      3 C          -7.9842  -20.6042   19.1995 C.3     1  UNL1        0.0540
      4 N          -5.6406  -19.7320   20.1439 N.ar    1  UNL1       -0.1681
      5 N          -5.2188  -18.8248   21.2615 N.ar    1  UNL1       -0.2085
      6 C          -3.8679  -18.3776   21.7358 C.ar    1  UNL1        0.1569
      7 C          -3.7543  -17.4455   22.9055 C.ar    1  UNL1        0.0379
      8 C          -4.9917  -16.9606   23.6009 C.ar    1  UNL1        0.0625
      9 C          -4.8782  -16.0284   24.7707 C.3     1  UNL1        0.0522
     10 N          -6.3427  -17.4078   23.1267 N.ar    1  UNL1       -0.2308
     11 C          -6.4562  -18.3399   21.9570 C.ar    1  UNL1        0.1645
     12 C         -11.9571  -18.3022   22.3738 C.ar    1  UNL1        0.1682
     13 C         -11.3978  -17.6702   21.1338 C.ar    1  UNL1        0.0394
     14 C          -9.9597  -17.8853   20.7656 C.ar    1  UNL1        0.0056
     15 C          -9.0809  -18.7324   21.6374 C.ar    1  UNL1        0.0341
     16 C          -9.6402  -19.3644   22.8775 C.ar    1  UNL1        0.1705
     17 F          -8.7615  -20.2115   23.7494 F       1  UNL1       -0.2017
     18 C         -11.0784  -19.1493   23.2457 C.ar    1  UNL1        0.2010
     19 F         -11.6376  -19.7814   24.4857 F       1  UNL1       -0.1986
     20 C         -13.7774  -17.8650   24.1754 C.3     1  UNL1        0.2526
     21 O         -13.3953  -18.0871   22.7420 O.3     1  UNL1       -0.4691
     22 C          -2.6305  -18.8625   21.0403 C.3     1  UNL1        0.4350
     23 F          -1.3931  -19.3474   20.3448 F       1  UNL1       -0.1644
     24 F          -2.6847  -17.6799   20.1192 F       1  UNL1       -0.1644
     25 F          -2.5762  -20.0451   21.9614 F       1  UNL1       -0.1644
@<TRIPOS>BOND
     1    20    21    1
     2    21    12    1
     3    12    13   ar
     4    13    14   ar
     5    14    15   ar
     6    15     1    1
     7     1     2   ar
     8     2     3    1
     9     2     4   ar
    10     4     5   ar
    11     5     6   ar
    12     6    22    1
    13    22    23    1
    14    22    24    1
    15    22    25    1
    16     6     7   ar
    17     7     8   ar
    18     8     9    1
    19     8    10   ar
    20    10    11   ar
    21    15    16   ar
    22    16    17    1
    23    16    18   ar
    24    18    19    1
    25    18    12   ar
    26    11     1   ar
    27    11     5   ar
@<TRIPOS>MOLECULE
*****
 25 27 0 0 0
SMALL
GASTEIGER

@<TRIPOS>ATOM
      1 C          -7.7466  -17.0882   23.4349 C.ar    1  UNL1        0.0533
      2 C          -8.4141  -16.5127   24.6486 C.ar    1  UNL1        0.0824
      3 C          -7.7247  -15.8387   25.7978 C.3     1  UNL1        0.0540
      4 N          -9.8920  -16.7295   24.5114 N.ar    1  UNL1       -0.1681
      5 N         -10.1379  -17.4390   23.2129 N.ar    1  UNL1       -0.2085
      6 C         -11.3978  -17.9119   22.5505 C.ar    1  UNL1        0.1569
      7 C         -11.3318  -18.6064   21.2226 C.ar    1  UNL1        0.0379
      8 C         -10.0059  -18.8281   20.5572 C.ar    1  UNL1        0.0625
      9 C          -9.9399  -19.5227   19.2293 C.3     1  UNL1        0.0522
     10 N          -8.7459  -18.3553   21.2197 N.ar    1  UNL1       -0.2308
     11 C          -8.8119  -17.6607   22.5476 C.ar    1  UNL1        0.1645
     12 C          -3.3244  -17.0961   22.6017 C.ar    1  UNL1        0.1682
     13 C          -3.9956  -15.8421   23.0781 C.ar    1  UNL1        0.0394
     14 C          -5.4697  -15.8395   23.3558 C.ar    1  UNL1        0.0056
     15 C          -6.2725  -17.0908   23.1571 C.ar    1  UNL1        0.0341
     16 C          -5.6013  -18.3449   22.6807 C.ar    1  UNL1        0.1705
     17 F          -6.4041  -19.5962   22.4820 F       1  UNL1       -0.2017
     18 C          -4.1272  -18.3475   22.4030 C.ar    1  UNL1        0.2010
     19 F          -3.4561  -19.6015   21.9265 F       1  UNL1       -0.1986
     20 C          -1.3479  -16.8264   20.9370 C.3     1  UNL1        0.2526
     21 O          -1.8503  -17.0987   22.3239 O.3     1  UNL1       -0.4691
     22 C         -12.7238  -17.6902   23.2158 C.3     1  UNL1        0.4350
     23 F         -14.0497  -17.4685   23.8812 F       1  UNL1       -0.1644
     24 F         -12.9886  -16.5307   22.3017 F       1  UNL1       -0.1644
     25 F         -12.4589  -18.8496   24.1299 F       1  UNL1       -0.1644
@<TRIPOS>BOND
     1    20    21    1
     2    21    12    1
     3    12    13   ar
     4    13    14   ar
     5    14    15   ar
     6    15     1    1
     7     1     2   ar
     8     2     3    1
     9     2     4   ar
    10     4     5   ar
    11     5     6   ar
    12     6    22    1
    13    22    23    1
    14    22    24    1
    15    22    25    1
    16     6     7   ar
    17     7     8   ar
    18     8     9    1
    19     8    10   ar
    20    10    11   ar
    21    15    16   ar
    22    16    17    1
    23    16    18   ar
    24    18    19    1
    25    18    12   ar
    26    11     1   ar
    27    11     5   ar
@<TRIPOS>MOLECULE
*****
 25 27 0 0 0
SMALL
GASTEIGER

@<TRIPOS>ATOM
      1 C          -9.0615  -18.0941   22.9781 C.ar    1  UNL1        0.0533
      2 C         -10.1789  -18.2360   23.9687 C.ar    1  UNL1        0.0824
      3 C         -11.4103  -19.0747   23.7947 C.3     1  UNL1        0.0540
      4 N          -9.8486  -17.3919   25.1639 N.ar    1  UNL1       -0.1681
      5 N          -8.5272  -16.7283   24.9119 N.ar    1  UNL1       -0.2085
      6 C          -7.7040  -15.7850   25.7380 C.ar    1  UNL1        0.1569
      7 C          -6.3944  -15.2757   25.2132 C.ar    1  UNL1        0.0379
      8 C          -5.9079  -15.7097   23.8623 C.ar    1  UNL1        0.0625
      9 C          -4.5982  -15.2003   23.3375 C.3     1  UNL1        0.0522
     10 N          -6.7311  -16.6530   23.0362 N.ar    1  UNL1       -0.2308
     11 C          -8.0407  -17.1623   23.5610 C.ar    1  UNL1        0.1645
     12 C          -8.8149  -20.1099   18.9623 C.ar    1  UNL1        0.1682
     13 C         -10.0009  -19.2565   19.3016 C.ar    1  UNL1        0.0394
     14 C         -10.0831  -18.5846   20.6402 C.ar    1  UNL1        0.0056
     15 C          -8.9793  -18.7660   21.6395 C.ar    1  UNL1        0.0341
     16 C          -7.7933  -19.6194   21.3002 C.ar    1  UNL1        0.1705
     17 F          -6.6895  -19.8009   22.2995 F       1  UNL1       -0.2017
     18 C          -7.7111  -20.2914   19.9616 C.ar    1  UNL1        0.2010
     19 F          -6.5251  -21.1447   19.6224 F       1  UNL1       -0.1986
     20 C          -8.8462  -22.2743   17.5255 C.3     1  UNL1        0.2526
     21 O          -8.7328  -20.7818   17.6237 O.3     1  UNL1       -0.4691
     22 C          -8.1905  -15.3510   27.0890 C.3     1  UNL1        0.4350
     23 F          -8.6770  -14.9170   28.4399 F       1  UNL1       -0.1644
     24 F          -7.0695  -16.1089   27.7361 F       1  UNL1       -0.1644
     25 F          -9.3115  -14.5931   26.4418 F       1  UNL1       -0.1644
@<TRIPOS>BOND
     1    20    21    1
     2    21    12    1
     3    12    13   ar
     4    13    14   ar
     5    14    15   ar
     6    15     1    1
     7     1     2   ar
     8     2     3    1
     9     2     4   ar
    10     4     5   ar
    11     5     6   ar
    12     6    22    1
    13    22    23    1
    14    22    24    1
    15    22    25    1
    16     6     7   ar
    17     7     8   ar
    18     8     9    1
    19     8    10   ar
    20    10    11   ar
    21    15    16   ar
    22    16    17    1
    23    16    18   ar
    24    18    19    1
    25    18    12   ar
    26    11     1   ar
    27    11     5   ar
@<TRIPOS>MOLECULE
*****
 25 27 0 0 0
SMALL
GASTEIGER

@<TRIPOS>ATOM
      1 C          -5.4798  -18.9358   21.6052 C.ar    1  UNL1        0.0533
      2 C          -6.0527  -20.2725   21.2379 C.ar    1  UNL1        0.0824
      3 C          -5.3624  -21.3383   20.4393 C.3     1  UNL1        0.0540
      4 N          -7.4370  -20.3564   21.8094 N.ar    1  UNL1       -0.1681
      5 N          -7.7197  -19.0715   22.5299 N.ar    1  UNL1       -0.2085
      6 C          -8.9223  -18.5876   23.2846 C.ar    1  UNL1        0.1569
      7 C          -8.9152  -17.2257   23.9131 C.ar    1  UNL1        0.0379
      8 C          -7.7056  -16.3477   23.7870 C.ar    1  UNL1        0.0625
      9 C          -7.6986  -14.9857   24.4155 C.3     1  UNL1        0.0522
     10 N          -6.5030  -16.8316   23.0323 N.ar    1  UNL1       -0.2308
     11 C          -6.5101  -18.1935   22.4038 C.ar    1  UNL1        0.1645
     12 C          -1.3886  -17.4186   20.5049 C.ar    1  UNL1        0.1682
     13 C          -1.7658  -17.5797   21.9477 C.ar    1  UNL1        0.0394
     14 C          -3.1295  -18.0855   22.3144 C.ar    1  UNL1        0.0056
     15 C          -4.1161  -18.4301   21.2385 C.ar    1  UNL1        0.0341
     16 C          -3.7389  -18.2690   19.7956 C.ar    1  UNL1        0.1705
     17 F          -4.7255  -18.6136   18.7195 F       1  UNL1       -0.2017
     18 C          -2.3752  -17.7633   19.4288 C.ar    1  UNL1        0.2010
     19 F          -1.9981  -17.6022   17.9860 F       1  UNL1       -0.1986
     20 C           1.1913  -17.7237   20.4749 C.3     1  UNL1        0.2526
     21 O          -0.0249  -16.9129   20.1381 O.3     1  UNL1       -0.4691
     22 C         -10.1319  -19.4656   23.4107 C.3     1  UNL1        0.4350
     23 F         -11.3415  -20.3436   23.5369 F       1  UNL1       -0.1644
     24 F          -9.3819  -20.3642   24.3488 F       1  UNL1       -0.1644
     25 F         -10.8820  -18.5670   22.4727 F       1  UNL1       -0.1644
@<TRIPOS>BOND
     1    20    21    1
     2    21    12    1
     3    12    13   ar
     4    13    14   ar
     5    14    15   ar
     6    15     1    1
     7     1     2   ar
     8     2     3    1
     9     2     4   ar
    10     4     5   ar
    11     5     6   ar
    12     6    22    1
    13    22    23    1
    14    22    24    1
    15    22    25    1
    16     6     7   ar
    17     7     8   ar
    18     8     9    1
    19     8    10   ar
    20    10    11   ar
    21    15    16   ar
    22    16    17    1
    23    16    18   ar
    24    18    19    1
    25    18    12   ar
    26    11     1   ar
    27    11     5   ar
@<TRIPOS>MOLECULE
*****
 25 27 0 0 0
SMALL
GASTEIGER

@<TRIPOS>ATOM
      1 C          -6.8114  -18.2534   21.6572 C.ar    1  UNL1        0.0533
      2 C          -7.4705  -17.3967   22.6972 C.ar    1  UNL1        0.0824
      3 C          -6.7685  -16.5887   23.7481 C.3     1  UNL1        0.0540
      4 N          -8.9548  -17.4898   22.5017 N.ar    1  UNL1       -0.1681
      5 N          -9.2131  -18.4040   21.3409 N.ar    1  UNL1       -0.2085
      6 C         -10.4833  -18.8678   20.6918 C.ar    1  UNL1        0.1569
      7 C         -10.4289  -19.8034   19.5208 C.ar    1  UNL1        0.0379
      8 C          -9.1042  -20.2754   18.9988 C.ar    1  UNL1        0.0625
      9 C          -9.0498  -21.2112   17.8277 C.3     1  UNL1        0.0522
     10 N          -7.8339  -19.8117   19.6479 N.ar    1  UNL1       -0.2308
     11 C          -7.8884  -18.8760   20.8190 C.ar    1  UNL1        0.1645
     12 C          -2.3811  -18.8511   21.1420 C.ar    1  UNL1        0.1682
     13 C          -2.9578  -18.6609   22.5136 C.ar    1  UNL1        0.0394
     14 C          -4.4346  -18.4617   22.6853 C.ar    1  UNL1        0.0056
     15 C          -5.3347  -18.4527   21.4855 C.ar    1  UNL1        0.0341
     16 C          -4.7580  -18.6429   20.1138 C.ar    1  UNL1        0.1705
     17 F          -5.6581  -18.6339   18.9139 F       1  UNL1       -0.2017
     18 C          -3.2812  -18.8421   19.9421 C.ar    1  UNL1        0.2010
     19 F          -2.7046  -19.0324   18.5706 F       1  UNL1       -0.1986
     20 C          -0.1132  -18.1007   20.1205 C.3     1  UNL1        0.2526
     21 O          -0.9043  -19.0504   20.9703 O.3     1  UNL1       -0.4691
     22 C         -11.8080  -18.3958   21.2138 C.3     1  UNL1        0.4350
     23 F         -13.1327  -17.9238   21.7358 F       1  UNL1       -0.1644
     24 F         -11.6790  -19.3266   22.3830 F       1  UNL1       -0.1644
     25 F         -11.9370  -17.4650   20.0446 F       1  UNL1       -0.1644
@<TRIPOS>BOND
     1    20    21    1
     2    21    12    1
     3    12    13   ar
     4    13    14   ar
     5    14    15   ar
     6    15     1    1
     7     1     2   ar
     8     2     3    1
     9     2     4   ar
    10     4     5   ar
    11     5     6   ar
    12     6    22    1
    13    22    23    1
    14    22    24    1
    15    22    25    1
    16     6     7   ar
    17     7     8   ar
    18     8     9    1
    19     8    10   ar
    20    10    11   ar
    21    15    16   ar
    22    16    17    1
    23    16    18   ar
    24    18    19    1
    25    18    12   ar
    26    11     1   ar
    27    11     5   ar
