@<TRIPOS>MOLECULE
*****
 33 35 0 0 0
SMALL
GASTEIGER

@<TRIPOS>ATOM
      1 C          -5.4634  -18.8954   20.1715 C.ar    1  UNL1        0.2172
      2 N          -6.4198  -17.8697   20.7037 N.ar    1  UNL1       -0.2091
      3 C          -7.4187  -18.2503   21.7560 C.ar    1  UNL1        0.1402
      4 C          -7.4612  -19.6567   22.2760 C.ar    1  UNL1        0.1773
      5 C          -6.5048  -20.6823   21.7438 C.ar    1  UNL1        0.1402
      6 N          -5.5059  -20.3017   20.6915 N.ar    1  UNL1       -0.2091
      7 N          -4.4644  -18.5147   19.1192 N.pl3   1  UNL1       -0.3006
      8 H          -4.7554  -18.3877   18.1873 H       1  UNL1        0.1497
      9 C          -2.4802  -18.1671   20.8761 C.3     1  UNL1        0.1219
     10 C          -0.9919  -18.0086   20.7776 C.3     1  UNL1        0.1634
     11 O          -0.6141  -18.0712   19.3272 O.3     1  UNL1       -0.3501
     12 C          -1.8690  -18.2685   18.5295 C.3     1  UNL1        0.1634
     13 C          -3.0223  -18.3277   19.4868 C.3     1  UNL1        0.1218
     14 C          -3.6438  -16.8664   22.8008 C.2     1  UNL1        0.2461
     15 O          -3.1975  -15.5693   22.1940 O.2     1  UNL1       -0.2701
     16 N          -3.2851  -18.1653   22.1419 N.am    1  UNL1       -0.2985
     17 H          -3.5780  -19.0167   22.5402 H       1  UNL1        0.1498
     18 C          -5.3909  -15.7336   24.3546 C.2     1  UNL1        0.0048
     19 C          -4.4487  -16.8647   24.0666 C.2     1  UNL1        0.0577
     20 O          -8.4601  -20.0373   23.3283 O.3     1  UNL1       -0.4673
     21 C          -9.8488  -20.4433   22.9323 C.3     1  UNL1        0.2368
     22 C         -10.8647  -19.3971   22.5812 C.ar    1  UNL1        0.0821
     23 C         -10.8996  -18.8201   21.1971 C.ar    1  UNL1        0.1757
     24 F          -9.9185  -19.2893   20.1640 F       1  UNL1       -0.2011
     25 C         -11.9155  -17.7739   20.8461 C.ar    1  UNL1        0.1689
     26 C         -12.8966  -17.3047   21.8792 C.ar    1  UNL1        0.0784
     27 C         -12.8618  -17.8817   23.2633 C.ar    1  UNL1        0.1689
     28 C         -11.8459  -18.9279   23.6143 C.ar    1  UNL1        0.1757
     29 F         -11.8110  -19.5049   24.9985 F       1  UNL1       -0.2011
     30 O         -11.9504  -17.1968   19.4619 O.3     1  UNL1       -0.4691
     31 C         -11.6048  -15.7539   19.2420 C.3     1  UNL1        0.2526
     32 O         -13.8429  -17.4125   24.2964 O.3     1  UNL1       -0.4691
     33 C         -14.6650  -18.4098   25.0576 C.3     1  UNL1        0.2526
@<TRIPOS>BOND
     1    18    19    2
     2    19    14    1
     3    14    15    2
     4    14    16   am
     5     9    16    1
     6     9    10    1
     7    10    11    1
     8    11    12    1
     9    12    13    1
    10    13     7    1
    11     7     1    1
    12     1     2   ar
    13     2     3   ar
    14     3     4   ar
    15     4    20    1
    16    20    21    1
    17    21    22    1
    18    22    23   ar
    19    23    24    1
    20    23    25   ar
    21    25    30    1
    22    30    31    1
    23    25    26   ar
    24    26    27   ar
    25    27    32    1
    26    32    33    1
    27    27    28   ar
    28    28    29    1
    29     4     5   ar
    30     5     6   ar
    31    13     9    1
    32     6     1   ar
    33    28    22   ar
    34    16    17    1
    35     7     8    1
@<TRIPOS>MOLECULE
*****
 33 35 0 0 0
SMALL
GASTEIGER

@<TRIPOS>ATOM
      1 C          -5.4325  -18.9036   20.1304 C.ar    1  UNL1        0.2172
      2 N          -5.4884  -20.3090   20.6517 N.ar    1  UNL1       -0.2091
      3 C          -6.4949  -20.6805   21.6999 C.ar    1  UNL1        0.1402
      4 C          -7.4454  -19.6467   22.2269 C.ar    1  UNL1        0.1773
      5 C          -7.3895  -18.2413   21.7057 C.ar    1  UNL1        0.1402
      6 N          -6.3830  -17.8698   20.6574 N.ar    1  UNL1       -0.2091
      7 N          -4.4260  -18.5319   19.0821 N.pl3   1  UNL1       -0.3006
      8 H          -4.7069  -18.4303   18.1440 H       1  UNL1        0.1497
      9 C          -2.4689  -18.1189   20.8553 C.3     1  UNL1        0.1219
     10 C          -0.9821  -17.9392   20.7714 C.3     1  UNL1        0.1634
     11 O          -0.5858  -18.0244   19.3271 O.3     1  UNL1       -0.3501
     12 C          -1.8276  -18.2568   18.5186 C.3     1  UNL1        0.1634
     13 C          -2.9915  -18.3152   19.4630 C.3     1  UNL1        0.1218
     14 C          -3.6557  -16.7996   22.7528 C.2     1  UNL1        0.2461
     15 O          -3.2021  -15.5085   22.1389 O.2     1  UNL1       -0.2701
     16 N          -3.2892  -18.1049   22.1111 N.am    1  UNL1       -0.2985
     17 H          -3.5869  -18.9523   22.5141 H       1  UNL1        0.1498
     18 C          -5.4482  -15.6706   24.2570 C.2     1  UNL1        0.0048
     19 C          -4.4760  -16.7856   24.0087 C.2     1  UNL1        0.0577
     20 O          -8.4519  -20.0184   23.2753 O.3     1  UNL1       -0.4673
     21 C          -9.8366  -20.4313   22.8726 C.3     1  UNL1        0.2368
     22 C         -10.8676  -19.3890   22.5551 C.ar    1  UNL1        0.0821
     23 C         -11.8334  -18.9428   23.6124 C.ar    1  UNL1        0.1757
     24 F         -11.7682  -19.5388   24.9874 F       1  UNL1       -0.2011
     25 C         -12.8643  -17.9006   23.2949 C.ar    1  UNL1        0.1689
     26 C         -12.9295  -17.3046   21.9199 C.ar    1  UNL1        0.0784
     27 C         -11.9637  -17.7508   20.8625 C.ar    1  UNL1        0.1689
     28 C         -10.9327  -18.7931   21.1801 C.ar    1  UNL1        0.1757
     29 F          -9.9669  -19.2393   20.1227 F       1  UNL1       -0.2011
     30 O         -13.8301  -17.4543   24.3523 O.3     1  UNL1       -0.4691
     31 C         -14.7748  -18.4420   24.9702 C.3     1  UNL1        0.2526
     32 O         -12.0288  -17.1548   19.4875 O.3     1  UNL1       -0.4691
     33 C         -11.6199  -15.7285   19.2682 C.3     1  UNL1        0.2526
@<TRIPOS>BOND
     1    18    19    2
     2    19    14    1
     3    14    15    2
     4    14    16   am
     5     9    16    1
     6     9    10    1
     7    10    11    1
     8    11    12    1
     9    12    13    1
    10    13     7    1
    11     7     1    1
    12     1     2   ar
    13     2     3   ar
    14     3     4   ar
    15     4    20    1
    16    20    21    1
    17    21    22    1
    18    22    23   ar
    19    23    24    1
    20    23    25   ar
    21    25    30    1
    22    30    31    1
    23    25    26   ar
    24    26    27   ar
    25    27    32    1
    26    32    33    1
    27    27    28   ar
    28    28    29    1
    29     4     5   ar
    30     5     6   ar
    31    13     9    1
    32     6     1   ar
    33    28    22   ar
    34    16    17    1
    35     7     8    1
@<TRIPOS>MOLECULE
*****
 33 35 0 0 0
SMALL
GASTEIGER

@<TRIPOS>ATOM
      1 C          -9.0645  -16.0062   23.5301 C.ar    1  UNL1        0.2172
      2 N          -8.2667  -16.9232   22.6512 N.ar    1  UNL1       -0.2091
      3 C          -6.7798  -17.0206   22.8226 C.ar    1  UNL1        0.1402
      4 C          -6.0906  -16.2009   23.8729 C.ar    1  UNL1        0.1773
      5 C          -6.8884  -15.2838   24.7518 C.ar    1  UNL1        0.1402
      6 N          -8.3754  -15.1865   24.5804 N.ar    1  UNL1       -0.2091
      7 N         -10.5516  -15.9088   23.3587 N.pl3   1  UNL1       -0.3006
      8 H         -11.0919  -15.4167   24.0183 H       1  UNL1        0.1497
      9 C         -11.2053  -18.0273   21.8656 C.3     1  UNL1        0.1219
     10 C         -11.9893  -18.2342   20.6037 C.3     1  UNL1        0.1634
     11 O         -12.4840  -16.8959   20.1406 O.3     1  UNL1       -0.3501
     12 C         -12.0056  -15.8620   21.1163 C.3     1  UNL1        0.1634
     13 C         -11.2153  -16.5612   22.1824 C.3     1  UNL1        0.1218
     14 C         -10.9607  -19.3602   24.0822 C.2     1  UNL1        0.2461
     15 O         -12.0671  -18.5509   24.6909 O.2     1  UNL1       -0.2701
     16 N         -10.5297  -19.0985   22.6695 N.am    1  UNL1       -0.2985
     17 H          -9.8035  -19.6297   22.2699 H       1  UNL1        0.1498
     18 C          -9.1362  -21.1970   24.2997 C.2     1  UNL1        0.0048
     19 C         -10.2851  -20.4314   24.8861 C.2     1  UNL1        0.0577
     20 O          -4.6036  -16.2983   24.0443 O.3     1  UNL1       -0.4673
     21 C          -3.9157  -17.6220   23.8877 C.3     1  UNL1        0.2368
     22 C          -3.5554  -18.1229   22.5204 C.ar    1  UNL1        0.0821
     23 C          -2.4952  -17.4249   21.7212 C.ar    1  UNL1        0.1757
     24 F          -1.7953  -16.2259   22.2892 F       1  UNL1       -0.2011
     25 C          -2.1350  -17.9258   20.3540 C.ar    1  UNL1        0.1689
     26 C          -2.8349  -19.1248   19.7861 C.ar    1  UNL1        0.0784
     27 C          -3.8951  -19.8228   20.5853 C.ar    1  UNL1        0.1689
     28 C          -4.2553  -19.3218   21.9524 C.ar    1  UNL1        0.1757
     29 F          -5.3155  -20.0199   22.7517 F       1  UNL1       -0.2011
     30 O          -1.0748  -17.2278   19.5547 O.3     1  UNL1       -0.4691
     31 C           0.3646  -17.3351   19.9628 C.3     1  UNL1        0.2526
     32 O          -4.5950  -21.0217   20.0173 O.3     1  UNL1       -0.4691
     33 C          -6.0879  -21.1329   20.1111 C.3     1  UNL1        0.2526
@<TRIPOS>BOND
     1    18    19    2
     2    19    14    1
     3    14    15    2
     4    14    16   am
     5     9    16    1
     6     9    10    1
     7    10    11    1
     8    11    12    1
     9    12    13    1
    10    13     7    1
    11     7     1    1
    12     1     2   ar
    13     2     3   ar
    14     3     4   ar
    15     4    20    1
    16    20    21    1
    17    21    22    1
    18    22    23   ar
    19    23    24    1
    20    23    25   ar
    21    25    30    1
    22    30    31    1
    23    25    26   ar
    24    26    27   ar
    25    27    32    1
    26    32    33    1
    27    27    28   ar
    28    28    29    1
    29     4     5   ar
    30     5     6   ar
    31    13     9    1
    32     6     1   ar
    33    28    22   ar
    34    16    17    1
    35     7     8    1
@<TRIPOS>MOLECULE
*****
 33 35 0 0 0
SMALL
GASTEIGER

@<TRIPOS>ATOM
      1 C          -9.2065  -15.8385   23.6791 C.ar    1  UNL1        0.2172
      2 N          -8.5308  -15.5666   24.9903 N.ar    1  UNL1       -0.2091
      3 C          -7.0389  -15.6746   25.1017 C.ar    1  UNL1        0.1402
      4 C          -6.2227  -16.0544   23.9019 C.ar    1  UNL1        0.1773
      5 C          -6.8984  -16.3263   22.5907 C.ar    1  UNL1        0.1402
      6 N          -8.3904  -16.2183   22.4793 N.ar    1  UNL1       -0.2091
      7 N         -10.6986  -15.7306   23.5676 N.pl3   1  UNL1       -0.3006
      8 H         -11.2020  -15.1830   24.2125 H       1  UNL1        0.1497
      9 C         -11.5123  -17.9455   22.3119 C.3     1  UNL1        0.1219
     10 C         -12.3305  -18.2308   21.0875 C.3     1  UNL1        0.1634
     11 O         -12.7472  -16.9184   20.4924 O.3     1  UNL1       -0.3501
     12 C         -12.1866  -15.8222   21.3491 C.3     1  UNL1        0.1634
     13 C         -11.4234  -16.4569   22.4736 C.3     1  UNL1        0.1218
     14 C          -9.5986  -19.6242   22.8311 C.2     1  UNL1        0.2461
     15 O          -8.9256  -19.2556   21.5423 O.2     1  UNL1       -0.2701
     16 N         -10.8919  -18.9692   23.2159 N.am    1  UNL1       -0.2985
     17 H         -11.3336  -19.2111   24.0619 H       1  UNL1        0.1498
     18 C          -9.7295  -21.1415   24.9360 C.2     1  UNL1        0.0048
     19 C          -8.9782  -20.6479   23.7352 C.2     1  UNL1        0.0577
     20 O          -4.7307  -16.1623   24.0134 O.3     1  UNL1       -0.4673
     21 C          -4.0648  -17.5013   23.8965 C.3     1  UNL1        0.2368
     22 C          -3.6699  -18.0274   22.5483 C.ar    1  UNL1        0.0821
     23 C          -4.3668  -19.2270   21.9779 C.ar    1  UNL1        0.1757
     24 F          -5.4585  -19.9004   22.7555 F       1  UNL1       -0.2011
     25 C          -3.9719  -19.7530   20.6298 C.ar    1  UNL1        0.1689
     26 C          -2.8802  -19.0796   19.8522 C.ar    1  UNL1        0.0784
     27 C          -2.1834  -17.8800   20.4227 C.ar    1  UNL1        0.1689
     28 C          -2.5782  -17.3540   21.7708 C.ar    1  UNL1        0.1757
     29 F          -1.8814  -16.1544   22.3413 F       1  UNL1       -0.2011
     30 O          -4.6687  -20.9526   20.0593 O.3     1  UNL1       -0.4691
     31 C          -6.1647  -21.0476   20.1143 C.3     1  UNL1        0.2526
     32 O          -1.0917  -17.2066   19.6451 O.3     1  UNL1       -0.4691
     33 C           0.3449  -17.4700   19.9870 C.3     1  UNL1        0.2526
@<TRIPOS>BOND
     1    18    19    2
     2    19    14    1
     3    14    15    2
     4    14    16   am
     5     9    16    1
     6     9    10    1
     7    10    11    1
     8    11    12    1
     9    12    13    1
    10    13     7    1
    11     7     1    1
    12     1     2   ar
    13     2     3   ar
    14     3     4   ar
    15     4    20    1
    16    20    21    1
    17    21    22    1
    18    22    23   ar
    19    23    24    1
    20    23    25   ar
    21    25    30    1
    22    30    31    1
    23    25    26   ar
    24    26    27   ar
    25    27    32    1
    26    32    33    1
    27    27    28   ar
    28    28    29    1
    29     4     5   ar
    30     5     6   ar
    31    13     9    1
    32     6     1   ar
    33    28    22   ar
    34    16    17    1
    35     7     8    1
@<TRIPOS>MOLECULE
*****
 33 35 0 0 0
SMALL
GASTEIGER

@<TRIPOS>ATOM
      1 C          -8.2382  -15.8076   22.2029 C.ar    1  UNL1        0.2172
      2 N          -7.7501  -17.1911   21.8903 N.ar    1  UNL1       -0.2091
      3 C          -6.4980  -17.7079   22.5343 C.ar    1  UNL1        0.1402
      4 C          -5.7338  -16.8414   23.4909 C.ar    1  UNL1        0.1773
      5 C          -6.2219  -15.4579   23.8036 C.ar    1  UNL1        0.1402
      6 N          -7.4741  -14.9411   23.1596 N.ar    1  UNL1       -0.2091
      7 N          -9.4905  -15.2906   21.5589 N.pl3   1  UNL1       -0.3006
      8 H          -9.4879  -14.4139   21.1110 H       1  UNL1        0.1497
      9 C         -11.0665  -17.2757   20.7098 C.3     1  UNL1        0.1219
     10 C         -12.4211  -17.7928   21.0939 C.3     1  UNL1        0.1634
     11 O         -12.9385  -16.9462   22.2190 O.3     1  UNL1       -0.3501
     12 C         -11.9036  -15.9058   22.5300 C.3     1  UNL1        0.1634
     13 C         -10.7467  -16.1094   21.5973 C.3     1  UNL1        0.1218
     14 C          -9.7796  -19.2714   19.6558 C.2     1  UNL1        0.2461
     15 O         -10.2532  -20.1627   20.7652 O.2     1  UNL1       -0.2701
     16 N         -10.1862  -17.8278   19.6280 N.am    1  UNL1       -0.2985
     17 H          -9.8753  -17.2428   18.8998 H       1  UNL1        0.1498
     18 C          -9.0438  -21.2540   18.1466 C.2     1  UNL1        0.0048
     19 C          -8.8993  -19.8235   18.5739 C.2     1  UNL1        0.0577
     20 O          -4.4816  -17.3584   24.1349 O.3     1  UNL1       -0.4673
     21 C          -3.1860  -17.3374   23.3794 C.3     1  UNL1        0.2368
     22 C          -3.0936  -17.9877   22.0307 C.ar    1  UNL1        0.0821
     23 C          -2.2940  -17.3403   20.9392 C.ar    1  UNL1        0.1757
     24 F          -1.5867  -16.0428   21.1962 F       1  UNL1       -0.2011
     25 C          -2.2017  -17.9906   19.5906 C.ar    1  UNL1        0.1689
     26 C          -2.9090  -19.2881   19.3336 C.ar    1  UNL1        0.0784
     27 C          -3.7086  -19.9355   20.4252 C.ar    1  UNL1        0.1689
     28 C          -3.8009  -19.2853   21.7737 C.ar    1  UNL1        0.1757
     29 F          -4.6005  -19.9326   22.8654 F       1  UNL1       -0.2011
     30 O          -1.4021  -17.3432   18.4990 O.3     1  UNL1       -0.4691
     31 C          -1.8927  -17.3883   17.0822 C.3     1  UNL1        0.2526
     32 O          -4.4159  -21.2331   20.1682 O.3     1  UNL1       -0.4691
     33 C          -5.9117  -21.3020   20.2554 C.3     1  UNL1        0.2526
@<TRIPOS>BOND
     1    18    19    2
     2    19    14    1
     3    14    15    2
     4    14    16   am
     5     9    16    1
     6     9    10    1
     7    10    11    1
     8    11    12    1
     9    12    13    1
    10    13     7    1
    11     7     1    1
    12     1     2   ar
    13     2     3   ar
    14     3     4   ar
    15     4    20    1
    16    20    21    1
    17    21    22    1
    18    22    23   ar
    19    23    24    1
    20    23    25   ar
    21    25    30    1
    22    30    31    1
    23    25    26   ar
    24    26    27   ar
    25    27    32    1
    26    32    33    1
    27    27    28   ar
    28    28    29    1
    29     4     5   ar
    30     5     6   ar
    31    13     9    1
    32     6     1   ar
    33    28    22   ar
    34    16    17    1
    35     7     8    1
@<TRIPOS>MOLECULE
*****
 33 35 0 0 0
SMALL
GASTEIGER

@<TRIPOS>ATOM
      1 C          -8.1878  -15.8312   22.2098 C.ar    1  UNL1        0.2172
      2 N          -7.7064  -17.2202   21.9121 N.ar    1  UNL1       -0.2091
      3 C          -6.4583  -17.7372   22.5640 C.ar    1  UNL1        0.1402
      4 C          -5.6918  -16.8652   23.5137 C.ar    1  UNL1        0.1773
      5 C          -6.1732  -15.4761   23.8114 C.ar    1  UNL1        0.1402
      6 N          -7.4212  -14.9591   23.1595 N.ar    1  UNL1       -0.2091
      7 N          -9.4359  -15.3141   21.5578 N.pl3   1  UNL1       -0.3006
      8 H          -9.4243  -14.4479   21.0900 H       1  UNL1        0.1497
      9 C         -11.0595  -17.2679   20.7259 C.3     1  UNL1        0.1219
     10 C         -12.4107  -17.7718   21.1384 C.3     1  UNL1        0.1634
     11 O         -12.8880  -16.9321   22.2862 O.3     1  UNL1       -0.3501
     12 C         -11.8317  -15.9093   22.5829 C.3     1  UNL1        0.1634
     13 C         -10.7016  -16.1168   21.6187 C.3     1  UNL1        0.1218
     14 C          -9.8392  -19.2707   19.6081 C.2     1  UNL1        0.2461
     15 O         -10.3089  -20.1724   20.7109 O.2     1  UNL1       -0.2701
     16 N         -10.2144  -17.8184   19.6156 N.am    1  UNL1       -0.2985
     17 H          -9.9061  -17.2265   18.8918 H       1  UNL1        0.1498
     18 C          -9.0277  -21.2881   18.1863 C.2     1  UNL1        0.0048
     19 C          -8.9941  -19.8211   18.4977 C.2     1  UNL1        0.0577
     20 O          -4.4436  -17.3822   24.1656 O.3     1  UNL1       -0.4673
     21 C          -3.1491  -17.3884   23.4080 C.3     1  UNL1        0.2368
     22 C          -3.0864  -17.9892   22.0350 C.ar    1  UNL1        0.0821
     23 C          -3.7724  -19.2934   21.7550 C.ar    1  UNL1        0.1757
     24 F          -4.5213  -19.9967   22.8480 F       1  UNL1       -0.2011
     25 C          -3.7097  -19.8942   20.3821 C.ar    1  UNL1        0.1689
     26 C          -2.9609  -19.1908   19.2891 C.ar    1  UNL1        0.0784
     27 C          -2.2748  -17.8867   19.5691 C.ar    1  UNL1        0.1689
     28 C          -2.3375  -17.2859   20.9421 C.ar    1  UNL1        0.1757
     29 F          -1.6514  -15.9817   21.2221 F       1  UNL1       -0.2011
     30 O          -4.3958  -21.1984   20.1020 O.3     1  UNL1       -0.4691
     31 C          -5.8901  -21.2939   20.1905 C.3     1  UNL1        0.2526
     32 O          -1.5260  -17.1834   18.4761 O.3     1  UNL1       -0.4691
     33 C          -1.5673  -17.7172   17.0750 C.3     1  UNL1        0.2526
@<TRIPOS>BOND
     1    18    19    2
     2    19    14    1
     3    14    15    2
     4    14    16   am
     5     9    16    1
     6     9    10    1
     7    10    11    1
     8    11    12    1
     9    12    13    1
    10    13     7    1
    11     7     1    1
    12     1     2   ar
    13     2     3   ar
    14     3     4   ar
    15     4    20    1
    16    20    21    1
    17    21    22    1
    18    22    23   ar
    19    23    24    1
    20    23    25   ar
    21    25    30    1
    22    30    31    1
    23    25    26   ar
    24    26    27   ar
    25    27    32    1
    26    32    33    1
    27    27    28   ar
    28    28    29    1
    29     4     5   ar
    30     5     6   ar
    31    13     9    1
    32     6     1   ar
    33    28    22   ar
    34    16    17    1
    35     7     8    1
@<TRIPOS>MOLECULE
*****
 33 35 0 0 0
SMALL
GASTEIGER

@<TRIPOS>ATOM
      1 C          -4.5605  -19.7632   20.8930 C.ar    1  UNL1        0.2172
      2 N          -5.5325  -18.6303   21.0406 N.ar    1  UNL1       -0.2091
      3 C          -6.9418  -18.7827   20.5503 C.ar    1  UNL1        0.1402
      4 C          -7.3792  -20.0680   19.9124 C.ar    1  UNL1        0.1773
      5 C          -6.4072  -21.2008   19.7649 C.ar    1  UNL1        0.1402
      6 N          -4.9978  -21.0484   20.2552 N.ar    1  UNL1       -0.2091
      7 N          -3.1510  -19.6108   21.3833 N.pl3   1  UNL1       -0.3006
      8 H          -2.6621  -20.3932   21.7270 H       1  UNL1        0.1497
      9 C          -2.8264  -17.0931   22.2205 C.3     1  UNL1        0.1219
     10 C          -1.9154  -15.9609   21.8488 C.3     1  UNL1        0.1634
     11 O          -1.0125  -16.4345   20.7485 O.3     1  UNL1       -0.3501
     12 C          -1.3655  -17.8594   20.4403 C.3     1  UNL1        0.1634
     13 C          -2.4865  -18.2665   21.3500 C.3     1  UNL1        0.1218
     14 C          -4.6762  -15.8017   23.5090 C.2     1  UNL1        0.2461
     15 O          -4.3981  -14.5803   22.6840 O.2     1  UNL1       -0.2701
     16 N          -3.8904  -17.0582   23.2773 N.am    1  UNL1       -0.2985
     17 H          -4.0729  -17.8599   23.8187 H       1  UNL1        0.1498
     18 C          -5.4286  -15.2163   25.9258 C.2     1  UNL1        0.0048
     19 C          -5.7403  -15.7668   24.5657 C.2     1  UNL1        0.0577
     20 O          -8.7886  -20.2203   19.4221 O.3     1  UNL1       -0.4673
     21 C          -9.9068  -20.4154   20.4027 C.3     1  UNL1        0.2368
     22 C         -10.2503  -19.3261   21.3751 C.ar    1  UNL1        0.0821
     23 C          -9.9544  -19.5031   22.8349 C.ar    1  UNL1        0.1757
     24 F          -9.3151  -20.7695   23.3223 F       1  UNL1       -0.2011
     25 C         -10.2978  -18.4138   23.8072 C.ar    1  UNL1        0.1689
     26 C         -10.9371  -17.1475   23.3198 C.ar    1  UNL1        0.0784
     27 C         -11.2330  -16.9704   21.8600 C.ar    1  UNL1        0.1689
     28 C         -10.8896  -18.0597   20.8876 C.ar    1  UNL1        0.1757
     29 F         -11.1855  -17.8827   19.4277 F       1  UNL1       -0.2011
     30 O         -10.0019  -18.5909   25.2671 O.3     1  UNL1       -0.4691
     31 C          -9.1869  -17.5647   25.9970 C.3     1  UNL1        0.2526
     32 O         -11.8723  -15.7041   21.3725 O.3     1  UNL1       -0.4691
     33 C         -12.7888  -15.7353   20.1855 C.3     1  UNL1        0.2526
@<TRIPOS>BOND
     1    18    19    2
     2    19    14    1
     3    14    15    2
     4    14    16   am
     5     9    16    1
     6     9    10    1
     7    10    11    1
     8    11    12    1
     9    12    13    1
    10    13     7    1
    11     7     1    1
    12     1     2   ar
    13     2     3   ar
    14     3     4   ar
    15     4    20    1
    16    20    21    1
    17    21    22    1
    18    22    23   ar
    19    23    24    1
    20    23    25   ar
    21    25    30    1
    22    30    31    1
    23    25    26   ar
    24    26    27   ar
    25    27    32    1
    26    32    33    1
    27    27    28   ar
    28    28    29    1
    29     4     5   ar
    30     5     6   ar
    31    13     9    1
    32     6     1   ar
    33    28    22   ar
    34    16    17    1
    35     7     8    1
@<TRIPOS>MOLECULE
*****
 33 35 0 0 0
SMALL
GASTEIGER

@<TRIPOS>ATOM
      1 C          -7.9032  -16.4031   24.0461 C.ar    1  UNL1        0.2172
      2 N          -7.2157  -17.4505   23.2213 N.ar    1  UNL1       -0.2091
      3 C          -5.7367  -17.3679   22.9854 C.ar    1  UNL1        0.1402
      4 C          -4.9453  -16.2379   23.5743 C.ar    1  UNL1        0.1773
      5 C          -5.6328  -15.1906   24.3991 C.ar    1  UNL1        0.1402
      6 N          -7.1118  -15.2732   24.6350 N.ar    1  UNL1       -0.2091
      7 N          -9.3823  -16.4857   24.2820 N.pl3   1  UNL1       -0.3006
      8 H          -9.8987  -15.6669   24.4610 H       1  UNL1        0.1497
      9 C         -10.8628  -18.3681   23.0947 C.3     1  UNL1        0.1219
     10 C         -11.3755  -19.7209   23.4909 C.3     1  UNL1        0.1634
     11 O         -10.9041  -20.0048   24.8863 O.3     1  UNL1       -0.3501
     12 C         -10.1001  -18.8274   25.3525 C.3     1  UNL1        0.1634
     13 C         -10.0746  -17.8159   24.2452 C.3     1  UNL1        0.1218
     14 C         -12.1658  -16.6416   21.6554 C.2     1  UNL1        0.2461
     15 O         -12.9999  -16.2772   22.8476 O.2     1  UNL1       -0.2701
     16 N         -11.0972  -17.6871   21.7789 N.am    1  UNL1       -0.2985
     17 H         -10.5498  -17.9262   20.9964 H       1  UNL1        0.1498
     18 C         -11.3832  -16.0772   19.2432 C.2     1  UNL1        0.0048
     19 C         -12.4002  -15.9606   20.3396 C.2     1  UNL1        0.0577
     20 O          -3.4662  -16.1553   23.3384 O.3     1  UNL1       -0.4673
     21 C          -2.6742  -17.4061   23.0970 C.3     1  UNL1        0.2368
     22 C          -2.7309  -18.0833   21.7597 C.ar    1  UNL1        0.0821
     23 C          -3.5744  -19.3098   21.5754 C.ar    1  UNL1        0.1757
     24 F          -4.3613  -19.8592   22.7282 F       1  UNL1       -0.2011
     25 C          -3.6311  -19.9870   20.2381 C.ar    1  UNL1        0.1689
     26 C          -2.8442  -19.4377   19.0853 C.ar    1  UNL1        0.0784
     27 C          -2.0006  -18.2112   19.2697 C.ar    1  UNL1        0.1689
     28 C          -1.9440  -17.5340   20.6069 C.ar    1  UNL1        0.1757
     29 F          -1.1004  -16.3074   20.7914 F       1  UNL1       -0.2011
     30 O          -4.4747  -21.2136   20.0537 O.3     1  UNL1       -0.4691
     31 C          -5.9637  -21.1310   20.2148 C.3     1  UNL1        0.2526
     32 O          -1.2137  -17.6618   18.1169 O.3     1  UNL1       -0.4691
     33 C          -1.8630  -17.5013   16.7743 C.3     1  UNL1        0.2526
@<TRIPOS>BOND
     1    18    19    2
     2    19    14    1
     3    14    15    2
     4    14    16   am
     5     9    16    1
     6     9    10    1
     7    10    11    1
     8    11    12    1
     9    12    13    1
    10    13     7    1
    11     7     1    1
    12     1     2   ar
    13     2     3   ar
    14     3     4   ar
    15     4    20    1
    16    20    21    1
    17    21    22    1
    18    22    23   ar
    19    23    24    1
    20    23    25   ar
    21    25    30    1
    22    30    31    1
    23    25    26   ar
    24    26    27   ar
    25    27    32    1
    26    32    33    1
    27    27    28   ar
    28    28    29    1
    29     4     5   ar
    30     5     6   ar
    31    13     9    1
    32     6     1   ar
    33    28    22   ar
    34    16    17    1
    35     7     8    1
@<TRIPOS>MOLECULE
*****
 33 35 0 0 0
SMALL
GASTEIGER

@<TRIPOS>ATOM
      1 C          -0.5238    2.7485   19.5240 C.ar    1  UNL1        0.2172
      2 N           0.3553    2.2583   18.4119 N.ar    1  UNL1       -0.2091
      3 C           1.0769    0.9504   18.5473 C.ar    1  UNL1        0.1402
      4 C           0.9195    0.1326   19.7949 C.ar    1  UNL1        0.1773
      5 C           0.0404    0.6228   20.9070 C.ar    1  UNL1        0.1402
      6 N          -0.6813    1.9307   20.7715 N.ar    1  UNL1       -0.2091
      7 N          -1.2456    4.0566   19.3886 N.pl3   1  UNL1       -0.3006
      8 H          -0.8204    4.8879   19.7005 H       1  UNL1        0.1497
      9 C          -3.8687    3.5428   19.3864 C.3     1  UNL1        0.1219
     10 C          -4.9998    3.8033   18.4362 C.3     1  UNL1        0.1634
     11 O          -4.4450    4.5194   17.2405 O.3     1  UNL1       -0.3501
     12 C          -2.9712    4.7014   17.4518 C.3     1  UNL1        0.1634
     13 C          -2.6150    4.0978   18.7780 C.3     1  UNL1        0.1218
     14 C          -4.6658    3.5234   21.8590 C.2     1  UNL1        0.2461
     15 O          -5.2541    4.8914   21.6802 O.2     1  UNL1       -0.2701
     16 N          -3.9731    2.8490   20.7121 N.am    1  UNL1       -0.2985
     17 H          -3.5870    1.9510   20.8296 H       1  UNL1        0.1498
     18 C          -5.0024    3.6282   24.4331 C.2     1  UNL1        0.0048
     19 C          -4.7702    2.8295   23.1849 C.2     1  UNL1        0.0577
     20 O           1.6412   -1.1754   19.9303 O.3     1  UNL1       -0.4673
     21 C           3.1405   -1.2050   19.9616 C.3     1  UNL1        0.2368
     22 C           3.8541   -1.8527   21.1112 C.ar    1  UNL1        0.0821
     23 C           4.8717   -2.9243   20.8545 C.ar    1  UNL1        0.1757
     24 F           5.1758   -3.3484   19.4482 F       1  UNL1       -0.2011
     25 C           5.5851   -3.5719   22.0041 C.ar    1  UNL1        0.1689
     26 C           5.2810   -3.1478   23.4104 C.ar    1  UNL1        0.0784
     27 C           4.2634   -2.0761   23.6671 C.ar    1  UNL1        0.1689
     28 C           3.5499   -1.4286   22.5175 C.ar    1  UNL1        0.1757
     29 F           2.5322   -0.3568   22.7742 F       1  UNL1       -0.2011
     30 O           6.6028   -4.6436   21.7474 O.3     1  UNL1       -0.4691
     31 C           7.9272   -4.2899   21.1384 C.3     1  UNL1        0.2526
     32 O           3.9592   -1.6520   25.0734 O.3     1  UNL1       -0.4691
     33 C           4.3009   -0.2643   25.5288 C.3     1  UNL1        0.2526
@<TRIPOS>BOND
     1    18    19    2
     2    19    14    1
     3    14    15    2
     4    14    16   am
     5     9    16    1
     6     9    10    1
     7    10    11    1
     8    11    12    1
     9    12    13    1
    10    13     7    1
    11     7     1    1
    12     1     2   ar
    13     2     3   ar
    14     3     4   ar
    15     4    20    1
    16    20    21    1
    17    21    22    1
    18    22    23   ar
    19    23    24    1
    20    23    25   ar
    21    25    30    1
    22    30    31    1
    23    25    26   ar
    24    26    27   ar
    25    27    32    1
    26    32    33    1
    27    27    28   ar
    28    28    29    1
    29     4     5   ar
    30     5     6   ar
    31    13     9    1
    32     6     1   ar
    33    28    22   ar
    34    16    17    1
    35     7     8    1
