@<TRIPOS>MOLECULE
*****
 41 45 0 0 0
SMALL
GASTEIGER

@<TRIPOS>ATOM
      1 N           6.7189   -4.9415   28.5220 N.am    1  UNL1       -0.2948
      2 C           7.2021   -3.7708   27.7183 C.2     1  UNL1        0.2462
      3 O           8.2931   -2.8921   28.2545 O.2     1  UNL1       -0.2701
      4 H           6.0028   -5.5183   28.1700 H       1  UNL1        0.1501
      5 C           6.5942   -3.4788   26.3784 C.ar    1  UNL1        0.0550
      6 C           6.9920   -4.2905   25.1814 C.ar    1  UNL1        0.0061
      7 C           6.3842   -3.9984   23.8416 C.ar    1  UNL1        0.0189
      8 C           5.3786   -2.8946   23.6987 C.ar    1  UNL1        0.0788
      9 C           4.9808   -2.0829   24.8957 C.ar    1  UNL1        0.0988
     10 C           5.5886   -2.3750   26.2355 C.ar    1  UNL1        0.0251
     11 N           3.9720   -1.0656   24.4514 N.ar    1  UNL1       -0.2267
     12 C           3.7463   -1.2487   22.9798 C.ar    1  UNL1        0.1469
     13 N           4.6156   -2.3791   22.5146 N.ar    1  UNL1       -0.3133
     14 C           4.7060   -2.9021   21.1117 C.3     1  UNL1        0.0869
     15 C           4.0242   -4.1868   20.7447 C.3     1  UNL1        0.0226
     16 C           4.1147   -4.7097   19.3418 C.3     1  UNL1        0.0019
     17 C           4.8870   -3.9480   18.3058 C.3     1  UNL1        0.0001
     18 C           5.5689   -2.6633   18.6727 C.3     1  UNL1        0.0019
     19 C           5.4784   -2.1404   20.0757 C.3     1  UNL1        0.0226
     20 C           2.8147   -0.4427   22.1238 C.ar    1  UNL1        0.0748
     21 C           2.1020   -0.9289   20.8967 C.ar    1  UNL1        0.0468
     22 C           1.2792    0.2043   20.3591 C.ar    1  UNL1        0.1799
     23 O           1.4834    1.3907   21.2539 O.2     1  UNL1       -0.4472
     24 C           2.4325    0.9908   22.3446 C.ar    1  UNL1        0.1827
     25 C           8.4230   -6.2502   29.9827 C.3     1  UNL1        0.0312
     26 C           7.3267   -5.2336   29.8619 C.3     1  UNL1        0.1491
     27 C           6.8382   -4.5089   31.0810 C.2     1  UNL1        0.2440
     28 O           6.5271   -5.2734   32.3336 O.2     1  UNL1       -0.2730
     29 N           6.6607   -3.0199   31.0476 N.am    1  UNL1       -0.2826
     30 H           6.8649   -2.5181   30.2256 H       1  UNL1        0.1549
     31 C           6.1722   -2.2952   32.2668 C.ar    1  UNL1        0.0503
     32 C           4.7595   -2.4824   32.7347 C.ar    1  UNL1        0.0147
     33 C           4.2710   -1.7578   33.9539 C.ar    1  UNL1        0.0013
     34 C           5.1952   -0.8460   34.7050 C.ar    1  UNL1        0.0001
     35 C           6.6080   -0.6588   34.2371 C.ar    1  UNL1        0.0013
     36 C           7.0965   -1.3834   33.0180 C.ar    1  UNL1        0.0147
     37 C           4.7067   -0.1213   35.9242 C.2     1  UNL1        0.0012
     38 C           3.8960    1.1320   35.7771 C.2     1  UNL1        0.0151
     39 C           3.4075    1.8567   36.9962 C.2     1  UNL1        0.0729
     40 O           2.1106    2.6090   36.9522 O.co2   1  UNL1       -0.5446
     41 O           4.2160    1.8290   38.2594 O.co2   1  UNL1       -0.5446
@<TRIPOS>UNITY_ATOM_ATTR
40 1
charge -1
@<TRIPOS>BOND
     1    26    25    1
     2    26     1    1
     3     1     2   am
     4     2     3    2
     5     2     5    1
     6     5     6   ar
     7     6     7   ar
     8     7     8   ar
     9     8     9   ar
    10     9    10   ar
    11     9    11   ar
    12    11    12   ar
    13    12    20    1
    14    20    21   ar
    15    21    22   ar
    16    22    23   ar
    17    23    24   ar
    18    12    13   ar
    19    13    14    1
    20    14    15    1
    21    15    16    1
    22    16    17    1
    23    17    18    1
    24    18    19    1
    25    26    27    1
    26    27    28    2
    27    27    29   am
    28    29    31    1
    29    31    32   ar
    30    32    33   ar
    31    33    34   ar
    32    34    37    1
    33    37    38    2
    34    38    39    1
    35    39    40   ar
    36    39    41   ar
    37    34    35   ar
    38    35    36   ar
    39    10     5   ar
    40    24    20   ar
    41    19    14    1
    42    36    31   ar
    43    13     8   ar
    44     1     4    1
    45    29    30    1
@<TRIPOS>MOLECULE
*****
 41 45 0 0 0
SMALL
GASTEIGER

@<TRIPOS>ATOM
      1 N           5.0087   -1.2619   19.7331 N.am    1  UNL1       -0.2948
      2 C           3.5817   -1.5633   19.3831 C.2     1  UNL1        0.2462
      3 O           3.2213   -2.8884   18.7796 O.2     1  UNL1       -0.2701
      4 H           5.2453   -0.3921   20.1292 H       1  UNL1        0.1501
      5 C           2.5150   -0.5395   19.6364 C.ar    1  UNL1        0.0550
      6 C           1.8129   -0.5000   20.9613 C.ar    1  UNL1        0.0061
      7 C           0.7462    0.5237   21.2146 C.ar    1  UNL1        0.0189
      8 C           0.3816    1.5079   20.1429 C.ar    1  UNL1        0.0788
      9 C           1.0837    1.4684   18.8180 C.ar    1  UNL1        0.0988
     10 C           2.1504    0.4447   18.5647 C.ar    1  UNL1        0.0251
     11 N           0.5147    2.5587   17.9592 N.ar    1  UNL1       -0.2267
     12 C          -0.5390    3.2721   18.7534 C.ar    1  UNL1        0.1469
     13 N          -0.6213    2.6227   20.1030 N.ar    1  UNL1       -0.3133
     14 C          -1.5444    3.0185   21.2171 C.3     1  UNL1        0.0869
     15 C          -0.9916    3.3141   22.5799 C.3     1  UNL1        0.0226
     16 C          -1.9147    3.7099   23.6939 C.3     1  UNL1        0.0019
     17 C          -3.3906    3.8101   23.4452 C.3     1  UNL1        0.0001
     18 C          -3.9433    3.5146   22.0825 C.3     1  UNL1        0.0019
     19 C          -3.0202    3.1188   20.9685 C.3     1  UNL1        0.0226
     20 C          -1.3654    4.4314   18.2809 C.ar    1  UNL1        0.0748
     21 C          -1.1133    5.8776   18.5893 C.ar    1  UNL1        0.0468
     22 C          -2.1811    6.6879   17.9160 C.ar    1  UNL1        0.1799
     23 O          -3.0928    5.7426   17.1914 O.2     1  UNL1       -0.4472
     24 C          -2.5887    4.3479   17.4170 C.ar    1  UNL1        0.1827
     25 C           6.8883   -2.2260   18.2206 C.3     1  UNL1        0.0312
     26 C           6.0755   -2.2856   19.4798 C.3     1  UNL1        0.1491
     27 C           6.3293   -3.3690   20.4858 C.2     1  UNL1        0.2440
     28 O           5.2511   -4.3609   20.8079 O.2     1  UNL1       -0.2730
     29 N           7.6612   -3.4604   21.1696 N.am    1  UNL1       -0.2826
     30 H           8.3688   -2.8094   20.9581 H       1  UNL1        0.1549
     31 C           7.9150   -4.5438   22.1755 C.ar    1  UNL1        0.0503
     32 C           7.3507   -4.4284   23.5605 C.ar    1  UNL1        0.0147
     33 C           7.6045   -5.5118   24.5664 C.ar    1  UNL1        0.0013
     34 C           8.4226   -6.7105   24.1874 C.ar    1  UNL1        0.0001
     35 C           8.9869   -6.8259   22.8024 C.ar    1  UNL1        0.0013
     36 C           8.7331   -5.7425   21.7965 C.ar    1  UNL1        0.0147
     37 C           8.6764   -7.7939   25.1934 C.2     1  UNL1        0.0012
     38 C           8.1147   -7.6770   26.5793 C.2     1  UNL1        0.0151
     39 C           8.3685   -8.7603   27.5852 C.2     1  UNL1        0.0729
     40 O           9.4274   -8.5787   28.6320 O.co2   1  UNL1       -0.5446
     41 O           7.5634  -10.0254   27.5443 O.co2   1  UNL1       -0.5446
@<TRIPOS>UNITY_ATOM_ATTR
40 1
charge -1
@<TRIPOS>BOND
     1    26    25    1
     2    26     1    1
     3     1     2   am
     4     2     3    2
     5     2     5    1
     6     5     6   ar
     7     6     7   ar
     8     7     8   ar
     9     8     9   ar
    10     9    10   ar
    11     9    11   ar
    12    11    12   ar
    13    12    20    1
    14    20    21   ar
    15    21    22   ar
    16    22    23   ar
    17    23    24   ar
    18    12    13   ar
    19    13    14    1
    20    14    15    1
    21    15    16    1
    22    16    17    1
    23    17    18    1
    24    18    19    1
    25    26    27    1
    26    27    28    2
    27    27    29   am
    28    29    31    1
    29    31    32   ar
    30    32    33   ar
    31    33    34   ar
    32    34    37    1
    33    37    38    2
    34    38    39    1
    35    39    40   ar
    36    39    41   ar
    37    34    35   ar
    38    35    36   ar
    39    10     5   ar
    40    24    20   ar
    41    19    14    1
    42    36    31   ar
    43    13     8   ar
    44     1     4    1
    45    29    30    1
@<TRIPOS>MOLECULE
*****
 41 45 0 0 0
SMALL
GASTEIGER

@<TRIPOS>ATOM
      1 N           0.6341    0.6160   26.7124 N.am    1  UNL1       -0.2948
      2 C           2.0060    0.9885   26.2340 C.2     1  UNL1        0.2462
      3 O           2.6438    2.2624   26.7036 O.2     1  UNL1       -0.2701
      4 H           0.2155   -0.2201   26.4042 H       1  UNL1        0.1501
      5 C           2.7402    0.0873   25.2859 C.ar    1  UNL1        0.0550
      6 C           2.3593    0.0545   23.8355 C.ar    1  UNL1        0.0061
      7 C           3.0935   -0.8468   22.8875 C.ar    1  UNL1        0.0189
      8 C           4.2085   -1.7152   23.3900 C.ar    1  UNL1        0.0788
      9 C           4.5894   -1.6824   24.8404 C.ar    1  UNL1        0.0988
     10 C           3.8552   -0.7812   25.7884 C.ar    1  UNL1        0.0251
     11 N           5.7225   -2.6440   25.0440 N.ar    1  UNL1       -0.2267
     12 C           6.0419   -3.2711   23.7193 C.ar    1  UNL1        0.1469
     13 N           5.1062   -2.6971   22.6971 N.ar    1  UNL1       -0.3133
     14 C           5.0739   -3.0440   21.2381 C.3     1  UNL1        0.0869
     15 C           4.2743   -4.2216   20.7647 C.3     1  UNL1        0.0226
     16 C           4.2420   -4.5684   19.3058 C.3     1  UNL1        0.0019
     17 C           5.0093   -3.7378   18.3202 C.3     1  UNL1        0.0001
     18 C           5.8089   -2.5603   18.7936 C.3     1  UNL1        0.0019
     19 C           5.8412   -2.2134   20.2525 C.3     1  UNL1        0.0226
     20 C           7.1096   -4.2929   23.4621 C.ar    1  UNL1        0.0748
     21 C           8.0272   -4.3298   22.2760 C.ar    1  UNL1        0.0468
     22 C           8.9318   -5.5169   22.4268 C.ar    1  UNL1        0.1799
     23 O           8.5733   -6.2135   23.7059 O.2     1  UNL1       -0.4472
     24 C           7.4470   -5.4569   24.3458 C.ar    1  UNL1        0.1827
     25 C          -1.1745    2.4297   27.1477 C.3     1  UNL1        0.0312
     26 C          -0.1001    1.5172   27.6605 C.3     1  UNL1        0.1491
     27 C           0.2402    1.5060   29.1214 C.2     1  UNL1        0.2440
     28 O          -0.6208    0.7457   30.0862 O.2     1  UNL1       -0.2730
     29 N           1.4413    2.2550   29.6174 N.am    1  UNL1       -0.2826
     30 H           2.0064    2.7540   28.9842 H       1  UNL1        0.1549
     31 C           1.7816    2.2438   31.0783 C.ar    1  UNL1        0.0503
     32 C           1.2254    3.3004   31.9861 C.ar    1  UNL1        0.0147
     33 C           1.5657    3.2891   33.4469 C.ar    1  UNL1        0.0013
     34 C           2.4622    2.2213   34.0000 C.ar    1  UNL1        0.0001
     35 C           3.0184    1.1647   33.0922 C.ar    1  UNL1        0.0013
     36 C           2.6782    1.1759   31.6313 C.ar    1  UNL1        0.0147
     37 C           2.8025    2.2101   35.4608 C.2     1  UNL1        0.0012
     38 C           2.2796    3.2899   36.3610 C.2     1  UNL1        0.0151
     39 C           2.6199    3.2786   37.8219 C.2     1  UNL1        0.0729
     40 O           1.6076    2.8091   38.8242 O.co2   1  UNL1       -0.5446
     41 O           3.9726    3.7370   38.2804 O.co2   1  UNL1       -0.5446
@<TRIPOS>UNITY_ATOM_ATTR
40 1
charge -1
@<TRIPOS>BOND
     1    26    25    1
     2    26     1    1
     3     1     2   am
     4     2     3    2
     5     2     5    1
     6     5     6   ar
     7     6     7   ar
     8     7     8   ar
     9     8     9   ar
    10     9    10   ar
    11     9    11   ar
    12    11    12   ar
    13    12    20    1
    14    20    21   ar
    15    21    22   ar
    16    22    23   ar
    17    23    24   ar
    18    12    13   ar
    19    13    14    1
    20    14    15    1
    21    15    16    1
    22    16    17    1
    23    17    18    1
    24    18    19    1
    25    26    27    1
    26    27    28    2
    27    27    29   am
    28    29    31    1
    29    31    32   ar
    30    32    33   ar
    31    33    34   ar
    32    34    37    1
    33    37    38    2
    34    38    39    1
    35    39    40   ar
    36    39    41   ar
    37    34    35   ar
    38    35    36   ar
    39    10     5   ar
    40    24    20   ar
    41    19    14    1
    42    36    31   ar
    43    13     8   ar
    44     1     4    1
    45    29    30    1
@<TRIPOS>MOLECULE
*****
 41 45 0 0 0
SMALL
GASTEIGER

@<TRIPOS>ATOM
      1 N           1.1280    0.2891   27.7052 N.am    1  UNL1       -0.2948
      2 C           1.1938    1.6898   27.1726 C.2     1  UNL1        0.2462
      3 O           2.4167    2.5255   27.4091 O.2     1  UNL1       -0.2701
      4 H           0.3254   -0.2594   27.5500 H       1  UNL1        0.1501
      5 C           0.0365    2.2548   26.4034 C.ar    1  UNL1        0.0550
      6 C           0.0843    2.3040   24.9050 C.ar    1  UNL1        0.0061
      7 C          -1.0729    2.8690   24.1359 C.ar    1  UNL1        0.0189
      8 C          -2.2779    3.3848   24.8651 C.ar    1  UNL1        0.0788
      9 C          -2.3257    3.3356   26.3635 C.ar    1  UNL1        0.0988
     10 C          -1.1685    2.7706   27.1326 C.ar    1  UNL1        0.0251
     11 N          -3.6376    3.9138   26.8046 N.ar    1  UNL1       -0.2267
     12 C          -4.4006    4.3204   25.5788 C.ar    1  UNL1        0.1469
     13 N          -3.5603    3.9934   24.3801 N.ar    1  UNL1       -0.3133
     14 C          -3.9362    4.2330   22.9479 C.3     1  UNL1        0.0869
     15 C          -3.6774    5.5695   22.3180 C.3     1  UNL1        0.0226
     16 C          -4.0533    5.8090   20.8858 C.3     1  UNL1        0.0019
     17 C          -4.6882    4.7121   20.0835 C.3     1  UNL1        0.0001
     18 C          -4.9470    3.3756   20.7134 C.3     1  UNL1        0.0019
     19 C          -4.5711    3.1361   22.1456 C.3     1  UNL1        0.0226
     20 C          -5.7645    4.9444   25.5558 C.ar    1  UNL1        0.0748
     21 C          -6.7923    4.7775   24.4761 C.ar    1  UNL1        0.0468
     22 C          -8.0030    5.5748   24.8615 C.ar    1  UNL1        0.1799
     23 O          -7.7234    6.2344   26.1794 O.2     1  UNL1       -0.4472
     24 C          -6.3399    5.8448   26.6085 C.ar    1  UNL1        0.1827
     25 C           3.3081   -1.1225   27.7765 C.3     1  UNL1        0.0312
     26 C           2.2853   -0.2759   28.4744 C.3     1  UNL1        0.1491
     27 C           2.4197    0.0058   29.9416 C.2     1  UNL1        0.2440
     28 O           2.1774   -1.0869   30.9404 O.2     1  UNL1       -0.2730
     29 N           2.7964    1.3800   30.4101 N.am    1  UNL1       -0.2826
     30 H           2.9555    2.0971   29.7546 H       1  UNL1        0.1549
     31 C           2.9309    1.6617   31.8772 C.ar    1  UNL1        0.0503
     32 C           1.8289    2.3686   32.6093 C.ar    1  UNL1        0.0147
     33 C           1.9634    2.6503   34.0764 C.ar    1  UNL1        0.0013
     34 C           3.1997    2.2250   34.8116 C.ar    1  UNL1        0.0001
     35 C           4.3016    1.5180   34.0796 C.ar    1  UNL1        0.0013
     36 C           4.1672    1.2363   32.6124 C.ar    1  UNL1        0.0147
     37 C           3.3341    2.5066   36.2788 C.2     1  UNL1        0.0012
     38 C           2.8515    1.5020   37.2826 C.2     1  UNL1        0.0151
     39 C           2.9859    1.7837   38.7498 C.2     1  UNL1        0.0729
     40 O           4.3314    2.0998   39.3326 O.co2   1  UNL1       -0.5446
     41 O           1.7748    1.7491   39.6342 O.co2   1  UNL1       -0.5446
@<TRIPOS>UNITY_ATOM_ATTR
40 1
charge -1
@<TRIPOS>BOND
     1    26    25    1
     2    26     1    1
     3     1     2   am
     4     2     3    2
     5     2     5    1
     6     5     6   ar
     7     6     7   ar
     8     7     8   ar
     9     8     9   ar
    10     9    10   ar
    11     9    11   ar
    12    11    12   ar
    13    12    20    1
    14    20    21   ar
    15    21    22   ar
    16    22    23   ar
    17    23    24   ar
    18    12    13   ar
    19    13    14    1
    20    14    15    1
    21    15    16    1
    22    16    17    1
    23    17    18    1
    24    18    19    1
    25    26    27    1
    26    27    28    2
    27    27    29   am
    28    29    31    1
    29    31    32   ar
    30    32    33   ar
    31    33    34   ar
    32    34    37    1
    33    37    38    2
    34    38    39    1
    35    39    40   ar
    36    39    41   ar
    37    34    35   ar
    38    35    36   ar
    39    10     5   ar
    40    24    20   ar
    41    19    14    1
    42    36    31   ar
    43    13     8   ar
    44     1     4    1
    45    29    30    1
@<TRIPOS>MOLECULE
*****
 41 45 0 0 0
SMALL
GASTEIGER

@<TRIPOS>ATOM
      1 N           6.0011   -3.9340   27.6383 N.am    1  UNL1       -0.2948
      2 C           6.6959   -2.9707   26.7221 C.2     1  UNL1        0.2462
      3 O           8.1318   -2.6096   26.9628 O.2     1  UNL1       -0.2701
      4 H           5.0587   -4.1709   27.4803 H       1  UNL1        0.1501
      5 C           5.9549   -2.3685   25.5653 C.ar    1  UNL1        0.0550
      6 C           4.6404   -1.6824   25.7920 C.ar    1  UNL1        0.0061
      7 C           3.8995   -1.0802   24.6352 C.ar    1  UNL1        0.0189
      8 C           4.4729   -1.1641   23.2517 C.ar    1  UNL1        0.0788
      9 C           5.7874   -1.8502   23.0250 C.ar    1  UNL1        0.0988
     10 C           6.5284   -2.4524   24.1818 C.ar    1  UNL1        0.0251
     11 N           6.1015   -1.7777   21.5600 N.ar    1  UNL1       -0.2267
     12 C           4.9812   -1.0467   20.8813 C.ar    1  UNL1        0.1469
     13 N           3.9747   -0.6675   21.9268 N.ar    1  UNL1       -0.3133
     14 C           2.6946    0.0775   21.6892 C.3     1  UNL1        0.0869
     15 C           1.6196   -0.5309   20.8382 C.3     1  UNL1        0.0226
     16 C           0.3396    0.2142   20.6006 C.3     1  UNL1        0.0019
     17 C           0.1346    1.5676   21.2140 C.3     1  UNL1        0.0001
     18 C           1.2096    2.1760   22.0650 C.3     1  UNL1        0.0019
     19 C           2.4896    1.4309   22.3026 C.3     1  UNL1        0.0226
     20 C           4.8845   -0.7475   19.4146 C.ar    1  UNL1        0.0748
     21 C           4.0389   -1.4841   18.4184 C.ar    1  UNL1        0.0468
     22 C           4.2483   -0.8509   17.0747 C.ar    1  UNL1        0.1799
     23 O           5.2232    0.2769   17.2406 O.2     1  UNL1       -0.4472
     24 C           5.6165    0.3408   18.6868 C.ar    1  UNL1        0.1827
     25 C           7.6734   -5.6904   28.5703 C.3     1  UNL1        0.0312
     26 C           6.7422   -4.5362   28.7951 C.3     1  UNL1        0.1491
     27 C           6.5520   -3.9842   30.1768 C.2     1  UNL1        0.2440
     28 O           6.8598   -4.8349   31.3733 O.2     1  UNL1       -0.2730
     29 N           6.0538   -2.5815   30.3621 N.am    1  UNL1       -0.2826
     30 H           5.8518   -2.0232   29.5768 H       1  UNL1        0.1549
     31 C           5.8636   -2.0295   31.7438 C.ar    1  UNL1        0.0503
     32 C           4.5904   -2.2980   32.4899 C.ar    1  UNL1        0.0147
     33 C           4.4001   -1.7460   33.8716 C.ar    1  UNL1        0.0013
     34 C           5.4831   -0.9255   34.5072 C.ar    1  UNL1        0.0001
     35 C           6.7563   -0.6570   33.7610 C.ar    1  UNL1        0.0013
     36 C           6.9465   -1.2090   32.3793 C.ar    1  UNL1        0.0147
     37 C           5.2929   -0.3734   35.8889 C.2     1  UNL1        0.0012
     38 C           4.3571    0.7769   36.1147 C.2     1  UNL1        0.0151
     39 C           4.1668    1.3289   37.4963 C.2     1  UNL1        0.0729
     40 O           3.0047    0.8780   38.3307 O.co2   1  UNL1       -0.5446
     41 O           5.1387    2.3319   38.0437 O.co2   1  UNL1       -0.5446
@<TRIPOS>UNITY_ATOM_ATTR
40 1
charge -1
@<TRIPOS>BOND
     1    26    25    1
     2    26     1    1
     3     1     2   am
     4     2     3    2
     5     2     5    1
     6     5     6   ar
     7     6     7   ar
     8     7     8   ar
     9     8     9   ar
    10     9    10   ar
    11     9    11   ar
    12    11    12   ar
    13    12    20    1
    14    20    21   ar
    15    21    22   ar
    16    22    23   ar
    17    23    24   ar
    18    12    13   ar
    19    13    14    1
    20    14    15    1
    21    15    16    1
    22    16    17    1
    23    17    18    1
    24    18    19    1
    25    26    27    1
    26    27    28    2
    27    27    29   am
    28    29    31    1
    29    31    32   ar
    30    32    33   ar
    31    33    34   ar
    32    34    37    1
    33    37    38    2
    34    38    39    1
    35    39    40   ar
    36    39    41   ar
    37    34    35   ar
    38    35    36   ar
    39    10     5   ar
    40    24    20   ar
    41    19    14    1
    42    36    31   ar
    43    13     8   ar
    44     1     4    1
    45    29    30    1
@<TRIPOS>MOLECULE
*****
 41 45 0 0 0
SMALL
GASTEIGER

@<TRIPOS>ATOM
      1 N           1.4042    0.2100   27.7181 N.am    1  UNL1       -0.2948
      2 C           1.4482    1.6432   27.2777 C.2     1  UNL1        0.2462
      3 O           2.6273    2.5005   27.6311 O.2     1  UNL1       -0.2701
      4 H           0.6303   -0.3526   27.4862 H       1  UNL1        0.1501
      5 C           0.3132    2.2192   26.4840 C.ar    1  UNL1        0.0550
      6 C          -0.9252    2.6960   27.1835 C.ar    1  UNL1        0.0061
      7 C          -2.0601    3.2720   26.3897 C.ar    1  UNL1        0.0189
      8 C          -1.9568    3.3712   24.8966 C.ar    1  UNL1        0.0788
      9 C          -0.7185    2.8944   24.1972 C.ar    1  UNL1        0.0988
     10 C           0.4165    2.3184   24.9909 C.ar    1  UNL1        0.0251
     11 N          -0.9024    3.1178   22.7254 N.ar    1  UNL1       -0.2267
     12 C          -2.2543    3.7327   22.5151 C.ar    1  UNL1        0.1469
     13 N          -2.9060    3.8893   23.8570 N.ar    1  UNL1       -0.3133
     14 C          -4.2678    4.4632   24.1143 C.3     1  UNL1        0.0869
     15 C          -4.4126    5.7155   24.9271 C.3     1  UNL1        0.0226
     16 C          -5.7744    6.2893   25.1842 C.3     1  UNL1        0.0019
     17 C          -6.9914    5.6109   24.6287 C.3     1  UNL1        0.0001
     18 C          -6.8466    4.3585   23.8159 C.3     1  UNL1        0.0019
     19 C          -5.4848    3.7847   23.5587 C.3     1  UNL1        0.0226
     20 C          -2.8500    4.1225   21.1948 C.ar    1  UNL1        0.0748
     21 C          -3.7347    3.2651   20.3391 C.ar    1  UNL1        0.0468
     22 C          -4.0969    4.0510   19.1138 C.ar    1  UNL1        0.1799
     23 O          -3.4361    5.3939   19.2122 O.2     1  UNL1       -0.4472
     24 C          -2.6654    5.4381   20.4984 C.ar    1  UNL1        0.1827
     25 C           3.5869   -1.1947   27.8296 C.3     1  UNL1        0.0312
     26 C           2.5392   -0.3660   28.5118 C.3     1  UNL1        0.1491
     27 C           2.6265   -0.1132   29.9878 C.2     1  UNL1        0.2440
     28 O           2.3414   -1.2222   30.9568 O.2     1  UNL1       -0.2730
     29 N           2.9990    1.2485   30.4947 N.am    1  UNL1       -0.2826
     30 H           3.1861    1.9763   29.8587 H       1  UNL1        0.1549
     31 C           3.0863    1.5013   31.9707 C.ar    1  UNL1        0.0503
     32 C           1.9773    2.2257   32.6745 C.ar    1  UNL1        0.0147
     33 C           2.0646    2.4785   34.1504 C.ar    1  UNL1        0.0013
     34 C           3.2610    2.0069   34.9226 C.ar    1  UNL1        0.0001
     35 C           4.3699    1.2825   34.2189 C.ar    1  UNL1        0.0013
     36 C           4.2826    1.0297   32.7429 C.ar    1  UNL1        0.0147
     37 C           3.3483    2.2597   36.3986 C.2     1  UNL1        0.0012
     38 C           3.1802    1.1250   37.3651 C.2     1  UNL1        0.0151
     39 C           3.2676    1.3778   38.8411 C.2     1  UNL1        0.0729
     40 O           4.1291    2.4897   39.3618 O.co2   1  UNL1       -0.5446
     41 O           2.4933    0.5185   39.7962 O.co2   1  UNL1       -0.5446
@<TRIPOS>UNITY_ATOM_ATTR
40 1
charge -1
@<TRIPOS>BOND
     1    26    25    1
     2    26     1    1
     3     1     2   am
     4     2     3    2
     5     2     5    1
     6     5     6   ar
     7     6     7   ar
     8     7     8   ar
     9     8     9   ar
    10     9    10   ar
    11     9    11   ar
    12    11    12   ar
    13    12    20    1
    14    20    21   ar
    15    21    22   ar
    16    22    23   ar
    17    23    24   ar
    18    12    13   ar
    19    13    14    1
    20    14    15    1
    21    15    16    1
    22    16    17    1
    23    17    18    1
    24    18    19    1
    25    26    27    1
    26    27    28    2
    27    27    29   am
    28    29    31    1
    29    31    32   ar
    30    32    33   ar
    31    33    34   ar
    32    34    37    1
    33    37    38    2
    34    38    39    1
    35    39    40   ar
    36    39    41   ar
    37    34    35   ar
    38    35    36   ar
    39    10     5   ar
    40    24    20   ar
    41    19    14    1
    42    36    31   ar
    43    13     8   ar
    44     1     4    1
    45    29    30    1
@<TRIPOS>MOLECULE
*****
 41 45 0 0 0
SMALL
GASTEIGER

@<TRIPOS>ATOM
      1 N           1.1879    1.4733   28.5872 N.am    1  UNL1       -0.2948
      2 C           1.7042    2.6519   29.3581 C.2     1  UNL1        0.2462
      3 O           1.5789    4.0338   28.7884 O.2     1  UNL1       -0.2701
      4 H           1.2702    0.5662   28.9612 H       1  UNL1        0.1501
      5 C           2.3457    2.4486   30.6987 C.ar    1  UNL1        0.0550
      6 C           3.7186    1.8514   30.7904 C.ar    1  UNL1        0.0061
      7 C           4.3600    1.6482   32.1310 C.ar    1  UNL1        0.0189
      8 C           3.6286    2.0422   33.3799 C.ar    1  UNL1        0.0788
      9 C           2.2557    2.6394   33.2882 C.ar    1  UNL1        0.0988
     10 C           1.6142    2.8426   31.9476 C.ar    1  UNL1        0.0251
     11 N           1.7821    2.9286   34.6817 N.ar    1  UNL1       -0.2267
     12 C           2.8623    2.5102   35.6347 C.ar    1  UNL1        0.1469
     13 N           4.0035    1.9623   34.8301 N.ar    1  UNL1       -0.3133
     14 C           5.2932    1.4284   35.3793 C.3     1  UNL1        0.0869
     15 C           6.5516    2.2356   35.2575 C.3     1  UNL1        0.0226
     16 C           7.8412    1.7016   35.8067 C.3     1  UNL1        0.0019
     17 C           7.8725    0.3604   36.4776 C.3     1  UNL1        0.0001
     18 C           6.6141   -0.4468   36.5994 C.3     1  UNL1        0.0019
     19 C           5.3245    0.0872   36.0503 C.3     1  UNL1        0.0226
     20 C           2.8103    2.6203   37.1298 C.ar    1  UNL1        0.0748
     21 C           3.1191    3.8479   37.9347 C.ar    1  UNL1        0.0468
     22 C           2.9400    3.5084   39.3848 C.ar    1  UNL1        0.1799
     23 O           2.5205    2.0712   39.4760 O.2     1  UNL1       -0.4472
     24 C           2.4403    1.5223   38.0823 C.ar    1  UNL1        0.1827
     25 C          -0.8908    2.0969   27.1589 C.3     1  UNL1        0.0312
     26 C           0.5464    1.6765   27.2466 C.3     1  UNL1        0.1491
     27 C           1.3422    1.4594   25.9937 C.2     1  UNL1        0.2440
     28 O           2.6685    2.1383   25.8206 O.2     1  UNL1       -0.2730
     29 N           0.8116    0.5634   24.9141 N.am    1  UNL1       -0.2826
     30 H          -0.0589    0.1178   25.0278 H       1  UNL1        0.1549
     31 C           1.6074    0.3463   23.6612 C.ar    1  UNL1        0.0503
     32 C           1.1976    1.0214   22.3860 C.ar    1  UNL1        0.0147
     33 C           1.9933    0.8043   21.1332 C.ar    1  UNL1        0.0013
     34 C           3.1989   -0.0880   21.1555 C.ar    1  UNL1        0.0001
     35 C           3.6086   -0.7631   22.4307 C.ar    1  UNL1        0.0013
     36 C           2.8129   -0.5460   23.6836 C.ar    1  UNL1        0.0147
     37 C           3.9946   -0.3051   19.9027 C.2     1  UNL1        0.0012
     38 C           3.5615   -1.3423   18.9094 C.2     1  UNL1        0.0151
     39 C           4.3572   -1.5594   17.6565 C.2     1  UNL1        0.0729
     40 O           3.8963   -0.9586   16.3617 O.co2   1  UNL1       -0.5446
     41 O           5.6140   -2.3773   17.6985 O.co2   1  UNL1       -0.5446
@<TRIPOS>UNITY_ATOM_ATTR
40 1
charge -1
@<TRIPOS>BOND
     1    26    25    1
     2    26     1    1
     3     1     2   am
     4     2     3    2
     5     2     5    1
     6     5     6   ar
     7     6     7   ar
     8     7     8   ar
     9     8     9   ar
    10     9    10   ar
    11     9    11   ar
    12    11    12   ar
    13    12    20    1
    14    20    21   ar
    15    21    22   ar
    16    22    23   ar
    17    23    24   ar
    18    12    13   ar
    19    13    14    1
    20    14    15    1
    21    15    16    1
    22    16    17    1
    23    17    18    1
    24    18    19    1
    25    26    27    1
    26    27    28    2
    27    27    29   am
    28    29    31    1
    29    31    32   ar
    30    32    33   ar
    31    33    34   ar
    32    34    37    1
    33    37    38    2
    34    38    39    1
    35    39    40   ar
    36    39    41   ar
    37    34    35   ar
    38    35    36   ar
    39    10     5   ar
    40    24    20   ar
    41    19    14    1
    42    36    31   ar
    43    13     8   ar
    44     1     4    1
    45    29    30    1
@<TRIPOS>MOLECULE
*****
 41 45 0 0 0
SMALL
GASTEIGER

@<TRIPOS>ATOM
      1 N           0.0942    1.9548   25.4390 N.am    1  UNL1       -0.2948
      2 C           1.2766    2.5448   24.7292 C.2     1  UNL1        0.2462
      3 O           1.7359    3.9331   25.0635 O.2     1  UNL1       -0.2701
      4 H          -0.2072    1.0436   25.2196 H       1  UNL1        0.1501
      5 C           1.9997    1.7466   23.6851 C.ar    1  UNL1        0.0550
      6 C           1.9201    0.2488   23.6976 C.ar    1  UNL1        0.0061
      7 C           2.6432   -0.5493   22.6535 C.ar    1  UNL1        0.0189
      8 C           3.4458    0.1504   21.5970 C.ar    1  UNL1        0.0788
      9 C           3.5253    1.6482   21.5845 C.ar    1  UNL1        0.0988
     10 C           2.8022    2.4463   22.6286 C.ar    1  UNL1        0.0251
     11 N           4.3876    2.0570   20.4272 N.ar    1  UNL1       -0.2267
     12 C           4.8410    0.8118   19.7244 C.ar    1  UNL1        0.1469
     13 N           4.2590   -0.3666   20.4473 N.ar    1  UNL1       -0.3133
     14 C           4.4555   -1.8087   20.0844 C.3     1  UNL1        0.0869
     15 C           5.7664   -2.4811   20.3663 C.3     1  UNL1        0.0226
     16 C           5.9628   -3.9232   20.0034 C.3     1  UNL1        0.0019
     17 C           4.8485   -4.6929   19.3586 C.3     1  UNL1        0.0001
     18 C           3.5376   -4.0205   19.0767 C.3     1  UNL1        0.0019
     19 C           3.3411   -2.5784   19.4396 C.3     1  UNL1        0.0226
     20 C           5.7219    0.7549   18.5116 C.ar    1  UNL1        0.0748
     21 C           6.9582    1.5724   18.2808 C.ar    1  UNL1        0.0468
     22 C           7.5215    1.1933   16.9431 C.ar    1  UNL1        0.1799
     23 O           6.6332    0.1417   16.3474 O.2     1  UNL1       -0.4472
     24 C           5.5210   -0.1293   17.3168 C.ar    1  UNL1        0.1827
     25 C          -0.1652    2.7170   27.9092 C.3     1  UNL1        0.0312
     26 C          -0.6289    2.7530   26.4831 C.3     1  UNL1        0.1491
     27 C          -1.8155    3.5871   26.1011 C.2     1  UNL1        0.2440
     28 O          -1.6641    4.6915   25.0973 O.2     1  UNL1       -0.2730
     29 N          -3.1536    3.3169   26.7227 N.am    1  UNL1       -0.2826
     30 H          -3.2530    2.5921   27.3815 H       1  UNL1        0.1549
     31 C          -4.3403    4.1511   26.3407 C.ar    1  UNL1        0.0503
     32 C          -5.1384    3.8047   25.1188 C.ar    1  UNL1        0.0147
     33 C          -6.3251    4.6389   24.7367 C.ar    1  UNL1        0.0013
     34 C          -6.7137    5.8194   25.5766 C.ar    1  UNL1        0.0001
     35 C          -5.9156    6.1657   26.7984 C.ar    1  UNL1        0.0013
     36 C          -4.7289    5.3316   27.1805 C.ar    1  UNL1        0.0147
     37 C          -7.9004    6.6535   25.1945 C.2     1  UNL1        0.0012
     38 C          -9.2064    5.9934   24.8654 C.2     1  UNL1        0.0151
     39 C         -10.3931    6.8276   24.4833 C.2     1  UNL1        0.0729
     40 O         -10.4414    7.4921   23.1395 O.co2   1  UNL1       -0.5446
     41 O         -11.5316    6.9972   25.4453 O.co2   1  UNL1       -0.5446
@<TRIPOS>UNITY_ATOM_ATTR
40 1
charge -1
@<TRIPOS>BOND
     1    26    25    1
     2    26     1    1
     3     1     2   am
     4     2     3    2
     5     2     5    1
     6     5     6   ar
     7     6     7   ar
     8     7     8   ar
     9     8     9   ar
    10     9    10   ar
    11     9    11   ar
    12    11    12   ar
    13    12    20    1
    14    20    21   ar
    15    21    22   ar
    16    22    23   ar
    17    23    24   ar
    18    12    13   ar
    19    13    14    1
    20    14    15    1
    21    15    16    1
    22    16    17    1
    23    17    18    1
    24    18    19    1
    25    26    27    1
    26    27    28    2
    27    27    29   am
    28    29    31    1
    29    31    32   ar
    30    32    33   ar
    31    33    34   ar
    32    34    37    1
    33    37    38    2
    34    38    39    1
    35    39    40   ar
    36    39    41   ar
    37    34    35   ar
    38    35    36   ar
    39    10     5   ar
    40    24    20   ar
    41    19    14    1
    42    36    31   ar
    43    13     8   ar
    44     1     4    1
    45    29    30    1
@<TRIPOS>MOLECULE
*****
 41 45 0 0 0
SMALL
GASTEIGER

@<TRIPOS>ATOM
      1 N           2.8726   -0.6986   20.8215 N.am    1  UNL1       -0.2948
      2 C           3.4222   -0.2547   22.1447 C.2     1  UNL1        0.2462
      3 O           3.1759    1.1438   22.6280 O.2     1  UNL1       -0.2701
      4 H           3.0342   -1.6165   20.5043 H       1  UNL1        0.1501
      5 C           4.2180   -1.2093   22.9847 C.ar    1  UNL1        0.0550
      6 C           4.6589   -2.5238   22.4124 C.ar    1  UNL1        0.0061
      7 C           5.4546   -3.4783   23.2524 C.ar    1  UNL1        0.0189
      8 C           5.8095   -3.1183   24.6646 C.ar    1  UNL1        0.0788
      9 C           5.3686   -1.8038   25.2369 C.ar    1  UNL1        0.0988
     10 C           4.5729   -0.8492   24.3969 C.ar    1  UNL1        0.0251
     11 N           5.8642   -1.7240   26.6504 N.ar    1  UNL1       -0.2267
     12 C           6.6114   -2.9893   26.9517 C.ar    1  UNL1        0.1469
     13 N           6.5776   -3.8510   25.7245 N.ar    1  UNL1       -0.3133
     14 C           7.2022   -5.2073   25.5820 C.3     1  UNL1        0.0869
     15 C           6.7610   -6.3332   26.4695 C.3     1  UNL1        0.0226
     16 C           7.3857   -7.6895   26.3270 C.3     1  UNL1        0.0019
     17 C           8.4515   -7.9199   25.2970 C.3     1  UNL1        0.0001
     18 C           8.8927   -6.7940   24.4095 C.3     1  UNL1        0.0019
     19 C           8.2681   -5.4377   24.5520 C.3     1  UNL1        0.0226
     20 C           7.2758   -3.3325   28.2521 C.ar    1  UNL1        0.0748
     21 C           6.6339   -4.0352   29.4116 C.ar    1  UNL1        0.0468
     22 C           7.6602   -4.1702   30.4973 C.ar    1  UNL1        0.1799
     23 O           8.9361   -3.5511   30.0088 O.2     1  UNL1       -0.4472
     24 C           8.6985   -3.0333   28.6211 C.ar    1  UNL1        0.1827
     25 C           2.5841    0.6700   18.6320 C.3     1  UNL1        0.0312
     26 C           2.0768    0.2560   19.9815 C.3     1  UNL1        0.1491
     27 C           0.7737    0.7966   20.4911 C.2     1  UNL1        0.2440
     28 O          -0.3975   -0.1218   20.6782 O.2     1  UNL1       -0.2730
     29 N           0.6418    2.2555   20.8137 N.am    1  UNL1       -0.2826
     30 H           1.4104    2.8583   20.6910 H       1  UNL1        0.1549
     31 C          -0.6613    2.7961   21.3233 C.ar    1  UNL1        0.0503
     32 C          -1.7902    3.0547   20.3701 C.ar    1  UNL1        0.0147
     33 C          -3.0933    3.5953   20.8797 C.ar    1  UNL1        0.0013
     34 C          -3.2675    3.8773   22.3426 C.ar    1  UNL1        0.0001
     35 C          -2.1387    3.6187   23.2958 C.ar    1  UNL1        0.0013
     36 C          -0.8356    3.0781   22.7862 C.ar    1  UNL1        0.0147
     37 C          -4.5706    4.4178   22.8522 C.2     1  UNL1        0.0012
     38 C          -5.8139    4.2827   22.0240 C.2     1  UNL1        0.0151
     39 C          -7.1170    4.8233   22.5336 C.2     1  UNL1        0.0729
     40 O          -7.6189    4.4180   23.8878 O.co2   1  UNL1       -0.5446
     41 O          -7.9182    5.7693   21.6890 O.co2   1  UNL1       -0.5446
@<TRIPOS>UNITY_ATOM_ATTR
40 1
charge -1
@<TRIPOS>BOND
     1    26    25    1
     2    26     1    1
     3     1     2   am
     4     2     3    2
     5     2     5    1
     6     5     6   ar
     7     6     7   ar
     8     7     8   ar
     9     8     9   ar
    10     9    10   ar
    11     9    11   ar
    12    11    12   ar
    13    12    20    1
    14    20    21   ar
    15    21    22   ar
    16    22    23   ar
    17    23    24   ar
    18    12    13   ar
    19    13    14    1
    20    14    15    1
    21    15    16    1
    22    16    17    1
    23    17    18    1
    24    18    19    1
    25    26    27    1
    26    27    28    2
    27    27    29   am
    28    29    31    1
    29    31    32   ar
    30    32    33   ar
    31    33    34   ar
    32    34    37    1
    33    37    38    2
    34    38    39    1
    35    39    40   ar
    36    39    41   ar
    37    34    35   ar
    38    35    36   ar
    39    10     5   ar
    40    24    20   ar
    41    19    14    1
    42    36    31   ar
    43    13     8   ar
    44     1     4    1
    45    29    30    1
