@<TRIPOS>MOLECULE
*****
 32 34 0 0 0
SMALL
GASTEIGER

@<TRIPOS>ATOM
      1 C          -8.3400  -15.3363   24.5167 C.3     1  UNL1        0.1351
      2 N          -7.4502  -16.3306   23.8314 N.ar    1  UNL1       -0.2760
      3 C          -5.9633  -16.2578   24.0148 C.ar    1  UNL1        0.2966
      4 O          -5.3660  -15.1906   24.8834 O.2     1  UNL1       -0.2636
      5 C          -5.0734  -17.2521   23.3295 C.ar    1  UNL1        0.2013
      6 C          -5.6706  -18.3193   22.4609 C.ar    1  UNL1        0.0470
      7 C          -7.1576  -18.3921   22.2775 C.ar    1  UNL1        0.0567
      8 C          -7.7547  -19.4593   21.4089 C.ar    1  UNL1        0.1049
      9 N          -9.2417  -19.5321   21.2255 N.ar    1  UNL1       -0.2122
     10 C         -10.1315  -18.5378   21.9108 C.ar    1  UNL1        0.2182
     11 N          -9.5343  -17.4707   22.7794 N.ar    1  UNL1       -0.1963
     12 C          -8.0474  -17.3978   22.9628 C.ar    1  UNL1        0.1506
     13 N         -11.6185  -18.6107   21.7274 N.pl3   1  UNL1       -0.3044
     14 H         -12.0261  -19.4111   21.3243 H       1  UNL1        0.1496
     15 C         -12.4844  -17.4642   22.1581 C.3     1  UNL1        0.0767
     16 C         -13.3195  -17.5798   23.3988 C.3     1  UNL1        0.0514
     17 C         -12.9659  -18.5901   24.4495 C.3     1  UNL1        0.1389
     18 O         -11.5404  -18.7474   24.8889 O.3     1  UNL1       -0.3819
     19 H         -11.0104  -19.0880   24.1514 H       1  UNL1        0.2104
     20 C         -12.5152  -16.2020   21.3482 C.3     1  UNL1        0.0514
     21 C         -11.8313  -16.1500   20.0141 C.3     1  UNL1        0.1389
     22 O         -12.4458  -15.3754   18.8861 O.3     1  UNL1       -0.3819
     23 H         -13.2811  -15.7932   18.6242 H       1  UNL1        0.2104
     24 O          -3.5864  -17.1792   23.5129 O.3     1  UNL1       -0.4464
     25 C          -2.6748  -17.3931   22.3411 C.ar    1  UNL1        0.1729
     26 C          -2.0015  -16.2210   21.6909 C.ar    1  UNL1        0.0421
     27 C          -1.0899  -16.4350   20.5191 C.ar    1  UNL1        0.0329
     28 C          -0.8516  -17.8211   19.9974 C.ar    1  UNL1        0.1426
     29 F           0.0600  -18.0350   18.8256 F       1  UNL1       -0.2041
     30 C          -1.5250  -18.9932   20.6477 C.ar    1  UNL1        0.0624
     31 C          -2.4366  -18.7792   21.8195 C.ar    1  UNL1        0.1766
     32 F          -3.1099  -19.9513   22.4698 F       1  UNL1       -0.2009
@<TRIPOS>BOND
     1     1     2    1
     2     2     3   ar
     3     3     4    2
     4     3     5   ar
     5     5    24    1
     6    24    25    1
     7    25    26   ar
     8    26    27   ar
     9    27    28   ar
    10    28    29    1
    11    28    30   ar
    12    30    31   ar
    13    31    32    1
    14     5     6   ar
    15     6     7   ar
    16     7     8   ar
    17     8     9   ar
    18     9    10   ar
    19    10    13    1
    20    13    15    1
    21    15    16    1
    22    16    17    1
    23    17    18    1
    24    15    20    1
    25    20    21    1
    26    21    22    1
    27    10    11   ar
    28    11    12   ar
    29    12     2   ar
    30    31    25   ar
    31    12     7   ar
    32    13    14    1
    33    18    19    1
    34    22    23    1
@<TRIPOS>MOLECULE
*****
 32 34 0 0 0
SMALL
GASTEIGER

@<TRIPOS>ATOM
      1 C          -8.2295  -15.2753   24.2865 C.3     1  UNL1        0.1351
      2 N          -7.3556  -16.3241   23.6650 N.ar    1  UNL1       -0.2760
      3 C          -5.8700  -16.2787   23.8673 C.ar    1  UNL1        0.2966
      4 O          -5.2582  -15.1845   24.6911 O.2     1  UNL1       -0.2636
      5 C          -4.9961  -17.3275   23.2457 C.ar    1  UNL1        0.2013
      6 C          -5.6077  -18.4217   22.4220 C.ar    1  UNL1        0.0470
      7 C          -7.0934  -18.4671   22.2197 C.ar    1  UNL1        0.0567
      8 C          -7.7051  -19.5613   21.3959 C.ar    1  UNL1        0.1049
      9 N          -9.1906  -19.6066   21.1937 N.ar    1  UNL1       -0.2122
     10 C         -10.0646  -18.5578   21.8152 C.ar    1  UNL1        0.2182
     11 N          -9.4529  -17.4636   22.6390 N.ar    1  UNL1       -0.1963
     12 C          -7.9673  -17.4183   22.8412 C.ar    1  UNL1        0.1506
     13 N         -11.5502  -18.6032   21.6129 N.pl3   1  UNL1       -0.3044
     14 H         -11.9648  -19.3861   21.1836 H       1  UNL1        0.1496
     15 C         -12.4041  -17.4557   22.0648 C.3     1  UNL1        0.0767
     16 C         -12.6100  -16.2739   21.1642 C.3     1  UNL1        0.0514
     17 C         -11.8255  -16.1552   19.8913 C.3     1  UNL1        0.1389
     18 O         -12.3296  -15.2856   18.7780 O.3     1  UNL1       -0.3819
     19 H         -13.1543  -15.6560   18.4264 H       1  UNL1        0.2104
     20 C         -13.0520  -17.4900   23.4172 C.3     1  UNL1        0.0514
     21 C         -12.7449  -18.6090   24.3678 C.3     1  UNL1        0.1389
     22 O         -11.3522  -18.7821   24.8975 O.3     1  UNL1       -0.3819
     23 H         -10.7566  -19.0195   24.1696 H       1  UNL1        0.2104
     24 O          -3.5104  -17.2822   23.4480 O.3     1  UNL1       -0.4464
     25 C          -2.5885  -17.4551   22.2775 C.ar    1  UNL1        0.1729
     26 C          -1.9385  -16.2570   21.6514 C.ar    1  UNL1        0.0421
     27 C          -1.0166  -16.4299   20.4809 C.ar    1  UNL1        0.0329
     28 C          -0.7446  -17.8009   19.9364 C.ar    1  UNL1        0.1426
     29 F           0.1773  -17.9738   18.7659 F       1  UNL1       -0.2041
     30 C          -1.3946  -18.9990   20.5626 C.ar    1  UNL1        0.0624
     31 C          -2.3166  -18.8261   21.7332 C.ar    1  UNL1        0.1766
     32 F          -2.9666  -20.0242   22.3593 F       1  UNL1       -0.2009
@<TRIPOS>BOND
     1     1     2    1
     2     2     3   ar
     3     3     4    2
     4     3     5   ar
     5     5    24    1
     6    24    25    1
     7    25    26   ar
     8    26    27   ar
     9    27    28   ar
    10    28    29    1
    11    28    30   ar
    12    30    31   ar
    13    31    32    1
    14     5     6   ar
    15     6     7   ar
    16     7     8   ar
    17     8     9   ar
    18     9    10   ar
    19    10    13    1
    20    13    15    1
    21    15    16    1
    22    16    17    1
    23    17    18    1
    24    15    20    1
    25    20    21    1
    26    21    22    1
    27    10    11   ar
    28    11    12   ar
    29    12     2   ar
    30    31    25   ar
    31    12     7   ar
    32    13    14    1
    33    18    19    1
    34    22    23    1
@<TRIPOS>MOLECULE
*****
 32 34 0 0 0
SMALL
GASTEIGER

@<TRIPOS>ATOM
      1 C          -8.4766  -19.5047   20.0130 C.3     1  UNL1        0.1351
      2 N          -7.5745  -18.9315   21.0654 N.ar    1  UNL1       -0.2760
      3 C          -6.1593  -19.4142   21.1842 C.ar    1  UNL1        0.2966
      4 O          -5.6462  -20.4702   20.2505 O.2     1  UNL1       -0.2636
      5 C          -5.2572  -18.8411   22.2366 C.ar    1  UNL1        0.2013
      6 C          -5.7703  -17.7852   23.1703 C.ar    1  UNL1        0.0470
      7 C          -7.1856  -17.3024   23.0516 C.ar    1  UNL1        0.0567
      8 C          -7.6986  -16.2465   23.9853 C.ar    1  UNL1        0.1049
      9 N          -9.1138  -15.7638   23.8665 N.ar    1  UNL1       -0.2122
     10 C         -10.0159  -16.3369   22.8140 C.ar    1  UNL1        0.2182
     11 N          -9.5029  -17.3928   21.8804 N.ar    1  UNL1       -0.1963
     12 C          -8.0877  -17.8756   21.9991 C.ar    1  UNL1        0.1506
     13 N         -11.4312  -15.8542   22.6953 N.pl3   1  UNL1       -0.3044
     14 H         -11.7210  -15.0530   23.1887 H       1  UNL1        0.1496
     15 C         -12.4048  -16.5920   21.8249 C.3     1  UNL1        0.0767
     16 C         -12.7129  -16.0849   20.4472 C.3     1  UNL1        0.0514
     17 C         -11.6152  -15.9535   19.4334 C.3     1  UNL1        0.1389
     18 O         -10.3911  -15.1481   19.7537 O.3     1  UNL1       -0.3819
     19 H         -10.6348  -14.2142   19.8511 H       1  UNL1        0.2104
     20 C         -13.0703  -17.8369   22.3321 C.3     1  UNL1        0.0514
     21 C         -13.1103  -18.1192   23.8048 C.3     1  UNL1        0.1389
     22 O         -14.4100  -18.0370   24.5492 O.3     1  UNL1       -0.3819
     23 H         -14.7239  -17.1192   24.5512 H       1  UNL1        0.2104
     24 O          -3.8419  -19.3238   22.3554 O.3     1  UNL1       -0.4464
     25 C          -2.7388  -18.5944   21.6477 C.ar    1  UNL1        0.1729
     26 C          -1.9378  -19.2913   20.5882 C.ar    1  UNL1        0.0421
     27 C          -0.8346  -18.5618   19.8805 C.ar    1  UNL1        0.0329
     28 C          -0.5325  -17.1353   20.2323 C.ar    1  UNL1        0.1426
     29 F           0.5707  -16.4058   19.5246 F       1  UNL1       -0.2041
     30 C          -1.3335  -16.4383   21.2918 C.ar    1  UNL1        0.0624
     31 C          -2.4367  -17.1679   21.9995 C.ar    1  UNL1        0.1766
     32 F          -3.2377  -16.4709   23.0591 F       1  UNL1       -0.2009
@<TRIPOS>BOND
     1     1     2    1
     2     2     3   ar
     3     3     4    2
     4     3     5   ar
     5     5    24    1
     6    24    25    1
     7    25    26   ar
     8    26    27   ar
     9    27    28   ar
    10    28    29    1
    11    28    30   ar
    12    30    31   ar
    13    31    32    1
    14     5     6   ar
    15     6     7   ar
    16     7     8   ar
    17     8     9   ar
    18     9    10   ar
    19    10    13    1
    20    13    15    1
    21    15    16    1
    22    16    17    1
    23    17    18    1
    24    15    20    1
    25    20    21    1
    26    21    22    1
    27    10    11   ar
    28    11    12   ar
    29    12     2   ar
    30    31    25   ar
    31    12     7   ar
    32    13    14    1
    33    18    19    1
    34    22    23    1
@<TRIPOS>MOLECULE
*****
 32 34 0 0 0
SMALL
GASTEIGER

@<TRIPOS>ATOM
      1 C          -6.2951  -16.4678   23.4326 C.3     1  UNL1        0.1351
      2 N          -7.0328  -17.4166   22.5351 N.ar    1  UNL1       -0.2760
      3 C          -8.5201  -17.2996   22.3805 C.ar    1  UNL1        0.2966
      4 O          -9.2699  -16.2337   23.1233 O.2     1  UNL1       -0.2636
      5 C          -9.2578  -18.2484   21.4830 C.ar    1  UNL1        0.2013
      6 C          -8.5081  -19.3143   20.7401 C.ar    1  UNL1        0.0470
      7 C          -7.0207  -19.4314   20.8948 C.ar    1  UNL1        0.0567
      8 C          -6.2710  -20.4973   20.1520 C.ar    1  UNL1        0.1049
      9 N          -4.7836  -20.6143   20.3067 N.ar    1  UNL1       -0.2122
     10 C          -4.0459  -19.6655   21.2042 C.ar    1  UNL1        0.2182
     11 N          -4.7956  -18.5996   21.9470 N.ar    1  UNL1       -0.1963
     12 C          -6.2830  -18.4826   21.7923 C.ar    1  UNL1        0.1506
     13 N          -2.5585  -19.7826   21.3588 N.pl3   1  UNL1       -0.3044
     14 H          -2.1584  -20.6379   21.6374 H       1  UNL1        0.1496
     15 C          -1.6807  -18.5965   21.0891 C.3     1  UNL1        0.0767
     16 C          -0.9827  -18.4651   19.7679 C.3     1  UNL1        0.0514
     17 C          -1.7011  -17.8633   18.5967 C.3     1  UNL1        0.1389
     18 O          -1.0333  -17.8087   17.2546 O.3     1  UNL1       -0.3819
     19 H          -0.2679  -17.2145   17.2983 H       1  UNL1        0.2104
     20 C          -1.5010  -17.5419   22.1405 C.3     1  UNL1        0.0514
     21 C          -1.9158  -16.1274   21.8626 C.3     1  UNL1        0.1389
     22 O          -3.3210  -15.6879   22.1493 O.3     1  UNL1       -0.3819
     23 H          -3.9328  -16.1554   21.5593 H       1  UNL1        0.2104
     24 O         -10.7453  -18.1313   21.3283 O.3     1  UNL1       -0.4464
     25 C         -11.6367  -18.2636   22.5274 C.ar    1  UNL1        0.1729
     26 C         -12.9642  -17.5659   22.5557 C.ar    1  UNL1        0.0421
     27 C         -13.8557  -17.6982   23.7547 C.ar    1  UNL1        0.0329
     28 C         -13.4196  -18.5283   24.9256 C.ar    1  UNL1        0.1426
     29 F         -14.3110  -18.6606   26.1247 F       1  UNL1       -0.2041
     30 C         -12.0921  -19.2260   24.8973 C.ar    1  UNL1        0.0624
     31 C         -11.2006  -19.0937   23.6981 C.ar    1  UNL1        0.1766
     32 F          -9.8731  -19.7915   23.6699 F       1  UNL1       -0.2009
@<TRIPOS>BOND
     1     1     2    1
     2     2     3   ar
     3     3     4    2
     4     3     5   ar
     5     5    24    1
     6    24    25    1
     7    25    26   ar
     8    26    27   ar
     9    27    28   ar
    10    28    29    1
    11    28    30   ar
    12    30    31   ar
    13    31    32    1
    14     5     6   ar
    15     6     7   ar
    16     7     8   ar
    17     8     9   ar
    18     9    10   ar
    19    10    13    1
    20    13    15    1
    21    15    16    1
    22    16    17    1
    23    17    18    1
    24    15    20    1
    25    20    21    1
    26    21    22    1
    27    10    11   ar
    28    11    12   ar
    29    12     2   ar
    30    31    25   ar
    31    12     7   ar
    32    13    14    1
    33    18    19    1
    34    22    23    1
@<TRIPOS>MOLECULE
*****
 32 34 0 0 0
SMALL
GASTEIGER

@<TRIPOS>ATOM
      1 C          -6.4486  -16.3515   23.4879 C.3     1  UNL1        0.1351
      2 N          -7.0733  -17.3800   22.5923 N.ar    1  UNL1       -0.2760
      3 C          -8.5582  -17.3878   22.3809 C.ar    1  UNL1        0.2966
      4 O          -9.4186  -16.3671   23.0651 O.2     1  UNL1       -0.2636
      5 C          -9.1829  -18.4162   21.4853 C.ar    1  UNL1        0.2013
      6 C          -8.3226  -19.4368   20.8011 C.ar    1  UNL1        0.0470
      7 C          -6.8376  -19.4290   21.0124 C.ar    1  UNL1        0.0567
      8 C          -5.9773  -20.4497   20.3283 C.ar    1  UNL1        0.1049
      9 N          -4.4923  -20.4419   20.5397 N.ar    1  UNL1       -0.2122
     10 C          -3.8676  -19.4134   21.4353 C.ar    1  UNL1        0.2182
     11 N          -4.7279  -18.3928   22.1195 N.ar    1  UNL1       -0.1963
     12 C          -6.2129  -18.4006   21.9081 C.ar    1  UNL1        0.1506
     13 N          -2.3825  -19.4057   21.6467 N.pl3   1  UNL1       -0.3044
     14 H          -1.9650  -20.0788   22.2314 H       1  UNL1        0.1496
     15 C          -1.5337  -18.3724   20.9672 C.3     1  UNL1        0.0767
     16 C          -1.1460  -17.1213   21.6984 C.3     1  UNL1        0.0514
     17 C          -2.0608  -15.9326   21.6882 C.3     1  UNL1        0.1389
     18 O          -3.3509  -15.9726   22.4523 O.3     1  UNL1       -0.3819
     19 H          -3.9401  -16.6343   22.0574 H       1  UNL1        0.2104
     20 C          -1.0724  -18.5901   19.5566 C.3     1  UNL1        0.0514
     21 C          -1.6303  -17.7490   18.4469 C.3     1  UNL1        0.1389
     22 O          -0.9980  -17.7860   17.0872 O.3     1  UNL1       -0.3819
     23 H          -0.1026  -17.4162   17.1368 H       1  UNL1        0.2104
     24 O         -10.6680  -18.4239   21.2739 O.3     1  UNL1       -0.4464
     25 C         -11.5934  -18.4466   22.4541 C.ar    1  UNL1        0.1729
     26 C         -11.1985  -19.1775   23.7030 C.ar    1  UNL1        0.0421
     27 C         -12.1239  -19.2002   24.8832 C.ar    1  UNL1        0.0329
     28 C         -13.4444  -18.4918   24.8146 C.ar    1  UNL1        0.1426
     29 F         -14.3698  -18.5144   25.9948 F       1  UNL1       -0.2041
     30 C         -13.8393  -17.7608   23.5657 C.ar    1  UNL1        0.0624
     31 C         -12.9138  -17.7382   22.3854 C.ar    1  UNL1        0.1766
     32 F         -13.3088  -17.0073   21.1365 F       1  UNL1       -0.2009
@<TRIPOS>BOND
     1     1     2    1
     2     2     3   ar
     3     3     4    2
     4     3     5   ar
     5     5    24    1
     6    24    25    1
     7    25    26   ar
     8    26    27   ar
     9    27    28   ar
    10    28    29    1
    11    28    30   ar
    12    30    31   ar
    13    31    32    1
    14     5     6   ar
    15     6     7   ar
    16     7     8   ar
    17     8     9   ar
    18     9    10   ar
    19    10    13    1
    20    13    15    1
    21    15    16    1
    22    16    17    1
    23    17    18    1
    24    15    20    1
    25    20    21    1
    26    21    22    1
    27    10    11   ar
    28    11    12   ar
    29    12     2   ar
    30    31    25   ar
    31    12     7   ar
    32    13    14    1
    33    18    19    1
    34    22    23    1
@<TRIPOS>MOLECULE
*****
 32 34 0 0 0
SMALL
GASTEIGER

@<TRIPOS>ATOM
      1 C          -8.9607  -19.8435   19.9144 C.3     1  UNL1        0.1351
      2 N          -7.9202  -19.2814   20.8370 N.ar    1  UNL1       -0.2760
      3 C          -6.5230  -19.8265   20.8128 C.ar    1  UNL1        0.2966
      4 O          -6.1662  -20.9338   19.8658 O.2     1  UNL1       -0.2636
      5 C          -5.4825  -19.2644   21.7355 C.ar    1  UNL1        0.2013
      6 C          -5.8391  -18.1571   22.6824 C.ar    1  UNL1        0.0470
      7 C          -7.2364  -17.6119   22.7067 C.ar    1  UNL1        0.0567
      8 C          -7.5930  -16.5046   23.6536 C.ar    1  UNL1        0.1049
      9 N          -8.9902  -15.9595   23.6778 N.ar    1  UNL1       -0.2122
     10 C         -10.0308  -16.5216   22.7552 C.ar    1  UNL1        0.2182
     11 N          -9.6741  -17.6289   21.8082 N.ar    1  UNL1       -0.1963
     12 C          -8.2769  -18.1740   21.7840 C.ar    1  UNL1        0.1506
     13 N         -11.4280  -15.9764   22.7794 N.pl3   1  UNL1       -0.3044
     14 H         -11.6383  -15.1854   23.3266 H       1  UNL1        0.1496
     15 C         -12.5048  -16.6364   21.9702 C.3     1  UNL1        0.0767
     16 C         -13.2940  -17.7702   22.5547 C.3     1  UNL1        0.0514
     17 C         -13.2464  -18.0348   24.0304 C.3     1  UNL1        0.1389
     18 O         -14.5209  -18.1680   24.8100 O.3     1  UNL1       -0.3819
     19 H         -14.9887  -17.3182   24.8124 H       1  UNL1        0.2104
     20 C         -12.7924  -16.1626   20.5763 C.3     1  UNL1        0.0514
     21 C         -11.6619  -15.8053   19.6574 C.3     1  UNL1        0.1389
     22 O         -10.6364  -16.8377   19.2933 O.3     1  UNL1       -0.3819
     23 H         -10.1313  -17.0845   20.0838 H       1  UNL1        0.2104
     24 O          -4.0852  -19.8095   21.7112 O.3     1  UNL1       -0.4464
     25 C          -2.9591  -18.9640   21.1946 C.ar    1  UNL1        0.1729
     26 C          -2.5394  -19.0698   19.7585 C.ar    1  UNL1        0.0421
     27 C          -1.4132  -18.2242   19.2419 C.ar    1  UNL1        0.0329
     28 C          -0.7068  -17.2728   20.1616 C.ar    1  UNL1        0.1426
     29 F           0.4193  -16.4272   19.6451 F       1  UNL1       -0.2041
     30 C          -1.1265  -17.1670   21.5978 C.ar    1  UNL1        0.0624
     31 C          -2.2527  -18.0126   22.1143 C.ar    1  UNL1        0.1766
     32 F          -2.6724  -17.9068   23.5505 F       1  UNL1       -0.2009
@<TRIPOS>BOND
     1     1     2    1
     2     2     3   ar
     3     3     4    2
     4     3     5   ar
     5     5    24    1
     6    24    25    1
     7    25    26   ar
     8    26    27   ar
     9    27    28   ar
    10    28    29    1
    11    28    30   ar
    12    30    31   ar
    13    31    32    1
    14     5     6   ar
    15     6     7   ar
    16     7     8   ar
    17     8     9   ar
    18     9    10   ar
    19    10    13    1
    20    13    15    1
    21    15    16    1
    22    16    17    1
    23    17    18    1
    24    15    20    1
    25    20    21    1
    26    21    22    1
    27    10    11   ar
    28    11    12   ar
    29    12     2   ar
    30    31    25   ar
    31    12     7   ar
    32    13    14    1
    33    18    19    1
    34    22    23    1
@<TRIPOS>MOLECULE
*****
 32 34 0 0 0
SMALL
GASTEIGER

@<TRIPOS>ATOM
      1 C          -5.1518  -16.5305   23.6004 C.3     1  UNL1        0.1351
      2 N          -5.9638  -17.6115   22.9507 N.ar    1  UNL1       -0.2760
      3 C          -7.4324  -17.7205   23.2358 C.ar    1  UNL1        0.2966
      4 O          -8.0891  -16.7484   24.1706 O.2     1  UNL1       -0.2636
      5 C          -8.2443  -18.8015   22.5861 C.ar    1  UNL1        0.2013
      6 C          -7.5877  -19.7736   21.6513 C.ar    1  UNL1        0.0470
      7 C          -6.1190  -19.6646   21.3662 C.ar    1  UNL1        0.0567
      8 C          -5.4624  -20.6367   20.4314 C.ar    1  UNL1        0.1049
      9 N          -3.9938  -20.5278   20.1463 N.ar    1  UNL1       -0.2122
     10 C          -3.1818  -19.4467   20.7960 C.ar    1  UNL1        0.2182
     11 N          -3.8385  -18.4747   21.7308 N.ar    1  UNL1       -0.1963
     12 C          -5.3071  -18.5836   22.0159 C.ar    1  UNL1        0.1506
     13 N          -1.7132  -19.3378   20.5109 N.pl3   1  UNL1       -0.3044
     14 H          -1.0975  -20.0391   20.8246 H       1  UNL1        0.1496
     15 C          -1.1826  -18.1604   19.7479 C.3     1  UNL1        0.0767
     16 C          -1.3636  -18.0871   18.2607 C.3     1  UNL1        0.0514
     17 C          -2.4590  -17.2434   17.6791 C.3     1  UNL1        0.1389
     18 O          -3.5852  -16.7718   18.5504 O.3     1  UNL1       -0.3819
     19 H          -4.1070  -17.5344   18.8454 H       1  UNL1        0.2104
     20 C          -0.4710  -17.0563   20.4721 C.3     1  UNL1        0.0514
     21 C          -1.2278  -16.1673   21.4140 C.3     1  UNL1        0.1389
     22 O          -2.7003  -15.9539   21.2237 O.3     1  UNL1       -0.3819
     23 H          -2.8533  -15.4776   20.3927 H       1  UNL1        0.2104
     24 O          -9.7130  -18.9104   22.8712 O.3     1  UNL1       -0.4464
     25 C         -10.6893  -18.0610   22.1127 C.ar    1  UNL1        0.1729
     26 C         -10.3899  -17.6535   20.7005 C.ar    1  UNL1        0.0421
     27 C         -11.3661  -16.8041   19.9420 C.ar    1  UNL1        0.0329
     28 C         -12.6419  -16.3622   20.5957 C.ar    1  UNL1        0.1426
     29 F         -13.6182  -15.5128   19.8372 F       1  UNL1       -0.2041
     30 C         -12.9413  -16.7697   22.0079 C.ar    1  UNL1        0.0624
     31 C         -11.9649  -17.6192   22.7664 C.ar    1  UNL1        0.1766
     32 F         -12.2644  -18.0267   24.1786 F       1  UNL1       -0.2009
@<TRIPOS>BOND
     1     1     2    1
     2     2     3   ar
     3     3     4    2
     4     3     5   ar
     5     5    24    1
     6    24    25    1
     7    25    26   ar
     8    26    27   ar
     9    27    28   ar
    10    28    29    1
    11    28    30   ar
    12    30    31   ar
    13    31    32    1
    14     5     6   ar
    15     6     7   ar
    16     7     8   ar
    17     8     9   ar
    18     9    10   ar
    19    10    13    1
    20    13    15    1
    21    15    16    1
    22    16    17    1
    23    17    18    1
    24    15    20    1
    25    20    21    1
    26    21    22    1
    27    10    11   ar
    28    11    12   ar
    29    12     2   ar
    30    31    25   ar
    31    12     7   ar
    32    13    14    1
    33    18    19    1
    34    22    23    1
@<TRIPOS>MOLECULE
*****
 32 34 0 0 0
SMALL
GASTEIGER

@<TRIPOS>ATOM
      1 C          -5.1371  -16.6229   23.5283 C.3     1  UNL1        0.1351
      2 N          -5.9622  -17.6945   22.8796 N.ar    1  UNL1       -0.2760
      3 C          -7.4335  -17.7801   23.1582 C.ar    1  UNL1        0.2966
      4 O          -8.0799  -16.7941   24.0857 O.2     1  UNL1       -0.2636
      5 C          -8.2586  -18.8517   22.5095 C.ar    1  UNL1        0.2013
      6 C          -7.6124  -19.8377   21.5821 C.ar    1  UNL1        0.0470
      7 C          -6.1409  -19.7521   21.3033 C.ar    1  UNL1        0.0567
      8 C          -5.4946  -20.7381   20.3759 C.ar    1  UNL1        0.1049
      9 N          -4.0233  -20.6524   20.0972 N.ar    1  UNL1       -0.2122
     10 C          -3.1982  -19.5808   20.7460 C.ar    1  UNL1        0.2182
     11 N          -3.8445  -18.5948   21.6734 N.ar    1  UNL1       -0.1963
     12 C          -5.3158  -18.6805   21.9521 C.ar    1  UNL1        0.1506
     13 N          -1.7267  -19.4952   20.4673 N.pl3   1  UNL1       -0.3044
     14 H          -1.1393  -20.2543   20.6861 H       1  UNL1        0.1496
     15 C          -1.1504  -18.2530   19.8552 C.3     1  UNL1        0.0767
     16 C          -0.4341  -17.2553   20.7164 C.3     1  UNL1        0.0514
     17 C          -1.1797  -16.0864   21.2887 C.3     1  UNL1        0.1389
     18 O          -2.6774  -16.0446   21.2176 O.3     1  UNL1       -0.3819
     19 H          -2.9554  -15.9764   20.2908 H       1  UNL1        0.2104
     20 C          -1.2903  -18.0084   18.3819 C.3     1  UNL1        0.0514
     21 C          -2.4773  -17.2572   17.8557 C.3     1  UNL1        0.1389
     22 O          -3.6923  -17.0765   18.7165 O.3     1  UNL1       -0.3819
     23 H          -4.1050  -17.9393   18.8786 H       1  UNL1        0.2104
     24 O          -9.7301  -18.9373   22.7882 O.3     1  UNL1       -0.4464
     25 C         -10.6837  -18.0305   22.0684 C.ar    1  UNL1        0.1729
     26 C         -11.4343  -16.9767   22.8275 C.ar    1  UNL1        0.0421
     27 C         -12.3879  -16.0699   22.1078 C.ar    1  UNL1        0.0329
     28 C         -12.5911  -16.2168   20.6288 C.ar    1  UNL1        0.1426
     29 F         -13.5448  -15.3100   19.9090 F       1  UNL1       -0.2041
     30 C         -11.8406  -17.2706   19.8697 C.ar    1  UNL1        0.0624
     31 C         -10.8869  -18.1775   20.5896 C.ar    1  UNL1        0.1766
     32 F         -10.1364  -19.2313   19.8305 F       1  UNL1       -0.2009
@<TRIPOS>BOND
     1     1     2    1
     2     2     3   ar
     3     3     4    2
     4     3     5   ar
     5     5    24    1
     6    24    25    1
     7    25    26   ar
     8    26    27   ar
     9    27    28   ar
    10    28    29    1
    11    28    30   ar
    12    30    31   ar
    13    31    32    1
    14     5     6   ar
    15     6     7   ar
    16     7     8   ar
    17     8     9   ar
    18     9    10   ar
    19    10    13    1
    20    13    15    1
    21    15    16    1
    22    16    17    1
    23    17    18    1
    24    15    20    1
    25    20    21    1
    26    21    22    1
    27    10    11   ar
    28    11    12   ar
    29    12     2   ar
    30    31    25   ar
    31    12     7   ar
    32    13    14    1
    33    18    19    1
    34    22    23    1
@<TRIPOS>MOLECULE
*****
 32 34 0 0 0
SMALL
GASTEIGER

@<TRIPOS>ATOM
      1 C          -7.7176  -17.7089   23.4094 C.3     1  UNL1        0.1351
      2 N          -7.5047  -18.4897   22.1465 N.ar    1  UNL1       -0.2760
      3 C          -6.1357  -18.9942   21.7984 C.ar    1  UNL1        0.2966
      4 O          -4.9794  -18.7179   22.7133 O.2     1  UNL1       -0.2636
      5 C          -5.9228  -19.7751   20.5355 C.ar    1  UNL1        0.2013
      6 C          -7.0789  -20.0514   19.6207 C.ar    1  UNL1        0.0470
      7 C          -8.4480  -19.5469   19.9688 C.ar    1  UNL1        0.0567
      8 C          -9.6042  -19.8232   19.0540 C.ar    1  UNL1        0.1049
      9 N         -10.9732  -19.3187   19.4021 N.ar    1  UNL1       -0.2122
     10 C         -11.1861  -18.5378   20.6650 C.ar    1  UNL1        0.2182
     11 N         -10.0299  -18.2615   21.5798 N.ar    1  UNL1       -0.1963
     12 C          -8.6609  -18.7660   21.2317 C.ar    1  UNL1        0.1506
     13 N         -12.5552  -18.0333   21.0131 N.pl3   1  UNL1       -0.3044
     14 H         -13.3061  -18.1801   20.3935 H       1  UNL1        0.1496
     15 C         -12.7801  -17.3051   22.3050 C.3     1  UNL1        0.0767
     16 C         -13.4274  -18.0098   23.4603 C.3     1  UNL1        0.0514
     17 C         -12.5793  -18.6351   24.5278 C.3     1  UNL1        0.1389
     18 O         -11.1966  -19.1161   24.2013 O.3     1  UNL1       -0.3819
     19 H         -11.2510  -19.8598   23.5809 H       1  UNL1        0.2104
     20 C         -12.3578  -15.8723   22.4417 C.3     1  UNL1        0.0514
     21 C         -10.9534  -15.5402   22.8512 C.3     1  UNL1        0.1389
     22 O          -9.8780  -15.4196   21.8125 O.3     1  UNL1       -0.3819
     23 H          -9.7269  -16.2852   21.4016 H       1  UNL1        0.2104
     24 O          -4.5537  -20.2796   20.1874 O.3     1  UNL1       -0.4464
     25 C          -3.4068  -19.3195   20.0747 C.ar    1  UNL1        0.1729
     26 C          -3.3693  -18.3244   18.9529 C.ar    1  UNL1        0.0421
     27 C          -2.2224  -17.3642   18.8402 C.ar    1  UNL1        0.0329
     28 C          -1.1130  -17.3992   19.8492 C.ar    1  UNL1        0.1426
     29 F           0.0339  -16.4391   19.7364 F       1  UNL1       -0.2041
     30 C          -1.1505  -18.3943   20.9709 C.ar    1  UNL1        0.0624
     31 C          -2.2975  -19.3545   21.0836 C.ar    1  UNL1        0.1766
     32 F          -2.3350  -20.3496   22.2054 F       1  UNL1       -0.2009
@<TRIPOS>BOND
     1     1     2    1
     2     2     3   ar
     3     3     4    2
     4     3     5   ar
     5     5    24    1
     6    24    25    1
     7    25    26   ar
     8    26    27   ar
     9    27    28   ar
    10    28    29    1
    11    28    30   ar
    12    30    31   ar
    13    31    32    1
    14     5     6   ar
    15     6     7   ar
    16     7     8   ar
    17     8     9   ar
    18     9    10   ar
    19    10    13    1
    20    13    15    1
    21    15    16    1
    22    16    17    1
    23    17    18    1
    24    15    20    1
    25    20    21    1
    26    21    22    1
    27    10    11   ar
    28    11    12   ar
    29    12     2   ar
    30    31    25   ar
    31    12     7   ar
    32    13    14    1
    33    18    19    1
    34    22    23    1
