@<TRIPOS>MOLECULE
*****
 35 38 0 0 0
SMALL
GASTEIGER

@<TRIPOS>ATOM
      1 O          -5.0816  -15.6164   25.1709 O.2     1  UNL1       -0.2673
      2 C          -5.7953  -16.4437   24.1431 C.ar    1  UNL1        0.2572
      3 C          -7.2724  -16.2785   23.9413 C.ar    1  UNL1        0.0366
      4 C          -7.9862  -17.1057   22.9136 C.ar    1  UNL1        0.0050
      5 C          -7.2227  -18.0982   22.0876 C.ar    1  UNL1        0.0158
      6 C          -7.9365  -18.9254   21.0599 C.ar    1  UNL1        0.0053
      7 C          -7.1730  -19.9178   20.2340 C.ar    1  UNL1        0.0715
      8 C          -5.6959  -20.0830   20.4358 C.ar    1  UNL1        0.0053
      9 C          -4.9822  -19.2558   21.4635 C.ar    1  UNL1        0.0172
     10 C          -5.7456  -18.2634   22.2894 C.ar    1  UNL1        0.0628
     11 N          -5.0319  -17.4361   23.3172 N.ar    1  UNL1       -0.2883
     12 C          -9.4633  -16.9405   22.7118 C.ar    1  UNL1        0.0344
     13 C         -10.4259  -17.7913   23.4861 C.ar    1  UNL1        0.0144
     14 C         -11.9030  -17.6261   23.2843 C.ar    1  UNL1        0.0579
     15 CL        -12.8655  -18.4770   24.0587 Cl      1  UNL1       -0.0822
     16 C         -12.4176  -16.6101   22.3083 C.ar    1  UNL1        0.0145
     17 C         -11.4551  -15.7592   21.5339 C.ar    1  UNL1        0.0375
     18 C          -9.9779  -15.9244   21.7357 C.ar    1  UNL1        0.1336
     19 O          -9.0154  -15.0735   20.9614 O.3     1  UNL1       -0.5055
     20 H          -9.3369  -14.4388   20.3517 H       1  UNL1        0.2922
     21 C          -7.8868  -20.7452   19.2062 C.3     1  UNL1        0.4186
     22 F          -8.6005  -21.5724   18.1785 F       1  UNL1       -0.1659
     23 F          -8.9431  -19.6868   19.0879 F       1  UNL1       -0.1659
     24 F          -6.8305  -21.8035   19.3245 F       1  UNL1       -0.1659
     25 C          -8.0359  -15.2860   24.7673 C.3     1  UNL1        0.0629
     26 C          -8.2321  -15.5249   26.2351 C.3     1  UNL1        0.1420
     27 O          -7.2853  -14.9171   27.2270 O.3     1  UNL1       -0.3816
     28 H          -6.4048  -15.3083   27.1152 H       1  UNL1        0.2105
     29 C          -3.5547  -17.6013   23.5190 C.3     1  UNL1        0.1760
     30 C          -2.6358  -17.6417   22.3340 C.ar    1  UNL1        0.1806
     31 N          -1.6807  -18.7480   21.9963 N.ar    1  UNL1       -0.1109
     32 N          -0.9652  -18.3731   20.7324 N.ar    1  UNL1       -0.0231
     33 N          -1.4782  -17.0350   20.2889 N.ar    1  UNL1       -0.0466
     34 N          -2.5106  -16.5831   21.2788 N.ar    1  UNL1       -0.2406
     35 H          -3.0171  -15.7397   21.2423 H       1  UNL1        0.1921
@<TRIPOS>BOND
     1     1     2    2
     2     2     3   ar
     3     3    25    1
     4    25    26    1
     5    26    27    1
     6     3     4   ar
     7     4    12    1
     8    12    13   ar
     9    13    14   ar
    10    14    15    1
    11    14    16   ar
    12    16    17   ar
    13    17    18   ar
    14    18    19    1
    15     4     5   ar
    16     5     6   ar
    17     6     7   ar
    18     7    21    1
    19    21    22    1
    20    21    23    1
    21    21    24    1
    22     7     8   ar
    23     8     9   ar
    24     9    10   ar
    25    10    11   ar
    26    11    29    1
    27    29    30    1
    28    30    31   ar
    29    31    32   ar
    30    32    33   ar
    31    33    34   ar
    32    11     2   ar
    33    34    30   ar
    34    18    12   ar
    35    10     5   ar
    36    27    28    1
    37    19    20    1
    38    34    35    1
@<TRIPOS>MOLECULE
*****
 35 38 0 0 0
SMALL
GASTEIGER

@<TRIPOS>ATOM
      1 O          -9.6717  -20.0701   19.3584 O.2     1  UNL1       -0.2673
      2 C          -8.7422  -19.3241   20.2693 C.ar    1  UNL1        0.2572
      3 C          -7.2582  -19.4875   20.1237 C.ar    1  UNL1        0.0366
      4 C          -6.3287  -18.7415   21.0345 C.ar    1  UNL1        0.0050
      5 C          -6.8831  -17.8322   22.0908 C.ar    1  UNL1        0.0158
      6 C          -5.9536  -17.0862   23.0016 C.ar    1  UNL1        0.0053
      7 C          -6.5080  -16.1770   24.0578 C.ar    1  UNL1        0.0715
      8 C          -7.9920  -16.0136   24.2034 C.ar    1  UNL1        0.0053
      9 C          -8.9215  -16.7595   23.2926 C.ar    1  UNL1        0.0172
     10 C          -8.3671  -17.6688   22.2363 C.ar    1  UNL1        0.0628
     11 N          -9.2966  -18.4148   21.3255 N.ar    1  UNL1       -0.2883
     12 C          -4.8448  -18.9049   20.8890 C.ar    1  UNL1        0.0344
     13 C          -4.1309  -18.2744   19.7302 C.ar    1  UNL1        0.0144
     14 C          -2.6469  -18.4377   19.5847 C.ar    1  UNL1        0.0579
     15 CL         -1.9330  -17.8071   18.4259 Cl      1  UNL1       -0.0822
     16 C          -1.8768  -19.2316   20.5979 C.ar    1  UNL1        0.0145
     17 C          -2.5907  -19.8622   21.7568 C.ar    1  UNL1        0.0375
     18 C          -4.0747  -19.6988   21.9023 C.ar    1  UNL1        0.1336
     19 O          -4.7886  -20.3294   23.0610 O.3     1  UNL1       -0.5055
     20 H          -4.3075  -20.8253   23.6940 H       1  UNL1        0.2922
     21 C          -5.5785  -15.4309   24.9687 C.3     1  UNL1        0.4186
     22 F          -4.6490  -14.6850   25.8794 F       1  UNL1       -0.1659
     23 F          -4.6899  -15.1145   23.8024 F       1  UNL1       -0.1659
     24 F          -6.4672  -15.7474   26.1349 F       1  UNL1       -0.1659
     25 C          -6.7038  -20.3968   19.0674 C.3     1  UNL1        0.0629
     26 C          -7.1220  -21.8366   19.0224 C.3     1  UNL1        0.1420
     27 O          -8.1481  -22.2887   18.0260 O.3     1  UNL1       -0.3816
     28 H          -9.0022  -21.8780   18.2325 H       1  UNL1        0.2105
     29 C         -10.7806  -18.2515   21.4710 C.3     1  UNL1        0.1760
     30 C         -11.5013  -17.2035   20.6758 C.ar    1  UNL1        0.1806
     31 N         -12.9299  -16.7845   20.8595 N.ar    1  UNL1       -0.1109
     32 N         -13.2315  -15.7127   19.8545 N.ar    1  UNL1       -0.0231
     33 N         -11.9894  -15.4692   19.0496 N.ar    1  UNL1       -0.0466
     34 N         -10.9201  -16.3906   19.5572 N.ar    1  UNL1       -0.2406
     35 H          -9.9986  -16.4512   19.2160 H       1  UNL1        0.1921
@<TRIPOS>BOND
     1     1     2    2
     2     2     3   ar
     3     3    25    1
     4    25    26    1
     5    26    27    1
     6     3     4   ar
     7     4    12    1
     8    12    13   ar
     9    13    14   ar
    10    14    15    1
    11    14    16   ar
    12    16    17   ar
    13    17    18   ar
    14    18    19    1
    15     4     5   ar
    16     5     6   ar
    17     6     7   ar
    18     7    21    1
    19    21    22    1
    20    21    23    1
    21    21    24    1
    22     7     8   ar
    23     8     9   ar
    24     9    10   ar
    25    10    11   ar
    26    11    29    1
    27    29    30    1
    28    30    31   ar
    29    31    32   ar
    30    32    33   ar
    31    33    34   ar
    32    11     2   ar
    33    34    30   ar
    34    18    12   ar
    35    10     5   ar
    36    27    28    1
    37    19    20    1
    38    34    35    1
