@<TRIPOS>MOLECULE
*****
 43 48 0 0 0
SMALL
GASTEIGER

@<TRIPOS>ATOM
      1 N           2.8058    1.2070   31.3355 N.am    1  UNL1       -0.2223
      2 C           2.1972    1.2135   29.9645 C.2     1  UNL1        0.3219
      3 O           2.5854    0.3209   28.8232 O.2     1  UNL1       -0.2512
      4 N           1.1322    2.2695   29.9351 N.am    1  UNL1       -0.1907
      5 C           1.0826    2.9156   31.2879 C.2     1  UNL1        0.2529
      6 O           0.1606    4.0237   31.7026 O.2     1  UNL1       -0.2724
      7 C           2.1170    2.2589   32.1535 C.3     1  UNL1        0.1391
      8 C           3.1862    1.5126   32.8949 C.3     1  UNL1        0.0449
      9 C           3.4800    1.8488   34.3268 C.3     1  UNL1        0.0746
     10 N           2.7047    2.9314   35.0174 N.3     1  UNL1       -0.2676
     11 C           1.6355    3.6777   34.2760 C.3     1  UNL1        0.0746
     12 C           1.3416    3.3415   32.8440 C.3     1  UNL1        0.0449
     13 C           4.3595   -3.2490   33.5103 C.3     1  UNL1        0.0737
     14 C           4.6863   -1.9214   32.8934 C.ar    1  UNL1        0.1410
     15 N           6.1167   -1.4941   32.7468 N.ar    1  UNL1       -0.2291
     16 C           6.4434   -0.1664   32.1299 C.ar    1  UNL1        0.1031
     17 C           5.3398    0.7339   31.6594 C.ar    1  UNL1        0.0554
     18 C           3.9094    0.3066   31.8060 C.ar    1  UNL1        0.1418
     19 N           3.5827   -1.0210   32.4229 N.ar    1  UNL1       -0.2156
     20 C           0.2685    2.6182   28.7594 C.ar    1  UNL1        0.0622
     21 C           0.2011    4.0353   28.2724 C.ar    1  UNL1        0.0154
     22 C          -0.6626    4.3839   27.0966 C.ar    1  UNL1        0.0013
     23 C          -1.4589    3.3155   26.4079 C.ar    1  UNL1       -0.0002
     24 C          -1.3915    1.8983   26.8949 C.ar    1  UNL1        0.0013
     25 C          -0.5277    1.5497   28.0707 C.ar    1  UNL1        0.0154
     26 C          -2.3226    3.6642   25.2321 C.ar    1  UNL1       -0.0040
     27 C          -1.7698    3.5690   23.8409 C.ar    1  UNL1       -0.0003
     28 C          -2.6336    3.9176   22.6652 C.ar    1  UNL1        0.0011
     29 C          -4.0501    4.3615   22.8807 C.ar    1  UNL1        0.0137
     30 C          -4.6029    4.4567   24.2718 C.ar    1  UNL1       -0.0031
     31 C          -3.7393    4.1080   25.4475 C.ar    1  UNL1       -0.0218
     32 C          -4.2921    4.2032   26.8387 C.3     1  UNL1        0.0310
     33 C          -4.9138    4.7102   21.7049 C.2     1  UNL1        0.0729
     34 O          -4.3114    5.3743   20.5024 O.co2   1  UNL1       -0.5446
     35 O          -6.3801    4.3947   21.7316 O.co2   1  UNL1       -0.5446
     36 C           2.9986    3.2676   36.4494 C.3     1  UNL1        0.1183
     37 C           2.2737    2.5534   37.5515 C.ar    1  UNL1        0.0712
     38 N           0.9802    3.1018   38.0768 N.ar    1  UNL1       -0.2471
     39 C           0.2553    2.3876   39.1790 C.ar    1  UNL1        0.0985
     40 C           0.8240    1.1251   39.7556 C.ar    1  UNL1        0.0203
     41 C           2.1175    0.5767   39.2303 C.ar    1  UNL1       -0.0015
     42 C           2.8424    1.2908   38.1282 C.ar    1  UNL1       -0.0069
     43 C           4.1359    0.7425   37.6028 C.3     1  UNL1        0.0323
@<TRIPOS>UNITY_ATOM_ATTR
34 1
charge -1
@<TRIPOS>BOND
     1    13    14    1
     2    14    15   ar
     3    15    16   ar
     4    16    17   ar
     5    17    18   ar
     6    18     1    1
     7     1     2   am
     8     2     3    2
     9     2     4   am
    10     4    20    1
    11    20    21   ar
    12    21    22   ar
    13    22    23   ar
    14    23    26    1
    15    26    27   ar
    16    27    28   ar
    17    28    29   ar
    18    29    33    1
    19    33    34   ar
    20    33    35   ar
    21    29    30   ar
    22    30    31   ar
    23    31    32    1
    24    23    24   ar
    25    24    25   ar
    26     4     5   am
    27     5     6    2
    28     5     7    1
    29     7     8    1
    30     8     9    1
    31     9    10    1
    32    10    36    1
    33    36    37    1
    34    37    38   ar
    35    38    39   ar
    36    39    40   ar
    37    40    41   ar
    38    41    42   ar
    39    42    43    1
    40    10    11    1
    41    11    12    1
    42    18    19   ar
    43    19    14   ar
    44     7     1    1
    45    42    37   ar
    46    25    20   ar
    47    12     7    1
    48    31    26   ar
@<TRIPOS>MOLECULE
*****
 43 48 0 0 0
SMALL
GASTEIGER

@<TRIPOS>ATOM
      1 N           3.4394    0.1692   31.6610 N.am    1  UNL1       -0.2223
      2 C           2.7528    0.3032   30.3340 C.2     1  UNL1        0.3219
      3 O           3.0853   -0.4628   29.0879 O.2     1  UNL1       -0.2512
      4 N           1.6755    1.3379   30.4719 N.am    1  UNL1       -0.1907
      5 C           1.6962    1.8432   31.8840 C.2     1  UNL1        0.2529
      6 O           0.7865    2.8875   32.4602 O.2     1  UNL1       -0.2724
      7 C           2.7863    1.1210   32.6190 C.3     1  UNL1        0.1391
      8 C           3.9052    0.3226   33.2195 C.3     1  UNL1        0.0449
      9 C           4.2770    0.5179   34.6595 C.3     1  UNL1        0.0746
     10 N           3.5299    1.5115   35.4990 N.3     1  UNL1       -0.2676
     11 C           2.4110    2.3098   34.8984 C.3     1  UNL1        0.0746
     12 C           2.0392    2.1146   33.4584 C.3     1  UNL1        0.0449
     13 C           8.5445   -0.7858   31.8224 C.3     1  UNL1        0.0737
     14 C           7.1314   -1.2318   32.0555 C.ar    1  UNL1        0.1410
     15 N           6.8578   -2.6016   32.6025 N.ar    1  UNL1       -0.2291
     16 C           5.4448   -3.0476   32.8356 C.ar    1  UNL1        0.1031
     17 C           4.3053   -2.1240   32.5218 C.ar    1  UNL1        0.0554
     18 C           4.5789   -0.7544   31.9748 C.ar    1  UNL1        0.1418
     19 N           5.9919   -0.3083   31.7417 N.ar    1  UNL1       -0.2156
     20 C           0.7415    1.7880   29.3880 C.ar    1  UNL1        0.0622
     21 C           0.7599    3.2153   28.9270 C.ar    1  UNL1        0.0154
     22 C          -0.1742    3.6654   27.8431 C.ar    1  UNL1        0.0013
     23 C          -1.1266    2.6883   27.2201 C.ar    1  UNL1       -0.0002
     24 C          -1.1450    1.2610   27.6811 C.ar    1  UNL1        0.0013
     25 C          -0.2109    0.8109   28.7650 C.ar    1  UNL1        0.0154
     26 C          -2.0606    3.1385   26.1361 C.ar    1  UNL1       -0.0040
     27 C          -3.4482    3.5912   26.4820 C.ar    1  UNL1       -0.0003
     28 C          -4.3823    4.0413   25.3980 C.ar    1  UNL1        0.0011
     29 C          -3.9286    4.0388   23.9682 C.ar    1  UNL1        0.0137
     30 C          -2.5410    3.5861   23.6224 C.ar    1  UNL1       -0.0031
     31 C          -1.6070    3.1359   24.7063 C.ar    1  UNL1       -0.0218
     32 C          -0.2194    2.6832   24.3605 C.3     1  UNL1        0.0310
     33 C          -4.8627    4.4889   22.8843 C.2     1  UNL1        0.0729
     34 O          -4.3951    5.4708   21.8512 O.co2   1  UNL1       -0.5446
     35 O          -6.2644    3.9571   22.8334 O.co2   1  UNL1       -0.5446
     36 C           3.9017    1.7067   36.9390 C.3     1  UNL1        0.1183
     37 C           2.8456    1.6394   38.0021 C.ar    1  UNL1        0.0712
     38 N           2.3486    0.3081   38.4823 N.ar    1  UNL1       -0.2471
     39 C           1.2924    0.2409   39.5454 C.ar    1  UNL1        0.0985
     40 C           0.7334    1.5049   40.1282 C.ar    1  UNL1        0.0203
     41 C           1.2304    2.8362   39.6479 C.ar    1  UNL1       -0.0015
     42 C           2.2865    2.9035   38.5849 C.ar    1  UNL1       -0.0069
     43 C           2.7835    4.2348   38.1047 C.3     1  UNL1        0.0323
@<TRIPOS>UNITY_ATOM_ATTR
34 1
charge -1
@<TRIPOS>BOND
     1    13    14    1
     2    14    15   ar
     3    15    16   ar
     4    16    17   ar
     5    17    18   ar
     6    18     1    1
     7     1     2   am
     8     2     3    2
     9     2     4   am
    10     4    20    1
    11    20    21   ar
    12    21    22   ar
    13    22    23   ar
    14    23    26    1
    15    26    27   ar
    16    27    28   ar
    17    28    29   ar
    18    29    33    1
    19    33    34   ar
    20    33    35   ar
    21    29    30   ar
    22    30    31   ar
    23    31    32    1
    24    23    24   ar
    25    24    25   ar
    26     4     5   am
    27     5     6    2
    28     5     7    1
    29     7     8    1
    30     8     9    1
    31     9    10    1
    32    10    36    1
    33    36    37    1
    34    37    38   ar
    35    38    39   ar
    36    39    40   ar
    37    40    41   ar
    38    41    42   ar
    39    42    43    1
    40    10    11    1
    41    11    12    1
    42    18    19   ar
    43    19    14   ar
    44     7     1    1
    45    42    37   ar
    46    25    20   ar
    47    12     7    1
    48    31    26   ar
@<TRIPOS>MOLECULE
*****
 43 48 0 0 0
SMALL
GASTEIGER

@<TRIPOS>ATOM
      1 N           3.5030   -0.9109   22.0595 N.am    1  UNL1       -0.2223
      2 C           2.2654   -0.0672   22.1419 C.2     1  UNL1        0.3219
      3 O           1.3923    0.3322   20.9894 O.2     1  UNL1       -0.2512
      4 N           2.0542    0.3069   23.5791 N.am    1  UNL1       -0.1907
      5 C           3.1613   -0.3056   24.3849 C.2     1  UNL1        0.2529
      6 O           3.3414   -0.1864   25.8693 O.2     1  UNL1       -0.2724
      7 C           4.0567   -1.0582   23.4458 C.3     1  UNL1        0.1391
      8 C           4.8558   -1.7649   22.3914 C.3     1  UNL1        0.0449
      9 C           6.0884   -2.5304   22.7718 C.3     1  UNL1        0.0746
     10 N           6.5218   -2.5892   24.2066 N.3     1  UNL1       -0.2676
     11 C           5.7227   -1.8825   25.2610 C.3     1  UNL1        0.0746
     12 C           4.4901   -1.1170   24.8806 C.3     1  UNL1        0.0449
     13 C           4.1509   -4.9724   18.8839 C.3     1  UNL1        0.0737
     14 C           4.4086   -3.5340   19.2225 C.ar    1  UNL1        0.1410
     15 N           5.2481   -2.6879   18.3116 N.ar    1  UNL1       -0.2291
     16 C           5.5059   -1.2495   18.6502 C.ar    1  UNL1        0.1031
     17 C           4.9242   -0.6571   19.8995 C.ar    1  UNL1        0.0554
     18 C           4.0847   -1.5032   20.8102 C.ar    1  UNL1        0.1418
     19 N           3.8270   -2.9416   20.4717 N.ar    1  UNL1       -0.2156
     20 C           0.9330    1.1460   24.1161 C.ar    1  UNL1        0.0622
     21 C           0.3869    2.2796   23.2995 C.ar    1  UNL1        0.0154
     22 C          -0.7344    3.1188   23.8365 C.ar    1  UNL1        0.0013
     23 C          -1.3097    2.8244   25.1902 C.ar    1  UNL1       -0.0002
     24 C          -0.7636    1.6908   26.0069 C.ar    1  UNL1        0.0013
     25 C           0.3577    0.8517   25.4698 C.ar    1  UNL1        0.0154
     26 C          -2.4310    3.6636   25.7273 C.ar    1  UNL1       -0.0040
     27 C          -3.8370    3.4221   25.2638 C.ar    1  UNL1       -0.0003
     28 C          -4.9583    4.2613   25.8009 C.ar    1  UNL1        0.0011
     29 C          -4.6735    5.3420   26.8014 C.ar    1  UNL1        0.0137
     30 C          -3.2675    5.5835   27.2648 C.ar    1  UNL1       -0.0031
     31 C          -2.1463    4.7444   26.7278 C.ar    1  UNL1       -0.0218
     32 C          -0.7403    4.9859   27.1913 C.3     1  UNL1        0.0310
     33 C          -5.7948    6.1812   27.3384 C.2     1  UNL1        0.0729
     34 O          -5.6217    6.9280   28.6277 O.co2   1  UNL1       -0.5446
     35 O          -7.0893    6.2736   26.5861 O.co2   1  UNL1       -0.5446
     36 C           7.7545   -3.3547   24.5869 C.3     1  UNL1        0.1183
     37 C           7.6502   -4.8004   24.9730 C.ar    1  UNL1        0.0712
     38 N           7.0102   -5.1850   26.2740 N.ar    1  UNL1       -0.2471
     39 C           6.9060   -6.6308   26.6600 C.ar    1  UNL1        0.0985
     40 C           7.4417   -7.6918   25.7451 C.ar    1  UNL1        0.0203
     41 C           8.0816   -7.3072   24.4441 C.ar    1  UNL1       -0.0015
     42 C           8.1859   -5.8616   24.0581 C.ar    1  UNL1       -0.0069
     43 C           8.8259   -5.4770   22.7571 C.3     1  UNL1        0.0323
@<TRIPOS>UNITY_ATOM_ATTR
34 1
charge -1
@<TRIPOS>BOND
     1    13    14    1
     2    14    15   ar
     3    15    16   ar
     4    16    17   ar
     5    17    18   ar
     6    18     1    1
     7     1     2   am
     8     2     3    2
     9     2     4   am
    10     4    20    1
    11    20    21   ar
    12    21    22   ar
    13    22    23   ar
    14    23    26    1
    15    26    27   ar
    16    27    28   ar
    17    28    29   ar
    18    29    33    1
    19    33    34   ar
    20    33    35   ar
    21    29    30   ar
    22    30    31   ar
    23    31    32    1
    24    23    24   ar
    25    24    25   ar
    26     4     5   am
    27     5     6    2
    28     5     7    1
    29     7     8    1
    30     8     9    1
    31     9    10    1
    32    10    36    1
    33    36    37    1
    34    37    38   ar
    35    38    39   ar
    36    39    40   ar
    37    40    41   ar
    38    41    42   ar
    39    42    43    1
    40    10    11    1
    41    11    12    1
    42    18    19   ar
    43    19    14   ar
    44     7     1    1
    45    42    37   ar
    46    25    20   ar
    47    12     7    1
    48    31    26   ar
@<TRIPOS>MOLECULE
*****
 43 48 0 0 0
SMALL
GASTEIGER

@<TRIPOS>ATOM
      1 N           3.1989   -0.4015   21.6544 N.am    1  UNL1       -0.2223
      2 C           1.9410    0.4025   21.8009 C.2     1  UNL1        0.3219
      3 O           0.9994    0.7759   20.6947 O.2     1  UNL1       -0.2512
      4 N           1.7902    0.7676   23.2481 N.am    1  UNL1       -0.1907
      5 C           2.9548    0.1892   23.9958 C.2     1  UNL1        0.2529
      6 O           3.2050    0.3118   25.4697 O.2     1  UNL1       -0.2724
      7 C           3.8255   -0.5333   23.0109 C.3     1  UNL1        0.1391
      8 C           4.5929   -1.2128   21.9158 C.3     1  UNL1        0.0449
      9 C           5.8664   -1.9395   22.2319 C.3     1  UNL1        0.0746
     10 N           6.3725   -1.9868   23.6431 N.3     1  UNL1       -0.2676
     11 C           5.6052   -1.3073   24.7382 C.3     1  UNL1        0.0746
     12 C           4.3316   -0.5806   24.4221 C.3     1  UNL1        0.0449
     13 C           6.0893    0.0987   17.3654 C.3     1  UNL1        0.0737
     14 C           5.1811   -0.7231   18.2314 C.ar    1  UNL1        0.1410
     15 N           4.8099   -2.1167   17.8187 N.ar    1  UNL1       -0.2291
     16 C           3.9017   -2.9385   18.6847 C.ar    1  UNL1        0.1031
     17 C           3.3647   -2.3668   19.9632 C.ar    1  UNL1        0.0554
     18 C           3.7359   -0.9732   20.3758 C.ar    1  UNL1        0.1418
     19 N           4.6441   -0.1515   19.5099 N.ar    1  UNL1       -0.2156
     20 C           0.6713    1.5700   23.8429 C.ar    1  UNL1        0.0622
     21 C           0.0942    1.1821   25.1720 C.ar    1  UNL1        0.0154
     22 C          -1.0248    1.9846   25.7668 C.ar    1  UNL1        0.0013
     23 C          -1.5667    3.1751   25.0326 C.ar    1  UNL1       -0.0002
     24 C          -0.9896    3.5631   23.7034 C.ar    1  UNL1        0.0013
     25 C           0.1294    2.7605   23.1087 C.ar    1  UNL1        0.0154
     26 C          -2.6857    3.9776   25.6275 C.ar    1  UNL1       -0.0040
     27 C          -2.4151    4.9081   26.7725 C.ar    1  UNL1       -0.0003
     28 C          -3.5341    5.7106   27.3673 C.ar    1  UNL1        0.0011
     29 C          -4.9237    5.5826   26.8171 C.ar    1  UNL1        0.0137
     30 C          -5.1943    4.6522   25.6721 C.ar    1  UNL1       -0.0031
     31 C          -4.0753    3.8497   25.0772 C.ar    1  UNL1       -0.0218
     32 C          -4.3459    2.9192   23.9322 C.3     1  UNL1        0.0310
     33 C          -6.0427    6.3851   27.4119 C.2     1  UNL1        0.0729
     34 O          -7.2687    6.6798   26.5994 O.co2   1  UNL1       -0.5446
     35 O          -5.9356    6.8930   28.8193 O.co2   1  UNL1       -0.5446
     36 C           7.6461   -2.7135   23.9592 C.3     1  UNL1        0.1183
     37 C           7.5985   -4.1243   24.4666 C.ar    1  UNL1        0.0712
     38 N           7.0554   -4.4112   25.8350 N.ar    1  UNL1       -0.2471
     39 C           7.0078   -5.8220   26.3425 C.ar    1  UNL1        0.0985
     40 C           7.5034   -6.9458   25.4814 C.ar    1  UNL1        0.0203
     41 C           8.0465   -6.6589   24.1130 C.ar    1  UNL1       -0.0015
     42 C           8.0941   -5.2482   23.6056 C.ar    1  UNL1       -0.0069
     43 C           8.6373   -4.9613   22.2371 C.3     1  UNL1        0.0323
@<TRIPOS>UNITY_ATOM_ATTR
34 1
charge -1
@<TRIPOS>BOND
     1    13    14    1
     2    14    15   ar
     3    15    16   ar
     4    16    17   ar
     5    17    18   ar
     6    18     1    1
     7     1     2   am
     8     2     3    2
     9     2     4   am
    10     4    20    1
    11    20    21   ar
    12    21    22   ar
    13    22    23   ar
    14    23    26    1
    15    26    27   ar
    16    27    28   ar
    17    28    29   ar
    18    29    33    1
    19    33    34   ar
    20    33    35   ar
    21    29    30   ar
    22    30    31   ar
    23    31    32    1
    24    23    24   ar
    25    24    25   ar
    26     4     5   am
    27     5     6    2
    28     5     7    1
    29     7     8    1
    30     8     9    1
    31     9    10    1
    32    10    36    1
    33    36    37    1
    34    37    38   ar
    35    38    39   ar
    36    39    40   ar
    37    40    41   ar
    38    41    42   ar
    39    42    43    1
    40    10    11    1
    41    11    12    1
    42    18    19   ar
    43    19    14   ar
    44     7     1    1
    45    42    37   ar
    46    25    20   ar
    47    12     7    1
    48    31    26   ar
@<TRIPOS>MOLECULE
*****
 43 48 0 0 0
SMALL
GASTEIGER

@<TRIPOS>ATOM
      1 N           6.0040   -2.8370   25.8979 N.am    1  UNL1       -0.2223
      2 C           5.6476   -2.1190   27.1659 C.2     1  UNL1        0.3219
      3 O           6.2944   -2.3194   28.5043 O.2     1  UNL1       -0.2512
      4 N           4.5309   -1.1652   26.8602 N.am    1  UNL1       -0.1907
      5 C           4.1971   -1.2938   25.4035 C.2     1  UNL1        0.2529
      6 O           3.1388   -0.5243   24.6702 O.2     1  UNL1       -0.2724
      7 C           5.1075   -2.3270   24.8088 C.3     1  UNL1        0.1391
      8 C           6.0805   -3.3755   24.3572 C.3     1  UNL1        0.0449
      9 C           6.0923   -3.8206   22.9249 C.3     1  UNL1        0.0746
     10 N           5.1312   -3.2172   21.9440 N.3     1  UNL1       -0.2676
     11 C           4.1582   -2.1687   22.3955 C.3     1  UNL1        0.0746
     12 C           4.1464   -1.7236   23.8279 C.3     1  UNL1        0.0449
     13 C           7.4654   -7.8224   25.9982 C.3     1  UNL1        0.0737
     14 C           7.8003   -6.3743   25.7961 C.ar    1  UNL1        0.1410
     15 N           9.2011   -5.9708   25.4420 N.ar    1  UNL1       -0.2291
     16 C           9.5360   -4.5227   25.2399 C.ar    1  UNL1        0.1031
     17 C           8.4703   -3.4781   25.3919 C.ar    1  UNL1        0.0554
     18 C           7.0697   -3.8816   25.7460 C.ar    1  UNL1        0.1418
     19 N           6.7347   -5.3297   25.9481 N.ar    1  UNL1       -0.2156
     20 C           3.8650   -0.2446   27.8394 C.ar    1  UNL1        0.0622
     21 C           4.5497    1.0205   28.2645 C.ar    1  UNL1        0.0154
     22 C           3.8837    1.9412   29.2437 C.ar    1  UNL1        0.0013
     23 C           2.5330    1.5968   29.7978 C.ar    1  UNL1       -0.0002
     24 C           1.8482    0.3317   29.3727 C.ar    1  UNL1        0.0013
     25 C           2.5143   -0.5889   28.3935 C.ar    1  UNL1        0.0154
     26 C           1.8670    2.5175   30.7770 C.ar    1  UNL1       -0.0040
     27 C           1.0346    3.6632   30.2825 C.ar    1  UNL1       -0.0003
     28 C           0.3686    4.5839   31.2617 C.ar    1  UNL1        0.0011
     29 C           0.5351    4.3588   32.7354 C.ar    1  UNL1        0.0137
     30 C           1.3675    3.2131   33.2299 C.ar    1  UNL1       -0.0031
     31 C           2.0335    2.2925   32.2507 C.ar    1  UNL1       -0.0218
     32 C           2.8659    1.1469   32.7452 C.3     1  UNL1        0.0310
     33 C          -0.1309    5.2795   33.7146 C.2     1  UNL1        0.0729
     34 O           0.5973    5.7111   34.9529 O.co2   1  UNL1       -0.5446
     35 O          -1.5251    5.7685   33.4554 O.co2   1  UNL1       -0.5446
     36 C           5.1431   -3.6623   20.5116 C.3     1  UNL1        0.1183
     37 C           5.1532   -2.6444   19.4100 C.ar    1  UNL1        0.0712
     38 N           3.8611   -2.1800   18.8059 N.ar    1  UNL1       -0.2471
     39 C           3.8713   -1.1620   17.7042 C.ar    1  UNL1        0.0985
     40 C           5.1736   -0.6085   17.2066 C.ar    1  UNL1        0.0203
     41 C           6.4657   -1.0728   17.8106 C.ar    1  UNL1       -0.0015
     42 C           6.4555   -2.0908   18.9123 C.ar    1  UNL1       -0.0069
     43 C           7.7476   -2.5551   19.5163 C.3     1  UNL1        0.0323
@<TRIPOS>UNITY_ATOM_ATTR
34 1
charge -1
@<TRIPOS>BOND
     1    13    14    1
     2    14    15   ar
     3    15    16   ar
     4    16    17   ar
     5    17    18   ar
     6    18     1    1
     7     1     2   am
     8     2     3    2
     9     2     4   am
    10     4    20    1
    11    20    21   ar
    12    21    22   ar
    13    22    23   ar
    14    23    26    1
    15    26    27   ar
    16    27    28   ar
    17    28    29   ar
    18    29    33    1
    19    33    34   ar
    20    33    35   ar
    21    29    30   ar
    22    30    31   ar
    23    31    32    1
    24    23    24   ar
    25    24    25   ar
    26     4     5   am
    27     5     6    2
    28     5     7    1
    29     7     8    1
    30     8     9    1
    31     9    10    1
    32    10    36    1
    33    36    37    1
    34    37    38   ar
    35    38    39   ar
    36    39    40   ar
    37    40    41   ar
    38    41    42   ar
    39    42    43    1
    40    10    11    1
    41    11    12    1
    42    18    19   ar
    43    19    14   ar
    44     7     1    1
    45    42    37   ar
    46    25    20   ar
    47    12     7    1
    48    31    26   ar
@<TRIPOS>MOLECULE
*****
 43 48 0 0 0
SMALL
GASTEIGER

@<TRIPOS>ATOM
      1 N           2.2806    0.9877   24.0876 N.am    1  UNL1       -0.2223
      2 C           1.9060    1.7857   25.3013 C.2     1  UNL1        0.3219
      3 O           1.0788    3.0369   25.3131 O.2     1  UNL1       -0.2512
      4 N           2.5038    1.1126   26.5012 N.am    1  UNL1       -0.1907
      5 C           3.2478   -0.1012   26.0291 C.2     1  UNL1        0.2529
      6 O           3.9981   -1.0682   26.8963 O.2     1  UNL1       -0.2724
      7 C           3.1099   -0.1785   24.5374 C.3     1  UNL1        0.1391
      8 C           2.8863   -0.1244   23.0552 C.3     1  UNL1        0.0449
      9 C           3.4745   -1.1821   22.1689 C.3     1  UNL1        0.0746
     10 N           4.2862   -2.2937   22.7649 N.3     1  UNL1       -0.2676
     11 C           4.5099   -2.3478   24.2471 C.3     1  UNL1        0.0746
     12 C           3.9217   -1.2901   25.1334 C.3     1  UNL1        0.0449
     13 C           3.4303    3.0535   19.4605 C.3     1  UNL1        0.0737
     14 C           2.4687    2.3339   20.3591 C.ar    1  UNL1        0.1410
     15 N           1.1203    1.9275   19.8426 N.ar    1  UNL1       -0.2291
     16 C           0.1587    1.2078   20.7412 C.ar    1  UNL1        0.1031
     17 C           0.5455    0.8946   22.1562 C.ar    1  UNL1        0.0554
     18 C           1.8938    1.3010   22.6726 C.ar    1  UNL1        0.1418
     19 N           2.8554    2.0206   21.7740 N.ar    1  UNL1       -0.2156
     20 C           2.3793    1.5726   27.9234 C.ar    1  UNL1        0.0622
     21 C           3.4845    2.3667   28.5542 C.ar    1  UNL1        0.0154
     22 C           3.3601    2.8268   29.9765 C.ar    1  UNL1        0.0013
     23 C           2.1304    2.4927   30.7680 C.ar    1  UNL1       -0.0002
     24 C           1.0252    1.6986   30.1372 C.ar    1  UNL1        0.0013
     25 C           1.1497    1.2386   28.7149 C.ar    1  UNL1        0.0154
     26 C           2.0060    2.9528   32.1903 C.ar    1  UNL1       -0.0040
     27 C           1.3530    4.2674   32.4989 C.ar    1  UNL1       -0.0003
     28 C           1.2285    4.7275   33.9212 C.ar    1  UNL1        0.0011
     29 C           1.7571    3.8728   35.0348 C.ar    1  UNL1        0.0137
     30 C           2.4102    2.5582   34.7262 C.ar    1  UNL1       -0.0031
     31 C           2.5346    2.0981   33.3040 C.ar    1  UNL1       -0.0218
     32 C           3.1876    0.7835   32.9954 C.3     1  UNL1        0.0310
     33 C           1.6327    4.3329   36.4571 C.2     1  UNL1        0.0729
     34 O           1.8549    5.7759   36.8008 O.co2   1  UNL1       -0.5446
     35 O           1.2860    3.3497   37.5358 O.co2   1  UNL1       -0.5446
     36 C           4.8744   -3.3514   21.8786 C.3     1  UNL1        0.1183
     37 C           5.4863   -2.9721   20.5627 C.ar    1  UNL1        0.0712
     38 N           6.7701   -2.1971   20.5281 N.ar    1  UNL1       -0.2471
     39 C           7.3820   -1.8178   19.2121 C.ar    1  UNL1        0.0985
     40 C           6.7101   -2.2135   17.9308 C.ar    1  UNL1        0.0203
     41 C           5.4263   -2.9886   17.9653 C.ar    1  UNL1       -0.0015
     42 C           4.8144   -3.3679   19.2813 C.ar    1  UNL1       -0.0069
     43 C           3.5306   -4.1429   19.3158 C.3     1  UNL1        0.0323
@<TRIPOS>UNITY_ATOM_ATTR
34 1
charge -1
@<TRIPOS>BOND
     1    13    14    1
     2    14    15   ar
     3    15    16   ar
     4    16    17   ar
     5    17    18   ar
     6    18     1    1
     7     1     2   am
     8     2     3    2
     9     2     4   am
    10     4    20    1
    11    20    21   ar
    12    21    22   ar
    13    22    23   ar
    14    23    26    1
    15    26    27   ar
    16    27    28   ar
    17    28    29   ar
    18    29    33    1
    19    33    34   ar
    20    33    35   ar
    21    29    30   ar
    22    30    31   ar
    23    31    32    1
    24    23    24   ar
    25    24    25   ar
    26     4     5   am
    27     5     6    2
    28     5     7    1
    29     7     8    1
    30     8     9    1
    31     9    10    1
    32    10    36    1
    33    36    37    1
    34    37    38   ar
    35    38    39   ar
    36    39    40   ar
    37    40    41   ar
    38    41    42   ar
    39    42    43    1
    40    10    11    1
    41    11    12    1
    42    18    19   ar
    43    19    14   ar
    44     7     1    1
    45    42    37   ar
    46    25    20   ar
    47    12     7    1
    48    31    26   ar
@<TRIPOS>MOLECULE
*****
 43 48 0 0 0
SMALL
GASTEIGER

@<TRIPOS>ATOM
      1 N           6.5812   -3.1792   27.8248 N.am    1  UNL1       -0.2223
      2 C           6.6625   -2.9046   29.2973 C.2     1  UNL1        0.3219
      3 O           7.5761   -3.5864   30.2722 O.2     1  UNL1       -0.2512
      4 N           5.6697   -1.8285   29.6236 N.am    1  UNL1       -0.1907
      5 C           4.9748   -1.4380   28.3529 C.2     1  UNL1        0.2529
      6 O           3.9046   -0.3958   28.2175 O.2     1  UNL1       -0.2724
      7 C           5.5382   -2.2728   27.2411 C.3     1  UNL1        0.1391
      8 C           6.1939   -3.1742   26.2374 C.3     1  UNL1        0.0449
      9 C           5.7859   -3.1133   24.7953 C.3     1  UNL1        0.0746
     10 N           4.7221   -2.1509   24.3569 N.3     1  UNL1       -0.2676
     11 C           4.0664   -1.2495   25.3605 C.3     1  UNL1        0.0746
     12 C           4.4744   -1.3104   26.8026 C.3     1  UNL1        0.0449
     13 C           7.2849   -8.0324   26.1069 C.3     1  UNL1        0.0737
     14 C           7.7511   -6.6104   26.2099 C.ar    1  UNL1        0.1410
     15 N           9.0354   -6.1930   25.5568 N.ar    1  UNL1       -0.2291
     16 C           9.5015   -4.7709   25.6597 C.ar    1  UNL1        0.1031
     17 C           8.6835   -3.7664   26.4157 C.ar    1  UNL1        0.0554
     18 C           7.3992   -4.1838   27.0688 C.ar    1  UNL1        0.1418
     19 N           6.9331   -5.6058   26.9658 N.ar    1  UNL1       -0.2156
     20 C           5.4162   -1.2453   30.9820 C.ar    1  UNL1        0.0622
     21 C           4.5871   -1.9992   31.9791 C.ar    1  UNL1        0.0154
     22 C           4.3337   -1.4159   33.3377 C.ar    1  UNL1        0.0013
     23 C           4.9094   -0.0788   33.6991 C.ar    1  UNL1       -0.0002
     24 C           5.7386    0.6751   32.7020 C.ar    1  UNL1        0.0013
     25 C           5.9919    0.0918   31.3435 C.ar    1  UNL1        0.0154
     26 C           4.6560    0.5044   35.0577 C.ar    1  UNL1       -0.0040
     27 C           5.4951    0.0778   36.2255 C.ar    1  UNL1       -0.0003
     28 C           5.2417    0.6610   37.5840 C.ar    1  UNL1        0.0011
     29 C           4.1491    1.6709   37.7747 C.ar    1  UNL1        0.0137
     30 C           3.3099    2.0976   36.6069 C.ar    1  UNL1       -0.0031
     31 C           3.5633    1.5144   35.2484 C.ar    1  UNL1       -0.0218
     32 C           2.7242    1.9410   34.0806 C.3     1  UNL1        0.0310
     33 C           3.8956    2.2542   39.1332 C.2     1  UNL1        0.0729
     34 O           2.5017    2.6307   39.5397 O.co2   1  UNL1       -0.5446
     35 O           5.0362    2.4609   40.0853 O.co2   1  UNL1       -0.5446
     36 C           4.3141   -2.0900   22.9147 C.3     1  UNL1        0.1183
     37 C           5.3601   -2.0369   21.8409 C.ar    1  UNL1        0.0712
     38 N           6.4206   -0.9768   21.8787 N.ar    1  UNL1       -0.2471
     39 C           7.4666   -0.9237   20.8049 C.ar    1  UNL1        0.0985
     40 C           7.4521   -1.9308   19.6933 C.ar    1  UNL1        0.0203
     41 C           6.3916   -2.9909   19.6555 C.ar    1  UNL1       -0.0015
     42 C           5.3456   -3.0440   20.7292 C.ar    1  UNL1       -0.0069
     43 C           4.2851   -4.1041   20.6914 C.3     1  UNL1        0.0323
@<TRIPOS>UNITY_ATOM_ATTR
34 1
charge -1
@<TRIPOS>BOND
     1    13    14    1
     2    14    15   ar
     3    15    16   ar
     4    16    17   ar
     5    17    18   ar
     6    18     1    1
     7     1     2   am
     8     2     3    2
     9     2     4   am
    10     4    20    1
    11    20    21   ar
    12    21    22   ar
    13    22    23   ar
    14    23    26    1
    15    26    27   ar
    16    27    28   ar
    17    28    29   ar
    18    29    33    1
    19    33    34   ar
    20    33    35   ar
    21    29    30   ar
    22    30    31   ar
    23    31    32    1
    24    23    24   ar
    25    24    25   ar
    26     4     5   am
    27     5     6    2
    28     5     7    1
    29     7     8    1
    30     8     9    1
    31     9    10    1
    32    10    36    1
    33    36    37    1
    34    37    38   ar
    35    38    39   ar
    36    39    40   ar
    37    40    41   ar
    38    41    42   ar
    39    42    43    1
    40    10    11    1
    41    11    12    1
    42    18    19   ar
    43    19    14   ar
    44     7     1    1
    45    42    37   ar
    46    25    20   ar
    47    12     7    1
    48    31    26   ar
@<TRIPOS>MOLECULE
*****
 43 48 0 0 0
SMALL
GASTEIGER

@<TRIPOS>ATOM
      1 N           6.1255   -2.2376   26.1896 N.am    1  UNL1       -0.2223
      2 C           6.1829   -1.9243   27.6555 C.2     1  UNL1        0.3219
      3 O           7.2424   -2.3812   28.6139 O.2     1  UNL1       -0.2512
      4 N           4.9946   -1.0739   27.9945 N.am    1  UNL1       -0.1907
      5 C           4.2029   -0.8616   26.7383 C.2     1  UNL1        0.2529
      6 O           2.9350   -0.0692   26.6185 O.2     1  UNL1       -0.2724
      7 C           4.9018   -1.5808   25.6227 C.3     1  UNL1        0.1391
      8 C           5.7076   -2.3439   24.6136 C.3     1  UNL1        0.0449
      9 C           5.2613   -2.3970   23.1826 C.3     1  UNL1        0.0746
     10 N           4.0091   -1.6870   22.7607 N.3     1  UNL1       -0.2676
     11 C           3.2033   -0.9240   23.7698 C.3     1  UNL1        0.0746
     12 C           3.6496   -0.8709   25.2009 C.3     1  UNL1        0.0449
     13 C           7.8421   -6.8754   24.5945 C.3     1  UNL1        0.0737
     14 C           7.9758   -5.3818   24.6274 C.ar    1  UNL1        0.1410
     15 N           9.1018   -4.7133   23.8956 N.ar    1  UNL1       -0.2291
     16 C           9.2356   -3.2196   23.9285 C.ar    1  UNL1        0.1031
     17 C           8.2435   -2.3944   24.6931 C.ar    1  UNL1        0.0554
     18 C           7.1176   -3.0629   25.4249 C.ar    1  UNL1        0.1418
     19 N           6.9838   -4.5565   25.3920 N.ar    1  UNL1       -0.2156
     20 C           4.6574   -0.5311   29.3515 C.ar    1  UNL1        0.0622
     21 C           3.3550   -0.8931   30.0016 C.ar    1  UNL1        0.0154
     22 C           3.0177   -0.3502   31.3587 C.ar    1  UNL1        0.0013
     23 C           3.9828    0.5546   32.0656 C.ar    1  UNL1       -0.0002
     24 C           5.2853    0.9167   31.4155 C.ar    1  UNL1        0.0013
     25 C           5.6225    0.3738   30.0584 C.ar    1  UNL1        0.0154
     26 C           3.6455    1.0975   33.4227 C.ar    1  UNL1       -0.0040
     27 C           2.7029    2.2569   33.5536 C.ar    1  UNL1       -0.0003
     28 C           2.3656    2.7998   34.9107 C.ar    1  UNL1        0.0011
     29 C           2.9710    2.1831   36.1367 C.ar    1  UNL1        0.0137
     30 C           3.9136    1.0236   36.0058 C.ar    1  UNL1       -0.0031
     31 C           4.2509    0.4808   34.6488 C.ar    1  UNL1       -0.0218
     32 C           5.1934   -0.6786   34.5179 C.3     1  UNL1        0.0310
     33 C           2.6337    2.7259   37.4938 C.2     1  UNL1        0.0729
     34 O           3.6752    2.7475   38.5730 O.co2   1  UNL1       -0.5446
     35 O           1.2549    3.2473   37.7715 O.co2   1  UNL1       -0.5446
     36 C           3.5627   -1.7402   21.3296 C.3     1  UNL1        0.1183
     37 C           4.5792   -1.8191   20.2294 C.ar    1  UNL1        0.0712
     38 N           5.5774   -0.7139   20.0498 N.ar    1  UNL1       -0.2471
     39 C           6.5939   -0.7929   18.9495 C.ar    1  UNL1        0.0985
     40 C           6.6121   -1.9769   18.0288 C.ar    1  UNL1        0.0203
     41 C           5.6139   -3.0821   18.2084 C.ar    1  UNL1       -0.0015
     42 C           4.5974   -3.0032   19.3086 C.ar    1  UNL1       -0.0069
     43 C           3.5992   -4.1083   19.4882 C.3     1  UNL1        0.0323
@<TRIPOS>UNITY_ATOM_ATTR
34 1
charge -1
@<TRIPOS>BOND
     1    13    14    1
     2    14    15   ar
     3    15    16   ar
     4    16    17   ar
     5    17    18   ar
     6    18     1    1
     7     1     2   am
     8     2     3    2
     9     2     4   am
    10     4    20    1
    11    20    21   ar
    12    21    22   ar
    13    22    23   ar
    14    23    26    1
    15    26    27   ar
    16    27    28   ar
    17    28    29   ar
    18    29    33    1
    19    33    34   ar
    20    33    35   ar
    21    29    30   ar
    22    30    31   ar
    23    31    32    1
    24    23    24   ar
    25    24    25   ar
    26     4     5   am
    27     5     6    2
    28     5     7    1
    29     7     8    1
    30     8     9    1
    31     9    10    1
    32    10    36    1
    33    36    37    1
    34    37    38   ar
    35    38    39   ar
    36    39    40   ar
    37    40    41   ar
    38    41    42   ar
    39    42    43    1
    40    10    11    1
    41    11    12    1
    42    18    19   ar
    43    19    14   ar
    44     7     1    1
    45    42    37   ar
    46    25    20   ar
    47    12     7    1
    48    31    26   ar
@<TRIPOS>MOLECULE
*****
 43 48 0 0 0
SMALL
GASTEIGER

@<TRIPOS>ATOM
      1 N           1.6289    2.0123   24.2581 N.am    1  UNL1       -0.2223
      2 C           1.7590    2.2668   25.7307 C.2     1  UNL1        0.3219
      3 O           1.2400    3.4659   26.4674 O.2     1  UNL1       -0.2512
      4 N           2.4991    1.1116   26.3371 N.am    1  UNL1       -0.1907
      5 C           2.8265    0.1432   25.2394 C.2     1  UNL1        0.2529
      6 O           3.5625   -1.1541   25.3985 O.2     1  UNL1       -0.2724
      7 C           2.2887    0.6999   23.9544 C.3     1  UNL1        0.1391
      8 C           1.6996    1.3788   22.7536 C.3     1  UNL1        0.0449
      9 C           1.8033    0.7359   21.4024 C.3     1  UNL1        0.0746
     10 N           2.4962   -0.5859   21.2520 N.3     1  UNL1       -0.2676
     11 C           3.0853   -1.2649   22.4527 C.3     1  UNL1        0.0746
     12 C           2.9815   -0.6220   23.8040 C.3     1  UNL1        0.0449
     13 C          -2.6361    3.4752   21.6755 C.3     1  UNL1        0.0737
     14 C          -1.1755    3.6437   21.9725 C.ar    1  UNL1        0.1410
     15 N          -0.3867    4.7122   21.2752 N.ar    1  UNL1       -0.2291
     16 C           1.0739    4.8807   21.5722 C.ar    1  UNL1        0.1031
     17 C           1.7458    3.9808   22.5665 C.ar    1  UNL1        0.0554
     18 C           0.9570    2.9123   23.2638 C.ar    1  UNL1        0.1418
     19 N          -0.5036    2.7438   22.9668 N.ar    1  UNL1       -0.2156
     20 C           2.8502    0.9527   27.7866 C.ar    1  UNL1        0.0622
     21 C           1.9451    0.1768   28.6969 C.ar    1  UNL1        0.0154
     22 C           2.2962    0.0180   30.1466 C.ar    1  UNL1        0.0013
     23 C           3.5525    0.6350   30.6860 C.ar    1  UNL1       -0.0002
     24 C           4.4578    1.4109   29.7757 C.ar    1  UNL1        0.0013
     25 C           4.1066    1.5697   28.3260 C.ar    1  UNL1        0.0154
     26 C           3.9037    0.4761   32.1356 C.ar    1  UNL1       -0.0040
     27 C           3.4407    1.4939   33.1354 C.ar    1  UNL1       -0.0003
     28 C           3.7919    1.3351   34.5850 C.ar    1  UNL1        0.0011
     29 C           4.6060    0.1582   35.0348 C.ar    1  UNL1        0.0137
     30 C           5.0690   -0.8596   34.0350 C.ar    1  UNL1       -0.0031
     31 C           4.7179   -0.7008   32.5855 C.ar    1  UNL1       -0.0218
     32 C           5.1808   -1.7187   31.5857 C.3     1  UNL1        0.0310
     33 C           4.9572   -0.0006   36.4845 C.2     1  UNL1        0.0729
     34 O           3.9979    0.4569   37.5430 O.co2   1  UNL1       -0.5446
     35 O           6.2676   -0.6171   36.8755 O.co2   1  UNL1       -0.5446
     36 C           2.5999   -1.2288   19.9006 C.3     1  UNL1        0.1183
     37 C           3.9475   -1.4925   19.2970 C.ar    1  UNL1        0.0712
     38 N           4.9007   -0.3577   19.0657 N.ar    1  UNL1       -0.2471
     39 C           6.2484   -0.6215   18.4620 C.ar    1  UNL1        0.0985
     40 C           6.6427   -2.0200   18.0896 C.ar    1  UNL1        0.0203
     41 C           5.6894   -3.1548   18.3209 C.ar    1  UNL1       -0.0015
     42 C           4.3418   -2.8911   18.9246 C.ar    1  UNL1       -0.0069
     43 C           3.3885   -4.0259   19.1558 C.3     1  UNL1        0.0323
@<TRIPOS>UNITY_ATOM_ATTR
34 1
charge -1
@<TRIPOS>BOND
     1    13    14    1
     2    14    15   ar
     3    15    16   ar
     4    16    17   ar
     5    17    18   ar
     6    18     1    1
     7     1     2   am
     8     2     3    2
     9     2     4   am
    10     4    20    1
    11    20    21   ar
    12    21    22   ar
    13    22    23   ar
    14    23    26    1
    15    26    27   ar
    16    27    28   ar
    17    28    29   ar
    18    29    33    1
    19    33    34   ar
    20    33    35   ar
    21    29    30   ar
    22    30    31   ar
    23    31    32    1
    24    23    24   ar
    25    24    25   ar
    26     4     5   am
    27     5     6    2
    28     5     7    1
    29     7     8    1
    30     8     9    1
    31     9    10    1
    32    10    36    1
    33    36    37    1
    34    37    38   ar
    35    38    39   ar
    36    39    40   ar
    37    40    41   ar
    38    41    42   ar
    39    42    43    1
    40    10    11    1
    41    11    12    1
    42    18    19   ar
    43    19    14   ar
    44     7     1    1
    45    42    37   ar
    46    25    20   ar
    47    12     7    1
    48    31    26   ar
