@<TRIPOS>MOLECULE
*****
 30 34 0 0 0
SMALL
GASTEIGER

@<TRIPOS>ATOM
      1 O           2.1680    1.0310   22.4200 O.2     1  UNL1       -0.2526
      2 C           1.6830    0.8089   23.8220 C.2     1  UNL1        0.3039
      3 N           2.3555   -0.2078   24.6960 N.am    1  UNL1       -0.2901
      4 N           0.5254    1.6035   24.3498 N.am    1  UNL1       -0.2642
      5 C          -0.1472    2.6202   23.4757 C.3     1  UNL1        0.0954
      6 C          -1.3048    3.4148   24.0036 C.3     1  UNL1        0.0309
      7 C          -1.7898    3.1926   25.4056 C.3     1  UNL1        0.0827
      8 C          -1.1172    2.1760   26.2796 C.3     1  UNL1        0.0309
      9 C           0.0404    1.3814   25.7517 C.3     1  UNL1        0.0954
     10 H           2.0372   -0.3535   25.6161 H       1  UNL1        0.1509
     11 C          -2.9474    3.9872   25.9335 C.ar    1  UNL1        0.2362
     12 N          -4.2387    4.2471   25.2159 N.ar    1  UNL1       -0.1907
     13 C          -5.1063    5.0819   26.1105 C.ar    1  UNL1        0.2048
     14 N          -4.3511    5.3380   27.3810 N.ar    1  UNL1       -0.0560
     15 O          -3.0169    4.6615   27.2716 O.2     1  UNL1       -0.3370
     16 C          -6.4867    5.5742   25.7908 C.ar    1  UNL1        0.0582
     17 C          -7.1249    5.2189   24.4807 C.ar    1  UNL1        0.0063
     18 C          -8.5053    5.7111   24.1608 C.ar    1  UNL1        0.0208
     19 C          -9.2474    6.5587   25.1512 C.ar    1  UNL1        0.0989
     20 N          -8.6092    6.9141   26.4613 N.ar    1  UNL1       -0.2422
     21 C          -7.2288    6.4218   26.7811 C.ar    1  UNL1        0.1020
     22 C           3.5131   -1.0023   24.1681 C.3     1  UNL1        0.0774
     23 C           4.8965   -1.5552   24.3427 C.3     1  UNL1        0.0259
     24 C           4.1347   -1.8257   23.0792 C.3     1  UNL1        0.0420
     25 C           4.0537   -2.4572   21.7210 C.ar    1  UNL1       -0.0208
     26 C           4.4002   -3.9060   21.5457 C.ar    1  UNL1       -0.0042
     27 C           4.3192   -4.5375   20.1875 C.ar    1  UNL1       -0.0003
     28 C           3.8916   -3.7202   19.0047 C.ar    1  UNL1       -0.0000
     29 C           3.5450   -2.2713   19.1800 C.ar    1  UNL1       -0.0003
     30 C           3.6261   -1.6399   20.5382 C.ar    1  UNL1       -0.0042
@<TRIPOS>BOND
     1     1     2    2
     2     2     3   am
     3     3    22    1
     4    22    23    1
     5    23    24    1
     6    24    25    1
     7    25    26   ar
     8    26    27   ar
     9    27    28   ar
    10    28    29   ar
    11    29    30   ar
    12     2     4   am
    13     4     5    1
    14     5     6    1
    15     6     7    1
    16     7    11    1
    17    11    12   ar
    18    12    13   ar
    19    13    16    1
    20    16    17   ar
    21    17    18   ar
    22    18    19   ar
    23    19    20   ar
    24    20    21   ar
    25    13    14   ar
    26    14    15   ar
    27     7     8    1
    28     8     9    1
    29    24    22    1
    30    30    25   ar
    31     9     4    1
    32    15    11   ar
    33    21    16   ar
    34     3    10    1
@<TRIPOS>MOLECULE
*****
 30 34 0 0 0
SMALL
GASTEIGER

@<TRIPOS>ATOM
      1 O          -0.9415    4.4654   19.6008 O.2     1  UNL1       -0.2526
      2 C          -0.9518    3.0383   20.0629 C.2     1  UNL1        0.3039
      3 N          -2.1079    2.5178   20.8644 N.am    1  UNL1       -0.2901
      4 N           0.1941    2.1318   19.7234 N.am    1  UNL1       -0.2642
      5 C           1.3502    2.6523   18.9218 C.3     1  UNL1        0.0954
      6 C           2.4961    1.7458   18.5823 C.3     1  UNL1        0.0309
      7 C           2.4858    0.3187   19.0443 C.3     1  UNL1        0.0827
      8 C           1.3297   -0.2018   19.8459 C.3     1  UNL1        0.0309
      9 C           0.1838    0.7048   20.1854 C.3     1  UNL1        0.0954
     10 H          -2.1146    1.5812   21.1677 H       1  UNL1        0.1509
     11 C           3.6316   -0.5878   18.7048 C.ar    1  UNL1        0.2362
     12 N           4.6316   -1.1456   19.6737 N.ar    1  UNL1       -0.1907
     13 C           5.5967   -1.9982   18.9045 C.ar    1  UNL1        0.2048
     14 N           5.1931   -1.9674   17.4602 N.ar    1  UNL1       -0.0560
     15 O           3.9786   -1.0957   17.3368 O.2     1  UNL1       -0.3370
     16 C           6.7609   -2.7497   19.4788 C.ar    1  UNL1        0.0582
     17 C           8.1609   -2.3680   19.0991 C.ar    1  UNL1        0.0063
     18 C           9.3252   -3.1194   19.6733 C.ar    1  UNL1        0.0208
     19 C           9.0894   -4.2526   20.6274 C.ar    1  UNL1        0.0989
     20 N           7.6894   -4.6343   21.0072 N.ar    1  UNL1       -0.2422
     21 C           6.5251   -3.8828   20.4329 C.ar    1  UNL1        0.1020
     22 C          -3.2537    3.4243   21.2039 C.3     1  UNL1        0.0774
     23 C          -4.3784    4.3156   20.7674 C.3     1  UNL1        0.0259
     24 C          -4.1136    4.1031   22.2285 C.3     1  UNL1        0.0420
     25 C          -4.4572    4.3723   23.6636 C.ar    1  UNL1       -0.0208
     26 C          -5.5752    5.3128   24.0035 C.ar    1  UNL1       -0.0042
     27 C          -5.9188    5.5819   25.4385 C.ar    1  UNL1       -0.0003
     28 C          -5.1443    4.9106   26.5338 C.ar    1  UNL1       -0.0000
     29 C          -4.0263    3.9701   26.1939 C.ar    1  UNL1       -0.0003
     30 C          -3.6828    3.7009   24.7589 C.ar    1  UNL1       -0.0042
@<TRIPOS>BOND
     1     1     2    2
     2     2     3   am
     3     3    22    1
     4    22    23    1
     5    23    24    1
     6    24    25    1
     7    25    26   ar
     8    26    27   ar
     9    27    28   ar
    10    28    29   ar
    11    29    30   ar
    12     2     4   am
    13     4     5    1
    14     5     6    1
    15     6     7    1
    16     7    11    1
    17    11    12   ar
    18    12    13   ar
    19    13    16    1
    20    16    17   ar
    21    17    18   ar
    22    18    19   ar
    23    19    20   ar
    24    20    21   ar
    25    13    14   ar
    26    14    15   ar
    27     7     8    1
    28     8     9    1
    29    24    22    1
    30    30    25   ar
    31     9     4    1
    32    15    11   ar
    33    21    16   ar
    34     3    10    1
@<TRIPOS>MOLECULE
*****
 30 34 0 0 0
SMALL
GASTEIGER

@<TRIPOS>ATOM
      1 O           4.2500   -1.1422   23.4793 O.2     1  UNL1       -0.2526
      2 C           4.4572   -1.6879   24.8611 C.2     1  UNL1        0.3039
      3 N           5.3700   -2.8586   25.0761 N.am    1  UNL1       -0.2901
      4 N           3.7516   -1.0629   26.0280 N.am    1  UNL1       -0.2642
      5 C           2.8388    0.1079   25.8130 C.3     1  UNL1        0.0954
      6 C           2.1332    0.7329   26.9798 C.3     1  UNL1        0.0309
      7 C           2.3404    0.1872   28.3616 C.3     1  UNL1        0.0827
      8 C           3.2532   -0.9836   28.5765 C.3     1  UNL1        0.0309
      9 C           3.9588   -1.6086   27.4097 C.3     1  UNL1        0.0954
     10 H           5.5060   -3.2168   25.9830 H       1  UNL1        0.1509
     11 C           1.6348    0.8122   29.5284 C.ar    1  UNL1        0.2362
     12 N           2.2884    1.5220   30.6769 N.ar    1  UNL1       -0.1907
     13 C           1.2092    1.9856   31.6099 C.ar    1  UNL1        0.2048
     14 N          -0.1113    1.5624   31.0381 N.ar    1  UNL1       -0.0560
     15 O           0.1517    0.8372   29.7516 O.2     1  UNL1       -0.3370
     16 C           1.4146    2.7401   32.8900 C.ar    1  UNL1        0.0582
     17 C           0.8618    4.1263   33.0405 C.ar    1  UNL1        0.0063
     18 C           1.0671    4.8809   34.3205 C.ar    1  UNL1        0.0208
     19 C           1.8253    4.2490   35.4502 C.ar    1  UNL1        0.0989
     20 N           2.3781    2.8628   35.2997 N.ar    1  UNL1       -0.2422
     21 C           2.1727    2.1083   34.0195 C.ar    1  UNL1        0.1020
     22 C           6.0756   -3.4836   23.9092 C.3     1  UNL1        0.0774
     23 C           7.1750   -4.3483   23.3673 C.3     1  UNL1        0.0259
     24 C           6.1984   -3.7015   22.4303 C.3     1  UNL1        0.0420
     25 C           5.7054   -3.4539   21.0353 C.ar    1  UNL1       -0.0208
     26 C           4.3163   -3.8653   20.6467 C.ar    1  UNL1       -0.0042
     27 C           3.8233   -3.6177   19.2519 C.ar    1  UNL1       -0.0003
     28 C           4.7195   -2.9587   18.2456 C.ar    1  UNL1       -0.0000
     29 C           6.1086   -2.5473   18.6342 C.ar    1  UNL1       -0.0003
     30 C           6.6015   -2.7949   20.0291 C.ar    1  UNL1       -0.0042
@<TRIPOS>BOND
     1     1     2    2
     2     2     3   am
     3     3    22    1
     4    22    23    1
     5    23    24    1
     6    24    25    1
     7    25    26   ar
     8    26    27   ar
     9    27    28   ar
    10    28    29   ar
    11    29    30   ar
    12     2     4   am
    13     4     5    1
    14     5     6    1
    15     6     7    1
    16     7    11    1
    17    11    12   ar
    18    12    13   ar
    19    13    16    1
    20    16    17   ar
    21    17    18   ar
    22    18    19   ar
    23    19    20   ar
    24    20    21   ar
    25    13    14   ar
    26    14    15   ar
    27     7     8    1
    28     8     9    1
    29    24    22    1
    30    30    25   ar
    31     9     4    1
    32    15    11   ar
    33    21    16   ar
    34     3    10    1
@<TRIPOS>MOLECULE
*****
 30 34 0 0 0
SMALL
GASTEIGER

@<TRIPOS>ATOM
      1 O           5.1324   -0.5972   24.9549 O.2     1  UNL1       -0.2526
      2 C           3.8776   -0.4810   25.7685 C.2     1  UNL1        0.3039
      3 N           2.5614   -0.2480   25.0879 N.am    1  UNL1       -0.2901
      4 N           3.9390   -0.5978   27.2626 N.am    1  UNL1       -0.2642
      5 C           5.2553   -0.8308   27.9432 C.3     1  UNL1        0.0954
      6 C           5.3168   -0.9477   29.4374 C.3     1  UNL1        0.0309
      7 C           4.0619   -0.8315   30.2510 C.3     1  UNL1        0.0827
      8 C           2.7457   -0.5985   29.5704 C.3     1  UNL1        0.0309
      9 C           2.6842   -0.4817   28.0762 C.3     1  UNL1        0.0954
     10 H           1.7378   -0.1718   25.6219 H       1  UNL1        0.1509
     11 C           4.1233   -0.9483   31.7452 C.ar    1  UNL1        0.2362
     12 N           4.5896    0.1155   32.6943 N.ar    1  UNL1       -0.1907
     13 C           4.4837   -0.4282   34.0883 C.ar    1  UNL1        0.2048
     14 N           3.9520   -1.8280   34.0007 N.ar    1  UNL1       -0.0560
     15 O           3.7293   -2.1495   32.5526 O.2     1  UNL1       -0.3370
     16 C           4.8460    0.3002   35.3486 C.ar    1  UNL1        0.0582
     17 C           6.0853   -0.0786   36.1039 C.ar    1  UNL1        0.0063
     18 C           6.4477    0.6497   37.3642 C.ar    1  UNL1        0.0208
     19 C           5.5705    1.7568   37.8692 C.ar    1  UNL1        0.0989
     20 N           4.3312    2.1355   37.1139 N.ar    1  UNL1       -0.2422
     21 C           3.9689    1.4072   35.8535 C.ar    1  UNL1        0.1020
     22 C           2.4999   -0.1312   23.5937 C.3     1  UNL1        0.0774
     23 C           2.0829    0.6225   22.3657 C.3     1  UNL1        0.0259
     24 C           2.8105   -0.6826   22.2338 C.3     1  UNL1        0.0420
     25 C           3.4100   -1.7544   21.3724 C.ar    1  UNL1       -0.0208
     26 C           4.3443   -2.7632   21.9718 C.ar    1  UNL1       -0.0042
     27 C           4.9438   -3.8349   21.1104 C.ar    1  UNL1       -0.0003
     28 C           4.6089   -3.8979   19.6497 C.ar    1  UNL1       -0.0000
     29 C           3.6746   -2.8891   19.0502 C.ar    1  UNL1       -0.0003
     30 C           3.0751   -1.8173   19.9116 C.ar    1  UNL1       -0.0042
@<TRIPOS>BOND
     1     1     2    2
     2     2     3   am
     3     3    22    1
     4    22    23    1
     5    23    24    1
     6    24    25    1
     7    25    26   ar
     8    26    27   ar
     9    27    28   ar
    10    28    29   ar
    11    29    30   ar
    12     2     4   am
    13     4     5    1
    14     5     6    1
    15     6     7    1
    16     7    11    1
    17    11    12   ar
    18    12    13   ar
    19    13    16    1
    20    16    17   ar
    21    17    18   ar
    22    18    19   ar
    23    19    20   ar
    24    20    21   ar
    25    13    14   ar
    26    14    15   ar
    27     7     8    1
    28     8     9    1
    29    24    22    1
    30    30    25   ar
    31     9     4    1
    32    15    11   ar
    33    21    16   ar
    34     3    10    1
@<TRIPOS>MOLECULE
*****
 30 34 0 0 0
SMALL
GASTEIGER

@<TRIPOS>ATOM
      1 O          -1.7153    3.5582   19.2896 O.2     1  UNL1       -0.2526
      2 C          -1.0520    2.7267   20.3474 C.2     1  UNL1        0.3039
      3 N          -1.5592    2.7643   21.7585 N.am    1  UNL1       -0.2901
      4 N           0.1184    1.8576   19.9939 N.am    1  UNL1       -0.2642
      5 C           0.6255    1.8201   18.5827 C.3     1  UNL1        0.0954
      6 C           1.7959    0.9511   18.2292 C.3     1  UNL1        0.0309
      7 C           2.4591    0.1195   19.2870 C.3     1  UNL1        0.0827
      8 C           1.9520    0.1571   20.6981 C.3     1  UNL1        0.0309
      9 C           0.7816    1.0262   21.0516 C.3     1  UNL1        0.0954
     10 H          -1.1239    2.2185   22.4527 H       1  UNL1        0.1509
     11 C           3.6295   -0.7495   18.9335 C.ar    1  UNL1        0.2362
     12 N           4.6324   -1.3125   19.8965 N.ar    1  UNL1       -0.1907
     13 C           5.6252   -2.1191   19.1132 C.ar    1  UNL1        0.2048
     14 N           5.2360   -2.0546   17.6660 N.ar    1  UNL1       -0.0560
     15 O           4.0026   -1.2082   17.5550 O.2     1  UNL1       -0.3370
     16 C           6.8008   -2.8600   19.6779 C.ar    1  UNL1        0.0582
     17 C           8.1948   -2.4517   19.3036 C.ar    1  UNL1        0.0063
     18 C           9.3705   -3.1926   19.8683 C.ar    1  UNL1        0.0208
     19 C           9.1522   -4.3419   20.8072 C.ar    1  UNL1        0.0989
     20 N           7.7582   -4.7502   21.1814 N.ar    1  UNL1       -0.2422
     21 C           6.5825   -4.0092   20.6167 C.ar    1  UNL1        0.1020
     22 C          -2.7296    3.6333   22.1120 C.3     1  UNL1        0.0774
     23 C          -3.4202    4.5542   23.0737 C.3     1  UNL1        0.0259
     24 C          -4.0661    4.2176   21.7624 C.3     1  UNL1        0.0420
     25 C          -5.2107    4.3607   20.8034 C.ar    1  UNL1       -0.0208
     26 C          -6.1602    5.5144   20.9357 C.ar    1  UNL1       -0.0042
     27 C          -7.3047    5.6574   19.9768 C.ar    1  UNL1       -0.0003
     28 C          -7.4997    4.6468   18.8856 C.ar    1  UNL1       -0.0000
     29 C          -6.5502    3.4932   18.7533 C.ar    1  UNL1       -0.0003
     30 C          -5.4057    3.3501   19.7123 C.ar    1  UNL1       -0.0042
@<TRIPOS>BOND
     1     1     2    2
     2     2     3   am
     3     3    22    1
     4    22    23    1
     5    23    24    1
     6    24    25    1
     7    25    26   ar
     8    26    27   ar
     9    27    28   ar
    10    28    29   ar
    11    29    30   ar
    12     2     4   am
    13     4     5    1
    14     5     6    1
    15     6     7    1
    16     7    11    1
    17    11    12   ar
    18    12    13   ar
    19    13    16    1
    20    16    17   ar
    21    17    18   ar
    22    18    19   ar
    23    19    20   ar
    24    20    21   ar
    25    13    14   ar
    26    14    15   ar
    27     7     8    1
    28     8     9    1
    29    24    22    1
    30    30    25   ar
    31     9     4    1
    32    15    11   ar
    33    21    16   ar
    34     3    10    1
@<TRIPOS>MOLECULE
*****
 30 34 0 0 0
SMALL
GASTEIGER

@<TRIPOS>ATOM
      1 O           5.9744    2.2944   35.0513 O.2     1  UNL1       -0.2526
      2 C           4.9470    1.2182   34.8605 C.2     1  UNL1        0.3039
      3 N           3.5603    1.4006   35.4024 N.am    1  UNL1       -0.2901
      4 N           5.3064   -0.0404   34.1278 N.am    1  UNL1       -0.2642
      5 C           6.6933   -0.2227   33.5859 C.3     1  UNL1        0.0954
      6 C           7.0527   -1.4813   32.8533 C.3     1  UNL1        0.0309
      7 C           6.0253   -2.5575   32.6625 C.3     1  UNL1        0.0827
      8 C           4.6386   -2.3751   33.2044 C.3     1  UNL1        0.0309
      9 C           4.2791   -1.1165   33.9371 C.3     1  UNL1        0.0954
     10 H           2.8860    0.6943   35.2772 H       1  UNL1        0.1509
     11 C           6.3847   -3.8161   31.9298 C.ar    1  UNL1        0.2362
     12 N           6.6973   -3.9260   30.4669 N.ar    1  UNL1       -0.1907
     13 C           7.0004   -5.3636   30.1644 C.ar    1  UNL1        0.2048
     14 N           6.8752   -6.1422   31.4404 N.ar    1  UNL1       -0.0560
     15 O           6.4946   -5.1858   32.5315 O.2     1  UNL1       -0.3370
     16 C           7.3648   -5.9241   28.8216 C.ar    1  UNL1        0.0582
     17 C           6.5357   -5.5868   27.6180 C.ar    1  UNL1        0.0063
     18 C           6.9000   -6.1473   26.2752 C.ar    1  UNL1        0.0208
     19 C           8.0935   -7.0452   26.1361 C.ar    1  UNL1        0.0989
     20 N           8.9226   -7.3825   27.3397 N.ar    1  UNL1       -0.2422
     21 C           8.5583   -6.8220   28.6825 C.ar    1  UNL1        0.1020
     22 C           3.2009    2.6592   36.1351 C.3     1  UNL1        0.0774
     23 C           3.3935    3.5842   37.3000 C.3     1  UNL1        0.0259
     24 C           2.3857    3.9140   36.2391 C.3     1  UNL1        0.0420
     25 C           1.3332    4.8289   35.6866 C.ar    1  UNL1       -0.0208
     26 C           1.0009    4.7933   34.2243 C.ar    1  UNL1       -0.0042
     27 C          -0.0516    5.7082   33.6719 C.ar    1  UNL1       -0.0003
     28 C          -0.7718    6.6587   34.5818 C.ar    1  UNL1       -0.0000
     29 C          -0.4396    6.6943   36.0440 C.ar    1  UNL1       -0.0003
     30 C           0.6129    5.7794   36.5965 C.ar    1  UNL1       -0.0042
@<TRIPOS>BOND
     1     1     2    2
     2     2     3   am
     3     3    22    1
     4    22    23    1
     5    23    24    1
     6    24    25    1
     7    25    26   ar
     8    26    27   ar
     9    27    28   ar
    10    28    29   ar
    11    29    30   ar
    12     2     4   am
    13     4     5    1
    14     5     6    1
    15     6     7    1
    16     7    11    1
    17    11    12   ar
    18    12    13   ar
    19    13    16    1
    20    16    17   ar
    21    17    18   ar
    22    18    19   ar
    23    19    20   ar
    24    20    21   ar
    25    13    14   ar
    26    14    15   ar
    27     7     8    1
    28     8     9    1
    29    24    22    1
    30    30    25   ar
    31     9     4    1
    32    15    11   ar
    33    21    16   ar
    34     3    10    1
@<TRIPOS>MOLECULE
*****
 30 34 0 0 0
SMALL
GASTEIGER

@<TRIPOS>ATOM
      1 O           2.8570   -0.0478   23.6836 O.2     1  UNL1       -0.2526
      2 C           3.4320   -0.9153   24.7639 C.2     1  UNL1        0.3039
      3 N           4.1871   -2.1603   24.4037 N.am    1  UNL1       -0.2901
      4 N           3.2519   -0.5377   26.2044 N.am    1  UNL1       -0.2642
      5 C           2.4968    0.7074   26.5646 C.3     1  UNL1        0.0954
      6 C           2.3166    1.0850   28.0051 C.3     1  UNL1        0.0309
      7 C           2.8916    0.2175   29.0853 C.3     1  UNL1        0.0827
      8 C           3.6467   -1.0275   28.7251 C.3     1  UNL1        0.0309
      9 C           3.8268   -1.4051   27.2846 C.3     1  UNL1        0.0954
     10 H           4.5645   -2.7296   25.1127 H       1  UNL1        0.1509
     11 C           2.7114    0.5950   30.5258 C.ar    1  UNL1        0.2362
     12 N           3.6852    0.3293   31.6354 N.ar    1  UNL1       -0.1907
     13 C           3.1015    0.8747   32.9050 C.ar    1  UNL1        0.2048
     14 N           1.7669    1.4775   32.5801 N.ar    1  UNL1       -0.0560
     15 O           1.5259    1.3046   31.1097 O.2     1  UNL1       -0.3370
     16 C           3.7402    0.8258   34.2613 C.ar    1  UNL1        0.0582
     17 C           4.6823   -0.2891   34.6069 C.ar    1  UNL1        0.0063
     18 C           5.3211   -0.3381   35.9632 C.ar    1  UNL1        0.0208
     19 C           5.0177    0.7280   36.9739 C.ar    1  UNL1        0.0989
     20 N           4.0757    1.8429   36.6283 N.ar    1  UNL1       -0.2422
     21 C           3.4369    1.8918   35.2720 C.ar    1  UNL1        0.1020
     22 C           4.3672   -2.5378   22.9632 C.3     1  UNL1        0.0774
     23 C           4.9184   -3.4676   21.9232 C.3     1  UNL1        0.0259
     24 C           4.1281   -2.2620   21.5083 C.3     1  UNL1        0.0420
     25 C           3.5338   -1.4067   20.4288 C.ar    1  UNL1       -0.0208
     26 C           4.3816   -0.9575   19.2758 C.ar    1  UNL1       -0.0042
     27 C           3.7873   -0.1022   18.1964 C.ar    1  UNL1       -0.0003
     28 C           2.3452    0.3039   18.2700 C.ar    1  UNL1       -0.0000
     29 C           1.4974   -0.1453   19.4229 C.ar    1  UNL1       -0.0003
     30 C           2.0917   -1.0006   20.5024 C.ar    1  UNL1       -0.0042
@<TRIPOS>BOND
     1     1     2    2
     2     2     3   am
     3     3    22    1
     4    22    23    1
     5    23    24    1
     6    24    25    1
     7    25    26   ar
     8    26    27   ar
     9    27    28   ar
    10    28    29   ar
    11    29    30   ar
    12     2     4   am
    13     4     5    1
    14     5     6    1
    15     6     7    1
    16     7    11    1
    17    11    12   ar
    18    12    13   ar
    19    13    16    1
    20    16    17   ar
    21    17    18   ar
    22    18    19   ar
    23    19    20   ar
    24    20    21   ar
    25    13    14   ar
    26    14    15   ar
    27     7     8    1
    28     8     9    1
    29    24    22    1
    30    30    25   ar
    31     9     4    1
    32    15    11   ar
    33    21    16   ar
    34     3    10    1
@<TRIPOS>MOLECULE
*****
 30 34 0 0 0
SMALL
GASTEIGER

@<TRIPOS>ATOM
      1 O           3.4567    0.3755   22.5314 O.2     1  UNL1       -0.2526
      2 C           2.0332    0.6717   22.9005 C.2     1  UNL1        0.3039
      3 N           0.9870    0.7749   21.8307 N.am    1  UNL1       -0.2901
      4 N           1.6562    0.8648   24.3394 N.am    1  UNL1       -0.2642
      5 C           2.7026    0.7616   25.4093 C.3     1  UNL1        0.0954
      6 C           2.3255    0.9547   26.8482 C.3     1  UNL1        0.0309
      7 C           0.9020    1.2509   27.2173 C.3     1  UNL1        0.0827
      8 C          -0.1442    1.3540   26.1475 C.3     1  UNL1        0.0309
      9 C           0.2328    1.1610   24.7085 C.3     1  UNL1        0.0954
     10 H           0.0527    0.9693   22.0729 H       1  UNL1        0.1509
     11 C           0.5250    1.4440   28.6563 C.ar    1  UNL1        0.2362
     12 N           1.2622    2.2852   29.6557 N.ar    1  UNL1       -0.1907
     13 C           0.5373    2.1908   30.9655 C.ar    1  UNL1        0.2048
     14 N          -0.6479    1.2913   30.7756 N.ar    1  UNL1       -0.0560
     15 O          -0.6555    0.8297   29.3484 O.2     1  UNL1       -0.3370
     16 C           0.9289    2.8757   32.2413 C.ar    1  UNL1        0.0582
     17 C           0.4126    4.2513   32.5430 C.ar    1  UNL1        0.0063
     18 C           0.8041    4.9364   33.8187 C.ar    1  UNL1        0.0208
     19 C           1.7121    4.2457   34.7927 C.ar    1  UNL1        0.0989
     20 N           2.2285    2.8701   34.4909 N.ar    1  UNL1       -0.2422
     21 C           1.8369    2.1851   33.2152 C.ar    1  UNL1        0.1020
     22 C           1.3640    0.5818   20.3917 C.3     1  UNL1        0.0774
     23 C           1.1647    0.9088   18.9415 C.3     1  UNL1        0.0259
     24 C           2.2165   -0.0796   19.3497 C.3     1  UNL1        0.0420
     25 C           3.3159   -1.0322   18.9838 C.ar    1  UNL1       -0.0208
     26 C           3.2574   -2.4581   19.4455 C.ar    1  UNL1       -0.0042
     27 C           4.3568   -3.4107   19.0796 C.ar    1  UNL1       -0.0003
     28 C           5.5148   -2.9372   18.2520 C.ar    1  UNL1       -0.0000
     29 C           5.5733   -1.5113   17.7903 C.ar    1  UNL1       -0.0003
     30 C           4.4739   -0.5588   18.1562 C.ar    1  UNL1       -0.0042
@<TRIPOS>BOND
     1     1     2    2
     2     2     3   am
     3     3    22    1
     4    22    23    1
     5    23    24    1
     6    24    25    1
     7    25    26   ar
     8    26    27   ar
     9    27    28   ar
    10    28    29   ar
    11    29    30   ar
    12     2     4   am
    13     4     5    1
    14     5     6    1
    15     6     7    1
    16     7    11    1
    17    11    12   ar
    18    12    13   ar
    19    13    16    1
    20    16    17   ar
    21    17    18   ar
    22    18    19   ar
    23    19    20   ar
    24    20    21   ar
    25    13    14   ar
    26    14    15   ar
    27     7     8    1
    28     8     9    1
    29    24    22    1
    30    30    25   ar
    31     9     4    1
    32    15    11   ar
    33    21    16   ar
    34     3    10    1
@<TRIPOS>MOLECULE
*****
 30 34 0 0 0
SMALL
GASTEIGER

@<TRIPOS>ATOM
      1 O           3.3710   -1.3742   23.2995 O.2     1  UNL1       -0.2526
      2 C           4.4958   -2.2798   23.7055 C.2     1  UNL1        0.3039
      3 N           5.1053   -3.2146   22.7032 N.am    1  UNL1       -0.2901
      4 N           5.0111   -2.2505   25.1140 N.am    1  UNL1       -0.2642
      5 C           4.4016   -1.3156   26.1163 C.3     1  UNL1        0.0954
      6 C           4.9169   -1.2863   27.5247 C.3     1  UNL1        0.0309
      7 C           6.0417   -2.1919   27.9308 C.3     1  UNL1        0.0827
      8 C           6.6512   -3.1267   26.9285 C.3     1  UNL1        0.0309
      9 C           6.1359   -3.1560   25.5200 C.3     1  UNL1        0.0954
     10 H           5.8435   -3.8089   22.9698 H       1  UNL1        0.1509
     11 C           6.5570   -2.1626   29.3392 C.ar    1  UNL1        0.2362
     12 N           5.8955   -1.4916   30.5063 N.ar    1  UNL1       -0.1907
     13 C           6.7539   -1.7135   31.7162 C.ar    1  UNL1        0.2048
     14 N           7.9460   -2.5216   31.2969 N.ar    1  UNL1       -0.0560
     15 O           7.8243   -2.7992   29.8278 O.2     1  UNL1       -0.3370
     16 C           6.4701   -1.2148   33.1021 C.ar    1  UNL1        0.0582
     17 C           5.0794   -1.2962   33.6583 C.ar    1  UNL1        0.0063
     18 C           4.7955   -0.7975   35.0442 C.ar    1  UNL1        0.0208
     19 C           5.9023   -0.2174   35.8739 C.ar    1  UNL1        0.0989
     20 N           7.2930   -0.1360   35.3177 N.ar    1  UNL1       -0.2422
     21 C           7.5769   -0.6347   33.9318 C.ar    1  UNL1        0.1020
     22 C           4.5900   -3.2439   21.2948 C.3     1  UNL1        0.0774
     23 C           4.4567   -3.9433   19.9746 C.3     1  UNL1        0.0259
     24 C           3.8307   -2.5951   20.1756 C.3     1  UNL1        0.0420
     25 C           3.0309   -1.4421   19.6455 C.ar    1  UNL1       -0.0208
     26 C           1.7134   -1.0925   20.2715 C.ar    1  UNL1       -0.0042
     27 C           0.9137    0.0604   19.7413 C.ar    1  UNL1       -0.0003
     28 C           1.4315    0.8638   18.5853 C.ar    1  UNL1       -0.0000
     29 C           2.7490    0.5142   17.9593 C.ar    1  UNL1       -0.0003
     30 C           3.5487   -0.6387   18.4895 C.ar    1  UNL1       -0.0042
@<TRIPOS>BOND
     1     1     2    2
     2     2     3   am
     3     3    22    1
     4    22    23    1
     5    23    24    1
     6    24    25    1
     7    25    26   ar
     8    26    27   ar
     9    27    28   ar
    10    28    29   ar
    11    29    30   ar
    12     2     4   am
    13     4     5    1
    14     5     6    1
    15     6     7    1
    16     7    11    1
    17    11    12   ar
    18    12    13   ar
    19    13    16    1
    20    16    17   ar
    21    17    18   ar
    22    18    19   ar
    23    19    20   ar
    24    20    21   ar
    25    13    14   ar
    26    14    15   ar
    27     7     8    1
    28     8     9    1
    29    24    22    1
    30    30    25   ar
    31     9     4    1
    32    15    11   ar
    33    21    16   ar
    34     3    10    1
