@<TRIPOS>MOLECULE
*****
 38 41 0 0 0
SMALL
GASTEIGER

@<TRIPOS>ATOM
      1 C           5.3654   -2.3713   19.2923 C.ar    1  UNL1        0.0611
      2 C           5.9032   -1.5848   18.1338 C.ar    1  UNL1        0.1037
      3 N           7.3971   -1.7208   18.1350 N.ar    1  UNL1       -0.2269
      4 C           7.7824   -2.5913   19.2942 C.ar    1  UNL1        0.1407
      5 N           9.1145   -3.0697   19.7908 N.ar    1  UNL1       -0.3374
      6 C           9.1908   -3.9502   21.0027 C.ar    1  UNL1        0.0734
      7 C           7.9352   -4.3523   21.7180 C.ar    1  UNL1        0.0171
      8 C           6.6031   -3.8738   21.2214 C.ar    1  UNL1        0.0046
      9 C           6.5268   -2.9933   20.0095 C.ar    1  UNL1        0.0386
     10 H           9.9386   -2.8058   19.3213 H       1  UNL1        0.1674
     11 C           8.0116   -5.2329   22.9300 C.ar    1  UNL1        0.0015
     12 C           7.4439   -4.7620   24.2362 C.ar    1  UNL1        0.0014
     13 C           7.5204   -5.6426   25.4481 C.ar    1  UNL1        0.0183
     14 C           8.1644   -6.9940   25.3539 C.ar    1  UNL1        0.1057
     15 C           8.7321   -7.4648   24.0477 C.ar    1  UNL1        0.0183
     16 C           8.6557   -6.5843   22.8358 C.ar    1  UNL1        0.0014
     17 S           8.2409   -7.8745   26.5658 S.O2    1  UNL1        0.0104
     18 C           8.3173   -8.7551   27.7777 C.3     1  UNL1        0.1816
     19 O           9.5303   -7.2181   26.9614 O.2     1  UNL1       -0.1686
     20 O           6.9515   -8.5309   26.1702 O.2     1  UNL1       -0.1686
     21 C           3.9199   -2.5112   19.6678 C.2     1  UNL1        0.2015
     22 O           3.1500   -3.7278   19.2469 O.2     1  UNL1       -0.2864
     23 C           2.6056   -0.3985   22.7596 C.ar    1  UNL1        0.0920
     24 C           1.8930    0.7189   22.0570 C.ar    1  UNL1        0.0204
     25 C           1.8560    0.7595   20.5580 C.ar    1  UNL1        0.0312
     26 C           2.5316   -0.3171   19.7616 C.ar    1  UNL1        0.1454
     27 F           2.4946   -0.2764   18.2626 F       1  UNL1       -0.2040
     28 C           3.2442   -1.4345   20.4642 C.ar    1  UNL1        0.0951
     29 C           3.2812   -1.4751   21.9632 C.ar    1  UNL1        0.1598
     30 F           3.9939   -2.5926   22.6657 F       1  UNL1       -0.2026
     31 N           2.6426   -0.4392   24.2586 N.pl3   1  UNL1       -0.2166
     32 H           1.8122   -0.5816   24.7678 H       1  UNL1        0.1734
     33 S           3.9449   -0.2628   24.9817 S.O2    1  UNL1        0.0540
     34 O           3.7883   -1.6225   25.5954 O.2     1  UNL1       -0.1545
     35 O           4.1015    1.0970   24.3680 O.2     1  UNL1       -0.1545
     36 C           5.2472   -0.0863   25.7048 C.3     1  UNL1        0.1724
     37 C           6.7287   -1.0926   23.8226 C.3     1  UNL1        0.0019
     38 C           6.5383   -0.1120   24.9416 C.3     1  UNL1        0.0273
@<TRIPOS>BOND
     1    37    38    1
     2    38    36    1
     3    36    33    1
     4    33    34    2
     5    33    35    2
     6    33    31    1
     7    31    23    1
     8    23    24   ar
     9    24    25   ar
    10    25    26   ar
    11    26    27    1
    12    26    28   ar
    13    28    21    1
    14    21    22    2
    15    21     1    1
    16     1     2   ar
    17     2     3   ar
    18     3     4   ar
    19     4     5   ar
    20     5     6   ar
    21     6     7   ar
    22     7    11    1
    23    11    12   ar
    24    12    13   ar
    25    13    14   ar
    26    14    17    1
    27    17    18    1
    28    17    19    2
    29    17    20    2
    30    14    15   ar
    31    15    16   ar
    32     7     8   ar
    33     8     9   ar
    34    28    29   ar
    35    29    30    1
    36    29    23   ar
    37     9     1   ar
    38     9     4    1
    39    16    11   ar
    40    31    32    1
    41     5    10    1
@<TRIPOS>MOLECULE
*****
 38 41 0 0 0
SMALL
GASTEIGER

@<TRIPOS>ATOM
      1 C           4.9792   -3.3068   22.5549 C.ar    1  UNL1        0.0611
      2 C           6.0449   -3.9137   23.4186 C.ar    1  UNL1        0.1037
      3 N           6.0586   -3.1762   24.7248 N.ar    1  UNL1       -0.2269
      4 C           5.0014   -2.1137   24.6683 C.ar    1  UNL1        0.1407
      5 N           4.5600   -1.0831   25.6648 N.ar    1  UNL1       -0.3374
      6 C           3.4514   -0.1332   25.3201 C.ar    1  UNL1        0.0734
      7 C           2.7843   -0.2139   23.9791 C.ar    1  UNL1        0.0171
      8 C           3.2257   -1.2445   22.9826 C.ar    1  UNL1        0.0046
      9 C           4.3343   -2.1944   23.3273 C.ar    1  UNL1        0.0386
     10 H           4.9978   -1.0301   26.5449 H       1  UNL1        0.1674
     11 C           1.6757    0.7361   23.6345 C.ar    1  UNL1        0.0015
     12 C           1.2697    0.9274   22.2033 C.ar    1  UNL1        0.0014
     13 C           0.1611    1.8773   21.8587 C.ar    1  UNL1        0.0183
     14 C          -0.5414    2.6360   22.9454 C.ar    1  UNL1        0.1057
     15 C          -0.1353    2.4446   24.3767 C.ar    1  UNL1        0.0183
     16 C           0.9732    1.4947   24.7212 C.ar    1  UNL1        0.0014
     17 S          -1.6500    3.5859   22.6009 S.O2    1  UNL1        0.0104
     18 C          -2.7585    4.5358   22.2563 C.3     1  UNL1        0.1816
     19 O          -1.4155    4.3252   23.8847 O.2     1  UNL1       -0.1686
     20 O          -1.8844    2.8466   21.3170 O.2     1  UNL1       -0.1686
     21 C           4.6213   -3.7370   21.1632 C.2     1  UNL1        0.2015
     22 O           3.9109   -5.0390   20.9399 O.2     1  UNL1       -0.2864
     23 C           4.2747   -1.1357   18.1860 C.ar    1  UNL1        0.0920
     24 C           5.6785   -1.1208   17.6577 C.ar    1  UNL1        0.0204
     25 C           6.7299   -1.9780   18.2979 C.ar    1  UNL1        0.0312
     26 C           6.3775   -2.8500   19.4664 C.ar    1  UNL1        0.1454
     27 F           7.4289   -3.7072   20.1066 F       1  UNL1       -0.2040
     28 C           4.9737   -2.8649   19.9947 C.ar    1  UNL1        0.0951
     29 C           3.9223   -2.0077   19.3545 C.ar    1  UNL1        0.1598
     30 F           2.5185   -2.0226   19.8829 F       1  UNL1       -0.2026
     31 N           3.2233   -0.2785   17.5459 N.pl3   1  UNL1       -0.2166
     32 H           2.8419   -0.5351   16.6753 H       1  UNL1        0.1734
     33 S           2.7531    0.9697   18.2321 S.O2    1  UNL1        0.0540
     34 O           4.1466    1.5225   18.1815 O.2     1  UNL1       -0.1545
     35 O           1.3596    0.4169   18.2827 O.2     1  UNL1       -0.1545
     36 C           2.2828    2.2178   18.9183 C.3     1  UNL1        0.1724
     37 C           0.6544    4.2401   19.0129 C.3     1  UNL1        0.0019
     38 C           1.0213    2.8921   18.4667 C.3     1  UNL1        0.0273
@<TRIPOS>BOND
     1    37    38    1
     2    38    36    1
     3    36    33    1
     4    33    34    2
     5    33    35    2
     6    33    31    1
     7    31    23    1
     8    23    24   ar
     9    24    25   ar
    10    25    26   ar
    11    26    27    1
    12    26    28   ar
    13    28    21    1
    14    21    22    2
    15    21     1    1
    16     1     2   ar
    17     2     3   ar
    18     3     4   ar
    19     4     5   ar
    20     5     6   ar
    21     6     7   ar
    22     7    11    1
    23    11    12   ar
    24    12    13   ar
    25    13    14   ar
    26    14    17    1
    27    17    18    1
    28    17    19    2
    29    17    20    2
    30    14    15   ar
    31    15    16   ar
    32     7     8   ar
    33     8     9   ar
    34    28    29   ar
    35    29    30    1
    36    29    23   ar
    37     9     1   ar
    38     9     4    1
    39    16    11   ar
    40    31    32    1
    41     5    10    1
@<TRIPOS>MOLECULE
*****
 38 41 0 0 0
SMALL
GASTEIGER

@<TRIPOS>ATOM
      1 C           0.4764    1.8696   22.9861 C.ar    1  UNL1        0.0611
      2 C          -0.2977    2.4749   24.1194 C.ar    1  UNL1        0.1037
      3 N           0.2869    1.9663   25.4038 N.ar    1  UNL1       -0.2269
      4 C           1.4223    1.0468   25.0643 C.ar    1  UNL1        0.1407
      5 N           2.3647    0.2561   25.9226 N.ar    1  UNL1       -0.3374
      6 C           3.4242   -0.5942   25.2868 C.ar    1  UNL1        0.0734
      7 C           3.5413   -0.6539   23.7926 C.ar    1  UNL1        0.0171
      8 C           2.5990    0.1367   22.9342 C.ar    1  UNL1        0.0046
      9 C           1.5395    0.9870   23.5700 C.ar    1  UNL1        0.0386
     10 H           2.2878    0.2954   26.9034 H       1  UNL1        0.1674
     11 C           4.6009   -1.5044   23.1567 C.ar    1  UNL1        0.0015
     12 C           5.5729   -0.8941   22.1909 C.ar    1  UNL1        0.0014
     13 C           6.6324   -1.7445   21.5551 C.ar    1  UNL1        0.0183
     14 C           6.7199   -3.2052   21.8851 C.ar    1  UNL1        0.1057
     15 C           5.7479   -3.8154   22.8510 C.ar    1  UNL1        0.0183
     16 C           4.6884   -2.9650   23.4867 C.ar    1  UNL1        0.0014
     17 S           7.7794   -4.0556   21.2493 S.O2    1  UNL1        0.0104
     18 C           8.8389   -4.9060   20.6136 C.3     1  UNL1        0.1816
     19 O           7.8914   -3.0729   20.1216 O.2     1  UNL1       -0.1686
     20 O           7.6674   -5.0382   22.3771 O.2     1  UNL1       -0.1686
     21 C           0.2307    2.1056   21.5253 C.2     1  UNL1        0.2015
     22 O          -1.1654    2.3339   21.0269 O.2     1  UNL1       -0.2864
     23 C           2.6789    1.0138   18.5988 C.ar    1  UNL1        0.0920
     24 C           3.6822    2.1282   18.6380 C.ar    1  UNL1        0.0204
     25 C           3.5350    3.2350   19.6396 C.ar    1  UNL1        0.0312
     26 C           2.3845    3.2275   20.6020 C.ar    1  UNL1        0.1454
     27 F           2.2373    4.3344   21.6036 F       1  UNL1       -0.2040
     28 C           1.3813    2.1131   20.5628 C.ar    1  UNL1        0.0951
     29 C           1.5285    1.0063   19.5612 C.ar    1  UNL1        0.1598
     30 F           0.5251   -0.1081   19.5221 F       1  UNL1       -0.2026
     31 N           2.8262   -0.0930   17.5972 N.pl3   1  UNL1       -0.2166
     32 H           2.2815   -0.0905   16.7771 H       1  UNL1        0.1734
     33 S           3.8033   -1.2038   17.8451 S.O2    1  UNL1        0.0540
     34 O           3.3672   -1.2674   19.2789 O.2     1  UNL1       -0.1545
     35 O           4.2394   -1.1402   16.4113 O.2     1  UNL1       -0.1545
     36 C           4.7804   -2.3145   18.0929 C.3     1  UNL1        0.1724
     37 C           4.7562   -4.8345   18.7251 C.3     1  UNL1        0.0019
     38 C           4.4434   -3.4071   19.0639 C.3     1  UNL1        0.0273
@<TRIPOS>BOND
     1    37    38    1
     2    38    36    1
     3    36    33    1
     4    33    34    2
     5    33    35    2
     6    33    31    1
     7    31    23    1
     8    23    24   ar
     9    24    25   ar
    10    25    26   ar
    11    26    27    1
    12    26    28   ar
    13    28    21    1
    14    21    22    2
    15    21     1    1
    16     1     2   ar
    17     2     3   ar
    18     3     4   ar
    19     4     5   ar
    20     5     6   ar
    21     6     7   ar
    22     7    11    1
    23    11    12   ar
    24    12    13   ar
    25    13    14   ar
    26    14    17    1
    27    17    18    1
    28    17    19    2
    29    17    20    2
    30    14    15   ar
    31    15    16   ar
    32     7     8   ar
    33     8     9   ar
    34    28    29   ar
    35    29    30    1
    36    29    23   ar
    37     9     1   ar
    38     9     4    1
    39    16    11   ar
    40    31    32    1
    41     5    10    1
@<TRIPOS>MOLECULE
*****
 38 41 0 0 0
SMALL
GASTEIGER

@<TRIPOS>ATOM
      1 C           0.3386    2.4257   22.6018 C.ar    1  UNL1        0.0611
      2 C          -0.7552    2.9250   21.7051 C.ar    1  UNL1        0.1037
      3 N          -0.8055    2.0374   20.4969 N.ar    1  UNL1       -0.2269
      4 C           0.2573    0.9896   20.6469 C.ar    1  UNL1        0.1407
      5 N           0.6725   -0.1521   19.7670 N.ar    1  UNL1       -0.3374
      6 C           1.7949   -1.0537   20.1881 C.ar    1  UNL1        0.0734
      7 C           2.5020   -0.8137   21.4890 C.ar    1  UNL1        0.0171
      8 C           2.0868    0.3279   22.3689 C.ar    1  UNL1        0.0046
      9 C           0.9644    1.2295   21.9478 C.ar    1  UNL1        0.0386
     10 H           0.2084   -0.3096   18.9132 H       1  UNL1        0.1674
     11 C           3.6244   -1.7155   21.9100 C.ar    1  UNL1        0.0015
     12 C           4.3443   -2.5442   20.8878 C.ar    1  UNL1        0.0014
     13 C           5.4667   -3.4460   21.3088 C.ar    1  UNL1        0.0183
     14 C           5.8692   -3.5188   22.7520 C.ar    1  UNL1        0.1057
     15 C           5.1492   -2.6900   23.7742 C.ar    1  UNL1        0.0183
     16 C           4.0269   -1.7883   23.3531 C.ar    1  UNL1        0.0014
     17 S           6.9915   -4.4205   23.1730 S.O2    1  UNL1        0.0104
     18 C           8.1139   -5.3222   23.5940 C.3     1  UNL1        0.1816
     19 O           6.6784   -4.1381   24.6125 O.2     1  UNL1       -0.1686
     20 O           7.3046   -4.7029   21.7335 O.2     1  UNL1       -0.1686
     21 C           0.7369    3.0184   23.9209 C.2     1  UNL1        0.2015
     22 O           1.8651    4.0044   23.9902 O.2     1  UNL1       -0.2864
     23 C          -0.2485    1.0616   27.2300 C.ar    1  UNL1        0.0920
     24 C          -1.4534    1.8387   27.6708 C.ar    1  UNL1        0.0204
     25 C          -1.9282    3.0091   26.8616 C.ar    1  UNL1        0.0312
     26 C          -1.1982    3.4023   25.6117 C.ar    1  UNL1        0.1454
     27 F          -1.6730    4.5727   24.8025 F       1  UNL1       -0.2040
     28 C           0.0067    2.6252   25.1709 C.ar    1  UNL1        0.0951
     29 C           0.4816    1.4548   25.9801 C.ar    1  UNL1        0.1598
     30 F           1.6865    0.6777   25.5393 F       1  UNL1       -0.2026
     31 N           0.2264   -0.1088   28.0392 N.pl3   1  UNL1       -0.2166
     32 H          -0.1083   -1.0130   27.8403 H       1  UNL1        0.1734
     33 S           1.2111    0.0986   29.1516 S.O2    1  UNL1        0.0540
     34 O           0.1189    0.6580   30.0142 O.2     1  UNL1       -0.1545
     35 O           2.3033   -0.4609   28.2889 O.2     1  UNL1       -0.1545
     36 C           2.1959    0.3059   30.2638 C.3     1  UNL1        0.1724
     37 C           3.7301   -1.1417   31.7807 C.3     1  UNL1        0.0019
     38 C           3.3579   -0.6296   30.4208 C.3     1  UNL1        0.0273
@<TRIPOS>BOND
     1    37    38    1
     2    38    36    1
     3    36    33    1
     4    33    34    2
     5    33    35    2
     6    33    31    1
     7    31    23    1
     8    23    24   ar
     9    24    25   ar
    10    25    26   ar
    11    26    27    1
    12    26    28   ar
    13    28    21    1
    14    21    22    2
    15    21     1    1
    16     1     2   ar
    17     2     3   ar
    18     3     4   ar
    19     4     5   ar
    20     5     6   ar
    21     6     7   ar
    22     7    11    1
    23    11    12   ar
    24    12    13   ar
    25    13    14   ar
    26    14    17    1
    27    17    18    1
    28    17    19    2
    29    17    20    2
    30    14    15   ar
    31    15    16   ar
    32     7     8   ar
    33     8     9   ar
    34    28    29   ar
    35    29    30    1
    36    29    23   ar
    37     9     1   ar
    38     9     4    1
    39    16    11   ar
    40    31    32    1
    41     5    10    1
@<TRIPOS>MOLECULE
*****
 38 41 0 0 0
SMALL
GASTEIGER

@<TRIPOS>ATOM
      1 C           5.4089   -2.4554   19.2740 C.ar    1  UNL1        0.0611
      2 C           5.9218   -1.7040   18.0813 C.ar    1  UNL1        0.1037
      3 N           7.4133   -1.8586   18.0425 N.ar    1  UNL1       -0.2269
      4 C           7.8222   -2.7055   19.2111 C.ar    1  UNL1        0.1407
      5 N           9.1625   -3.1884   19.6804 N.ar    1  UNL1       -0.3374
      6 C           9.2640   -4.0401   20.9109 C.ar    1  UNL1        0.0734
      7 C           8.0252   -4.4090   21.6720 C.ar    1  UNL1        0.0171
      8 C           6.6849   -3.9261   21.2027 C.ar    1  UNL1        0.0046
      9 C           6.5834   -3.0743   19.9722 C.ar    1  UNL1        0.0386
     10 H           9.9756   -2.9463   19.1809 H       1  UNL1        0.1674
     11 C           8.1268   -5.2608   22.9026 C.ar    1  UNL1        0.0015
     12 C           7.4051   -4.8589   24.1546 C.ar    1  UNL1        0.0014
     13 C           7.5066   -5.7107   25.3852 C.ar    1  UNL1        0.0183
     14 C           8.3299   -6.9644   25.3636 C.ar    1  UNL1        0.1057
     15 C           9.0516   -7.3663   24.1115 C.ar    1  UNL1        0.0183
     16 C           8.9500   -6.5145   22.8810 C.ar    1  UNL1        0.0014
     17 S           8.4315   -7.8162   26.5941 S.O2    1  UNL1        0.0104
     18 C           8.5330   -8.6680   27.8245 C.3     1  UNL1        0.1816
     19 O           7.3283   -7.0254   27.2326 O.2     1  UNL1       -0.1686
     20 O           9.5346   -8.6070   25.9556 O.2     1  UNL1       -0.1686
     21 C           3.9735   -2.5681   19.6946 C.2     1  UNL1        0.2015
     22 O           3.1547   -3.7470   19.2593 O.2     1  UNL1       -0.2864
     23 C           2.0628    0.7407   20.7678 C.ar    1  UNL1        0.0920
     24 C           2.1236    0.6309   22.2626 C.ar    1  UNL1        0.0204
     25 C           2.8011   -0.5451   22.9013 C.ar    1  UNL1        0.0312
     26 C           3.4177   -1.6114   22.0454 C.ar    1  UNL1        0.1454
     27 F           4.0951   -2.7875   22.6841 F       1  UNL1       -0.2040
     28 C           3.3568   -1.5017   20.5506 C.ar    1  UNL1        0.0951
     29 C           2.6794   -0.3257   19.9119 C.ar    1  UNL1        0.1598
     30 F           2.6186   -0.2160   18.4171 F       1  UNL1       -0.2026
     31 N           1.3854    1.9167   20.1291 N.pl3   1  UNL1       -0.2166
     32 H           1.8010    2.3648   19.3572 H       1  UNL1        0.1734
     33 S           0.0747    2.4101   20.6664 S.O2    1  UNL1        0.0540
     34 O           0.6628    3.7785   20.8444 O.2     1  UNL1       -0.1545
     35 O          -0.5134    1.0418   20.4884 O.2     1  UNL1       -0.1545
     36 C          -1.2360    2.9034   21.2037 C.3     1  UNL1        0.1724
     37 C          -3.4867    3.5226   20.0628 C.3     1  UNL1        0.0019
     38 C          -2.0642    3.8603   20.3984 C.3     1  UNL1        0.0273
@<TRIPOS>BOND
     1    37    38    1
     2    38    36    1
     3    36    33    1
     4    33    34    2
     5    33    35    2
     6    33    31    1
     7    31    23    1
     8    23    24   ar
     9    24    25   ar
    10    25    26   ar
    11    26    27    1
    12    26    28   ar
    13    28    21    1
    14    21    22    2
    15    21     1    1
    16     1     2   ar
    17     2     3   ar
    18     3     4   ar
    19     4     5   ar
    20     5     6   ar
    21     6     7   ar
    22     7    11    1
    23    11    12   ar
    24    12    13   ar
    25    13    14   ar
    26    14    17    1
    27    17    18    1
    28    17    19    2
    29    17    20    2
    30    14    15   ar
    31    15    16   ar
    32     7     8   ar
    33     8     9   ar
    34    28    29   ar
    35    29    30    1
    36    29    23   ar
    37     9     1   ar
    38     9     4    1
    39    16    11   ar
    40    31    32    1
    41     5    10    1
@<TRIPOS>MOLECULE
*****
 38 41 0 0 0
SMALL
GASTEIGER

@<TRIPOS>ATOM
      1 C           4.5205   -1.8103   18.6328 C.ar    1  UNL1        0.0611
      2 C           5.3471   -2.9865   18.2050 C.ar    1  UNL1        0.1037
      3 N           5.6778   -3.7899   19.4278 N.ar    1  UNL1       -0.2269
      4 C           5.0555   -3.1102   20.6113 C.ar    1  UNL1        0.1407
      5 N           5.0478   -3.4473   22.0729 N.ar    1  UNL1       -0.3374
      6 C           4.3248   -2.5609   23.0432 C.ar    1  UNL1        0.0734
      7 C           3.6095   -1.3374   22.5519 C.ar    1  UNL1        0.0171
      8 C           3.6172   -1.0003   21.0903 C.ar    1  UNL1        0.0046
      9 C           4.3402   -1.8867   20.1200 C.ar    1  UNL1        0.0386
     10 H           5.5173   -4.2503   22.3954 H       1  UNL1        0.1674
     11 C           2.8865   -0.4509   23.5222 C.ar    1  UNL1        0.0015
     12 C           3.3018   -0.4204   24.9632 C.ar    1  UNL1        0.0014
     13 C           2.5787    0.4660   25.9336 C.ar    1  UNL1        0.0183
     14 C           1.4404    1.3219   25.4628 C.ar    1  UNL1        0.1057
     15 C           1.0251    1.2914   24.0217 C.ar    1  UNL1        0.0183
     16 C           1.7481    0.4050   23.0515 C.ar    1  UNL1        0.0014
     17 S           0.7174    2.2083   26.4331 S.O2    1  UNL1        0.0104
     18 C          -0.0057    3.0947   27.4034 C.3     1  UNL1        0.1816
     19 O          -0.4906    2.1963   25.5440 O.2     1  UNL1       -0.1686
     20 O           1.9253    2.2204   27.3223 O.2     1  UNL1       -0.1686
     21 C           3.9705   -0.7447   17.7317 C.2     1  UNL1        0.2015
     22 O           3.8028   -1.0150   16.2659 O.2     1  UNL1       -0.2864
     23 C           1.7625    2.3312   18.9209 C.ar    1  UNL1        0.0920
     24 C           2.8237    3.2634   19.4260 C.ar    1  UNL1        0.0204
     25 C           4.2670    2.8596   19.3663 C.ar    1  UNL1        0.0312
     26 C           4.6494    1.5236   18.8016 C.ar    1  UNL1        0.1454
     27 F           6.0927    1.1198   18.7419 F       1  UNL1       -0.2040
     28 C           3.5882    0.5914   18.2965 C.ar    1  UNL1        0.0951
     29 C           2.1449    0.9953   18.3562 C.ar    1  UNL1        0.1598
     30 F           1.0838    0.0630   17.8511 F       1  UNL1       -0.2026
     31 N           0.3192    2.7351   18.9806 N.pl3   1  UNL1       -0.2166
     32 H          -0.1858    2.8816   18.1483 H       1  UNL1        0.1734
     33 S          -0.3548    2.9156   20.3084 S.O2    1  UNL1        0.0540
     34 O          -0.2572    4.4046   20.1556 O.2     1  UNL1       -0.1545
     35 O          -0.4524    1.4266   20.4613 O.2     1  UNL1       -0.1545
     36 C          -1.0288    3.0960   21.6363 C.3     1  UNL1        0.1724
     37 C          -3.4958    3.2587   20.8378 C.3     1  UNL1        0.0019
     38 C          -2.3779    3.7476   21.7102 C.3     1  UNL1        0.0273
@<TRIPOS>BOND
     1    37    38    1
     2    38    36    1
     3    36    33    1
     4    33    34    2
     5    33    35    2
     6    33    31    1
     7    31    23    1
     8    23    24   ar
     9    24    25   ar
    10    25    26   ar
    11    26    27    1
    12    26    28   ar
    13    28    21    1
    14    21    22    2
    15    21     1    1
    16     1     2   ar
    17     2     3   ar
    18     3     4   ar
    19     4     5   ar
    20     5     6   ar
    21     6     7   ar
    22     7    11    1
    23    11    12   ar
    24    12    13   ar
    25    13    14   ar
    26    14    17    1
    27    17    18    1
    28    17    19    2
    29    17    20    2
    30    14    15   ar
    31    15    16   ar
    32     7     8   ar
    33     8     9   ar
    34    28    29   ar
    35    29    30    1
    36    29    23   ar
    37     9     1   ar
    38     9     4    1
    39    16    11   ar
    40    31    32    1
    41     5    10    1
@<TRIPOS>MOLECULE
*****
 38 41 0 0 0
SMALL
GASTEIGER

@<TRIPOS>ATOM
      1 C           6.6531   -3.2751   30.0599 C.ar    1  UNL1        0.0611
      2 C           6.7704   -4.2246   31.2152 C.ar    1  UNL1        0.1037
      3 N           6.9240   -5.6105   30.6624 N.ar    1  UNL1       -0.2269
      4 C           6.9017   -5.5176   29.1654 C.ar    1  UNL1        0.1407
      5 N           7.0122   -6.5607   28.0933 N.ar    1  UNL1       -0.3374
      6 C           6.9553   -6.1605   26.6488 C.ar    1  UNL1        0.0734
      7 C           6.7879   -4.7172   26.2765 C.ar    1  UNL1        0.0171
      8 C           6.6774   -3.6740   27.3486 C.ar    1  UNL1        0.0046
      9 C           6.7343   -4.0742   28.7931 C.ar    1  UNL1        0.0386
     10 H           7.1220   -7.5081   28.3376 H       1  UNL1        0.1674
     11 C           6.7310   -4.3170   24.8319 C.ar    1  UNL1        0.0015
     12 C           7.6084   -5.0044   23.8281 C.ar    1  UNL1        0.0014
     13 C           7.5515   -4.6042   22.3835 C.ar    1  UNL1        0.0183
     14 C           6.6172   -3.5166   21.9428 C.ar    1  UNL1        0.1057
     15 C           5.7398   -2.8292   22.9467 C.ar    1  UNL1        0.0183
     16 C           5.7967   -3.2294   24.3912 C.ar    1  UNL1        0.0014
     17 S           6.5603   -3.1164   20.4984 S.O2    1  UNL1        0.0104
     18 C           6.5034   -2.7162   19.0539 C.3     1  UNL1        0.1816
     19 O           7.0334   -1.7400   20.8611 O.2     1  UNL1       -0.1686
     20 O           6.0872   -4.4928   20.1357 O.2     1  UNL1       -0.1686
     21 C           6.4844   -1.7877   30.1548 C.2     1  UNL1        0.2015
     22 O           7.6761   -0.8873   30.0171 O.2     1  UNL1       -0.2864
     23 C           2.7797   -0.5288   29.4904 C.ar    1  UNL1        0.0920
     24 C           2.4026   -0.0263   30.8525 C.ar    1  UNL1        0.0204
     25 C           3.3860   -0.1109   31.9820 C.ar    1  UNL1        0.0312
     26 C           4.7466   -0.6980   31.7495 C.ar    1  UNL1        0.1454
     27 F           5.7300   -0.7826   32.8789 F       1  UNL1       -0.2040
     28 C           5.1237   -1.2005   30.3874 C.ar    1  UNL1        0.0951
     29 C           4.1403   -1.1159   29.2579 C.ar    1  UNL1        0.1598
     30 F           4.5175   -1.6184   27.8958 F       1  UNL1       -0.2026
     31 N           1.7963   -0.4442   28.3610 N.pl3   1  UNL1       -0.2166
     32 H           1.7161   -1.1883   27.7213 H       1  UNL1        0.1734
     33 S           0.9351    0.7742   28.2061 S.O2    1  UNL1        0.0540
     34 O          -0.2681   -0.0249   28.6106 O.2     1  UNL1       -0.1545
     35 O           2.1384    1.5732   27.8015 O.2     1  UNL1       -0.1545
     36 C           0.0741    1.9925   28.0511 C.3     1  UNL1        0.1724
     37 C          -0.6422    1.9618   25.5538 C.3     1  UNL1        0.0019
     38 C          -1.0039    2.0215   27.0084 C.3     1  UNL1        0.0273
@<TRIPOS>BOND
     1    37    38    1
     2    38    36    1
     3    36    33    1
     4    33    34    2
     5    33    35    2
     6    33    31    1
     7    31    23    1
     8    23    24   ar
     9    24    25   ar
    10    25    26   ar
    11    26    27    1
    12    26    28   ar
    13    28    21    1
    14    21    22    2
    15    21     1    1
    16     1     2   ar
    17     2     3   ar
    18     3     4   ar
    19     4     5   ar
    20     5     6   ar
    21     6     7   ar
    22     7    11    1
    23    11    12   ar
    24    12    13   ar
    25    13    14   ar
    26    14    17    1
    27    17    18    1
    28    17    19    2
    29    17    20    2
    30    14    15   ar
    31    15    16   ar
    32     7     8   ar
    33     8     9   ar
    34    28    29   ar
    35    29    30    1
    36    29    23   ar
    37     9     1   ar
    38     9     4    1
    39    16    11   ar
    40    31    32    1
    41     5    10    1
@<TRIPOS>MOLECULE
*****
 38 41 0 0 0
SMALL
GASTEIGER

@<TRIPOS>ATOM
      1 C           1.8031    0.4449   22.5348 C.ar    1  UNL1        0.0611
      2 C           3.0298   -0.2877   22.9913 C.ar    1  UNL1        0.1037
      3 N           3.0927   -0.1990   24.4873 N.ar    1  UNL1       -0.2269
      4 C           1.9049    0.5885   24.9554 C.ar    1  UNL1        0.1407
      5 N           1.4461    0.9946   26.3245 N.ar    1  UNL1       -0.3374
      6 C           0.1903    1.7986   26.4869 C.ar    1  UNL1        0.0734
      7 C          -0.6067    2.1966   25.2801 C.ar    1  UNL1        0.0171
      8 C          -0.1480    1.7905   23.9110 C.ar    1  UNL1        0.0046
      9 C           1.1078    0.9864   23.7486 C.ar    1  UNL1        0.0386
     10 H           1.9692    0.7334   27.1166 H       1  UNL1        0.1674
     11 C          -1.8626    3.0006   25.4425 C.ar    1  UNL1        0.0015
     12 C          -2.5443    3.5784   24.2378 C.ar    1  UNL1        0.0014
     13 C          -3.8002    4.3825   24.4001 C.ar    1  UNL1        0.0183
     14 C          -4.3743    4.6088   25.7673 C.ar    1  UNL1        0.1057
     15 C          -3.6926    4.0309   26.9721 C.ar    1  UNL1        0.0183
     16 C          -2.4368    3.2269   26.8097 C.ar    1  UNL1        0.0014
     17 S          -5.6301    5.4128   25.9298 S.O2    1  UNL1        0.0104
     18 C          -6.8859    6.2168   26.0922 C.3     1  UNL1        0.1816
     19 O          -5.4902    5.3301   27.4209 O.2     1  UNL1       -0.1686
     20 O          -5.7700    5.4955   24.4386 O.2     1  UNL1       -0.1686
     21 C           1.3509    0.6075   21.1138 C.2     1  UNL1        0.2015
     22 O          -0.0998    0.8375   20.8100 O.2     1  UNL1       -0.2864
     23 C           3.8502   -0.8576   18.4013 C.ar    1  UNL1        0.0920
     24 C           4.3469    0.4052   17.7622 C.ar    1  UNL1        0.0204
     25 C           3.8450    1.7355   18.2403 C.ar    1  UNL1        0.0312
     26 C           2.8464    1.8029   19.3574 C.ar    1  UNL1        0.1454
     27 F           2.3445    3.1332   19.8355 F       1  UNL1       -0.2040
     28 C           2.3496    0.5401   19.9965 C.ar    1  UNL1        0.0951
     29 C           2.8515   -0.7901   19.5184 C.ar    1  UNL1        0.1598
     30 F           2.3547   -2.0530   20.1576 F       1  UNL1       -0.2026
     31 N           4.3520   -2.1878   17.9232 N.pl3   1  UNL1       -0.2166
     32 H           4.2538   -2.4398   16.9766 H       1  UNL1        0.1734
     33 S           5.0037   -3.1342   18.8874 S.O2    1  UNL1        0.0540
     34 O           3.8940   -4.1197   18.6701 O.2     1  UNL1       -0.1545
     35 O           6.1134   -2.1487   19.1047 O.2     1  UNL1       -0.1545
     36 C           5.6554   -4.0805   19.8516 C.3     1  UNL1        0.1724
     37 C           4.6466   -3.7256   22.2195 C.3     1  UNL1        0.0019
     38 C           5.8232   -3.6884   21.2898 C.3     1  UNL1        0.0273
@<TRIPOS>BOND
     1    37    38    1
     2    38    36    1
     3    36    33    1
     4    33    34    2
     5    33    35    2
     6    33    31    1
     7    31    23    1
     8    23    24   ar
     9    24    25   ar
    10    25    26   ar
    11    26    27    1
    12    26    28   ar
    13    28    21    1
    14    21    22    2
    15    21     1    1
    16     1     2   ar
    17     2     3   ar
    18     3     4   ar
    19     4     5   ar
    20     5     6   ar
    21     6     7   ar
    22     7    11    1
    23    11    12   ar
    24    12    13   ar
    25    13    14   ar
    26    14    17    1
    27    17    18    1
    28    17    19    2
    29    17    20    2
    30    14    15   ar
    31    15    16   ar
    32     7     8   ar
    33     8     9   ar
    34    28    29   ar
    35    29    30    1
    36    29    23   ar
    37     9     1   ar
    38     9     4    1
    39    16    11   ar
    40    31    32    1
    41     5    10    1
@<TRIPOS>MOLECULE
*****
 38 41 0 0 0
SMALL
GASTEIGER

@<TRIPOS>ATOM
      1 C           4.9539   -3.3817   20.5227 C.ar    1  UNL1        0.0611
      2 C           6.1103   -4.2686   20.1674 C.ar    1  UNL1        0.1037
      3 N           6.9579   -4.4383   21.3932 N.ar    1  UNL1       -0.2269
      4 C           6.3255   -3.6563   22.5061 C.ar    1  UNL1        0.1407
      5 N           6.7174   -3.4545   23.9398 N.ar    1  UNL1       -0.3374
      6 C           5.8707   -2.5996   24.8355 C.ar    1  UNL1        0.0734
      7 C           4.6321   -1.9466   24.2975 C.ar    1  UNL1        0.0171
      8 C           4.2402   -2.1484   22.8638 C.ar    1  UNL1        0.0046
      9 C           5.0869   -3.0032   21.9681 C.ar    1  UNL1        0.0386
     10 H           7.5303   -3.8831   24.2930 H       1  UNL1        0.1674
     11 C           3.7855   -1.0917   25.1933 C.ar    1  UNL1        0.0015
     12 C           3.8072   -1.3091   26.6773 C.ar    1  UNL1        0.0014
     13 C           2.9605   -0.4542   27.5731 C.ar    1  UNL1        0.0183
     14 C           2.0921    0.6180   26.9848 C.ar    1  UNL1        0.1057
     15 C           2.0704    0.8354   25.5008 C.ar    1  UNL1        0.0183
     16 C           2.9170   -0.0194   24.6051 C.ar    1  UNL1        0.0014
     17 S           1.2454    1.4729   27.8805 S.O2    1  UNL1        0.0104
     18 C           0.3988    2.3277   28.7762 C.3     1  UNL1        0.1816
     19 O           1.9542    2.6972   27.3820 O.2     1  UNL1       -0.1686
     20 O           0.5367    0.2485   28.3791 O.2     1  UNL1       -0.1686
     21 C           3.8571   -2.9491   19.5954 C.2     1  UNL1        0.2015
     22 O           2.8664   -3.9533   19.0855 O.2     1  UNL1       -0.2864
     23 C           2.4344    0.7272   19.1359 C.ar    1  UNL1        0.0920
     24 C           3.5387    1.3614   18.3432 C.ar    1  UNL1        0.0204
     25 C           4.7491    0.5588   17.9679 C.ar    1  UNL1        0.0312
     26 C           4.8553   -0.8780   18.3853 C.ar    1  UNL1        0.1454
     27 F           6.0656   -1.6806   18.0100 F       1  UNL1       -0.2040
     28 C           3.7510   -1.5122   19.1780 C.ar    1  UNL1        0.0951
     29 C           2.5406   -0.7096   19.5532 C.ar    1  UNL1        0.1598
     30 F           1.4364   -1.3439   20.3459 F       1  UNL1       -0.2026
     31 N           1.2241    1.5298   19.5111 N.pl3   1  UNL1       -0.2166
     32 H           0.6775    1.9533   18.8103 H       1  UNL1        0.1734
     33 S           0.8464    1.6872   20.9542 S.O2    1  UNL1        0.0540
     34 O          -0.4886    1.0639   20.6729 O.2     1  UNL1       -0.1545
     35 O           2.1814    2.3106   21.2356 O.2     1  UNL1       -0.1545
     36 C           0.4689    1.8447   22.3973 C.3     1  UNL1        0.1724
     37 C          -1.2482    3.4392   23.5195 C.3     1  UNL1        0.0019
     38 C           0.1125    3.1985   22.9360 C.3     1  UNL1        0.0273
@<TRIPOS>BOND
     1    37    38    1
     2    38    36    1
     3    36    33    1
     4    33    34    2
     5    33    35    2
     6    33    31    1
     7    31    23    1
     8    23    24   ar
     9    24    25   ar
    10    25    26   ar
    11    26    27    1
    12    26    28   ar
    13    28    21    1
    14    21    22    2
    15    21     1    1
    16     1     2   ar
    17     2     3   ar
    18     3     4   ar
    19     4     5   ar
    20     5     6   ar
    21     6     7   ar
    22     7    11    1
    23    11    12   ar
    24    12    13   ar
    25    13    14   ar
    26    14    17    1
    27    17    18    1
    28    17    19    2
    29    17    20    2
    30    14    15   ar
    31    15    16   ar
    32     7     8   ar
    33     8     9   ar
    34    28    29   ar
    35    29    30    1
    36    29    23   ar
    37     9     1   ar
    38     9     4    1
    39    16    11   ar
    40    31    32    1
    41     5    10    1
