@<TRIPOS>MOLECULE
*****
 31 35 0 0 0
SMALL
GASTEIGER

@<TRIPOS>ATOM
      1 C           6.1922   -2.1587   32.2421 C.ar    1  UNL1        0.0670
      2 C           4.8784   -2.4252   32.9149 C.ar    1  UNL1        0.0191
      3 C           4.4939   -1.6528   34.1419 C.ar    1  UNL1        0.0203
      4 C           5.4232   -0.6139   34.6960 C.ar    1  UNL1        0.0795
      5 C           6.7370   -0.3474   34.0231 C.ar    1  UNL1        0.0396
      6 C           7.4421    0.7295   34.7932 C.ar    1  UNL1        0.1216
      7 N           6.5640    1.1286   35.9420 N.ar    1  UNL1       -0.1677
      8 N           5.3162    0.2983   35.8820 N.ar    1  UNL1       -0.2494
      9 C           7.1215   -1.1198   32.7962 C.ar    1  UNL1        0.0207
     10 O           5.3390   -1.1929   29.5330 O.2     1  UNL1       -0.2666
     11 C           6.1502   -2.4482   29.6605 C.ar    1  UNL1        0.2648
     12 C           6.5347   -3.2205   28.4335 C.ar    1  UNL1        0.0612
     13 C           7.3459   -4.4759   28.5610 C.ar    1  UNL1        0.0071
     14 C           7.7725   -4.9588   29.9155 C.ar    1  UNL1        0.0193
     15 C           7.3879   -4.1864   31.1426 C.ar    1  UNL1        0.0829
     16 N           6.5768   -2.9311   31.0150 N.ar    1  UNL1       -0.2731
     17 C           7.7305   -5.2482   27.3340 C.ar    1  UNL1        0.0108
     18 C           7.0215   -6.5272   27.0001 C.ar    1  UNL1        0.0017
     19 C           7.4060   -7.2996   25.7730 C.ar    1  UNL1        0.0114
     20 C           8.4995   -6.7929   24.8799 C.ar    1  UNL1        0.0585
     21 CL          8.8841   -7.5653   23.6529 Cl      1  UNL1       -0.0822
     22 C           9.2085   -5.5139   25.2139 C.ar    1  UNL1        0.0228
     23 C           8.8239   -4.7416   26.4409 C.ar    1  UNL1        0.0585
     24 CL          9.5329   -3.4626   26.7748 Cl      1  UNL1       -0.0822
     25 C           4.1639    0.3680   36.8397 C.3     1  UNL1        0.1447
     26 C           3.3891    1.6437   36.9893 C.3     1  UNL1        0.0988
     27 N           2.2581    1.7235   37.9712 N.3     1  UNL1       -0.2710
     28 C           1.8128    0.6282   38.8943 C.3     1  UNL1        0.0722
     29 C           0.6532    1.1405   39.6960 C.3     1  UNL1        0.0188
     30 C           0.3817    2.5524   39.2685 C.3     1  UNL1        0.0188
     31 C           1.3736    2.9127   38.2025 C.3     1  UNL1        0.0722
@<TRIPOS>BOND
     1    10    11    2
     2    11    12   ar
     3    12    13   ar
     4    13    17    1
     5    17    18   ar
     6    18    19   ar
     7    19    20   ar
     8    20    21    1
     9    20    22   ar
    10    22    23   ar
    11    23    24    1
    12    13    14   ar
    13    14    15   ar
    14    15    16   ar
    15    16     1    1
    16     1     2   ar
    17     2     3   ar
    18     3     4   ar
    19     4     5   ar
    20     5     6   ar
    21     6     7   ar
    22     7     8   ar
    23     8    25    1
    24    25    26    1
    25    26    27    1
    26    27    28    1
    27    28    29    1
    28    29    30    1
    29    30    31    1
    30     5     9   ar
    31    16    11   ar
    32     9     1   ar
    33    23    17   ar
    34     8     4   ar
    35    31    27    1
@<TRIPOS>MOLECULE
*****
 31 35 0 0 0
SMALL
GASTEIGER

@<TRIPOS>ATOM
      1 C           1.1473    2.3893   30.7454 C.ar    1  UNL1        0.0670
      2 C           0.8849    3.3312   31.8829 C.ar    1  UNL1        0.0191
      3 C           1.5638    3.1196   33.2036 C.ar    1  UNL1        0.0203
      4 C           2.5050    1.9661   33.3868 C.ar    1  UNL1        0.0795
      5 C           2.7674    1.0242   32.2494 C.ar    1  UNL1        0.0396
      6 C           3.7381   -0.0163   32.7237 C.ar    1  UNL1        0.1216
      7 N           4.0756    0.2824   34.1544 N.ar    1  UNL1       -0.1677
      8 N           3.3136    1.5077   34.5643 N.ar    1  UNL1       -0.2494
      9 C           2.0885    1.2358   30.9286 C.ar    1  UNL1        0.0207
     10 O          -0.4399    0.1679   29.5020 O.2     1  UNL1       -0.2666
     11 C          -0.3252    1.4901   28.8029 C.ar    1  UNL1        0.2648
     12 C          -1.0041    1.7016   27.4822 C.ar    1  UNL1        0.0612
     13 C          -0.8894    3.0239   26.7831 C.ar    1  UNL1        0.0071
     14 C          -0.0958    4.1346   27.4048 C.ar    1  UNL1        0.0193
     15 C           0.5831    3.9230   28.7256 C.ar    1  UNL1        0.0829
     16 N           0.4684    2.6008   29.4246 N.ar    1  UNL1       -0.2731
     17 C          -1.5682    3.2354   25.4624 C.ar    1  UNL1        0.0108
     18 C          -0.7972    3.0650   24.1871 C.ar    1  UNL1        0.0017
     19 C          -1.4761    3.2765   22.8662 C.ar    1  UNL1        0.0114
     20 C          -2.9260    3.6583   22.8208 C.ar    1  UNL1        0.0585
     21 CL         -3.6048    3.8698   21.5001 Cl      1  UNL1       -0.0822
     22 C          -3.6970    3.8287   24.0963 C.ar    1  UNL1        0.0228
     23 C          -3.0181    3.6172   25.4170 C.ar    1  UNL1        0.0585
     24 CL         -3.7891    3.7876   26.6923 Cl      1  UNL1       -0.0822
     25 C           3.3531    2.1600   35.9144 C.3     1  UNL1        0.1447
     26 C           3.3283    1.3176   37.1553 C.3     1  UNL1        0.0988
     27 N           2.2153    1.4772   38.1481 N.3     1  UNL1       -0.2710
     28 C           1.7241    0.4259   39.0985 C.3     1  UNL1        0.0722
     29 C           0.6033    1.0151   39.9025 C.3     1  UNL1        0.0188
     30 C           0.4018    2.4307   39.4491 C.3     1  UNL1        0.0188
     31 C           1.3981    2.7163   38.3648 C.3     1  UNL1        0.0722
@<TRIPOS>BOND
     1    10    11    2
     2    11    12   ar
     3    12    13   ar
     4    13    17    1
     5    17    18   ar
     6    18    19   ar
     7    19    20   ar
     8    20    21    1
     9    20    22   ar
    10    22    23   ar
    11    23    24    1
    12    13    14   ar
    13    14    15   ar
    14    15    16   ar
    15    16     1    1
    16     1     2   ar
    17     2     3   ar
    18     3     4   ar
    19     4     5   ar
    20     5     6   ar
    21     6     7   ar
    22     7     8   ar
    23     8    25    1
    24    25    26    1
    25    26    27    1
    26    27    28    1
    27    28    29    1
    28    29    30    1
    29    30    31    1
    30     5     9   ar
    31    16    11   ar
    32     9     1   ar
    33    23    17   ar
    34     8     4   ar
    35    31    27    1
@<TRIPOS>MOLECULE
*****
 31 35 0 0 0
SMALL
GASTEIGER

@<TRIPOS>ATOM
      1 C           5.2392   -0.0585   34.0273 C.ar    1  UNL1        0.0670
      2 C           5.9224    0.4615   35.2572 C.ar    1  UNL1        0.0191
      3 C           5.3131    1.5919   36.0324 C.ar    1  UNL1        0.0203
      4 C           4.0206    2.2023   35.5775 C.ar    1  UNL1        0.0795
      5 C           3.3374    1.6823   34.3476 C.ar    1  UNL1        0.0396
      6 C           2.0820    2.4775   34.1434 C.ar    1  UNL1        0.1216
      7 N           1.9894    3.4890   35.2472 N.ar    1  UNL1       -0.1677
      8 N           3.1874    3.3190   36.1336 N.ar    1  UNL1       -0.2494
      9 C           3.9467    0.5519   33.5725 C.ar    1  UNL1        0.0207
     10 O           3.8966   -2.7409   33.9813 O.2     1  UNL1       -0.2666
     11 C           5.1772   -2.5302   33.2291 C.ar    1  UNL1        0.2648
     12 C           5.7864   -3.6606   32.4539 C.ar    1  UNL1        0.0612
     13 C           7.0670   -3.4499   31.7017 C.ar    1  UNL1        0.0071
     14 C           7.7383   -2.1087   31.7247 C.ar    1  UNL1        0.0193
     15 C           7.1290   -0.9782   32.4999 C.ar    1  UNL1        0.0829
     16 N           5.8485   -1.1890   33.2521 N.ar    1  UNL1       -0.2731
     17 C           7.6762   -4.5803   30.9266 C.ar    1  UNL1        0.0108
     18 C           8.6727   -5.4888   31.5835 C.ar    1  UNL1        0.0017
     19 C           9.2820   -6.6194   30.8084 C.ar    1  UNL1        0.0114
     20 C           8.8948   -6.8413   29.3763 C.ar    1  UNL1        0.0585
     21 CL          9.5040   -7.9717   28.6011 Cl      1  UNL1       -0.0822
     22 C           7.8982   -5.9327   28.7194 C.ar    1  UNL1        0.0228
     23 C           7.2890   -4.8022   29.4945 C.ar    1  UNL1        0.0585
     24 CL          6.2925   -3.8937   28.8376 Cl      1  UNL1       -0.0822
     25 C           3.4979    4.1241   37.3605 C.3     1  UNL1        0.1447
     26 C           3.5071    3.4647   38.7078 C.3     1  UNL1        0.0988
     27 N           2.5301    2.3683   39.0129 N.3     1  UNL1       -0.2710
     28 C           2.7453    0.9034   38.7727 C.3     1  UNL1        0.0722
     29 C           1.5144    0.1741   39.2233 C.3     1  UNL1        0.0188
     30 C           0.5384    1.1882   39.7419 C.3     1  UNL1        0.0188
     31 C           1.1662    2.5444   39.6119 C.3     1  UNL1        0.0722
@<TRIPOS>BOND
     1    10    11    2
     2    11    12   ar
     3    12    13   ar
     4    13    17    1
     5    17    18   ar
     6    18    19   ar
     7    19    20   ar
     8    20    21    1
     9    20    22   ar
    10    22    23   ar
    11    23    24    1
    12    13    14   ar
    13    14    15   ar
    14    15    16   ar
    15    16     1    1
    16     1     2   ar
    17     2     3   ar
    18     3     4   ar
    19     4     5   ar
    20     5     6   ar
    21     6     7   ar
    22     7     8   ar
    23     8    25    1
    24    25    26    1
    25    26    27    1
    26    27    28    1
    27    28    29    1
    28    29    30    1
    29    30    31    1
    30     5     9   ar
    31    16    11   ar
    32     9     1   ar
    33    23    17   ar
    34     8     4   ar
    35    31    27    1
@<TRIPOS>MOLECULE
*****
 31 35 0 0 0
SMALL
GASTEIGER

@<TRIPOS>ATOM
      1 C           6.0414   -2.0792   31.9370 C.ar    1  UNL1        0.0670
      2 C           5.8984   -1.5842   30.5283 C.ar    1  UNL1        0.0191
      3 C           6.2277   -2.4891   29.3783 C.ar    1  UNL1        0.0203
      4 C           6.7000   -3.8891   29.6370 C.ar    1  UNL1        0.0795
      5 C           6.8429   -4.3842   31.0456 C.ar    1  UNL1        0.0396
      6 C           7.3272   -5.8028   30.9914 C.ar    1  UNL1        0.1216
      7 N           7.4836   -6.1845   29.5493 N.ar    1  UNL1       -0.1677
      8 N           7.0959   -5.0018   28.7121 N.ar    1  UNL1       -0.2494
      9 C           6.5136   -3.4793   32.1956 C.ar    1  UNL1        0.0207
     10 O           3.8191   -2.7956   33.8207 O.2     1  UNL1       -0.2666
     11 C           4.6010   -1.5324   34.0289 C.ar    1  UNL1        0.2648
     12 C           4.2716   -0.6276   35.1790 C.ar    1  UNL1        0.0612
     13 C           5.0535    0.6356   35.3873 C.ar    1  UNL1        0.0071
     14 C           6.1646    0.9937   34.4454 C.ar    1  UNL1        0.0193
     15 C           6.4939    0.0888   33.2953 C.ar    1  UNL1        0.0829
     16 N           5.7121   -1.1743   33.0871 N.ar    1  UNL1       -0.2731
     17 C           4.7242    1.5404   36.5373 C.ar    1  UNL1        0.0108
     18 C           5.5584    1.5035   37.7834 C.ar    1  UNL1        0.0017
     19 C           5.2291    2.4084   38.9336 C.ar    1  UNL1        0.0114
     20 C           4.0656    3.3502   38.8376 C.ar    1  UNL1        0.0585
     21 CL          3.7363    4.2551   39.9876 Cl      1  UNL1       -0.0822
     22 C           3.2314    3.3872   37.5914 C.ar    1  UNL1        0.0228
     23 C           3.5607    2.4823   36.4414 C.ar    1  UNL1        0.0585
     24 CL          2.7265    2.5192   35.1953 Cl      1  UNL1       -0.0822
     25 C           7.1030   -4.9422   27.2133 C.3     1  UNL1        0.1447
     26 C           6.8586   -6.1865   26.4121 C.3     1  UNL1        0.0988
     27 N           7.7135   -6.4892   25.2174 N.3     1  UNL1       -0.2710
     28 C           7.8337   -5.6459   23.9827 C.3     1  UNL1        0.0722
     29 C           8.7928   -6.3240   23.0499 C.3     1  UNL1        0.0188
     30 C           9.2653   -7.5864   23.7079 C.3     1  UNL1        0.0188
     31 C           8.5982   -7.6885   25.0475 C.3     1  UNL1        0.0722
@<TRIPOS>BOND
     1    10    11    2
     2    11    12   ar
     3    12    13   ar
     4    13    17    1
     5    17    18   ar
     6    18    19   ar
     7    19    20   ar
     8    20    21    1
     9    20    22   ar
    10    22    23   ar
    11    23    24    1
    12    13    14   ar
    13    14    15   ar
    14    15    16   ar
    15    16     1    1
    16     1     2   ar
    17     2     3   ar
    18     3     4   ar
    19     4     5   ar
    20     5     6   ar
    21     6     7   ar
    22     7     8   ar
    23     8    25    1
    24    25    26    1
    25    26    27    1
    26    27    28    1
    27    28    29    1
    28    29    30    1
    29    30    31    1
    30     5     9   ar
    31    16    11   ar
    32     9     1   ar
    33    23    17   ar
    34     8     4   ar
    35    31    27    1
@<TRIPOS>MOLECULE
*****
 31 35 0 0 0
SMALL
GASTEIGER

@<TRIPOS>ATOM
      1 C           1.6093    1.4627   30.6714 C.ar    1  UNL1        0.0670
      2 C           2.5718    0.3300   30.4698 C.ar    1  UNL1        0.0191
      3 C           3.4560   -0.1126   31.5977 C.ar    1  UNL1        0.0203
      4 C           3.3778    0.5776   32.9272 C.ar    1  UNL1        0.0795
      5 C           2.4153    1.7103   33.1288 C.ar    1  UNL1        0.0396
      6 C           2.5605    2.1962   34.5405 C.ar    1  UNL1        0.1216
      7 N           3.6127    1.3638   35.2113 N.ar    1  UNL1       -0.1677
      8 N           4.1178    0.3634   34.2143 N.ar    1  UNL1       -0.2494
      9 C           1.5311    2.1528   32.0009 C.ar    1  UNL1        0.0207
     10 O          -0.4591   -0.4072   29.5645 O.2     1  UNL1       -0.2666
     11 C          -0.3092    0.9704   28.9900 C.ar    1  UNL1        0.2648
     12 C          -1.1934    1.4129   27.8621 C.ar    1  UNL1        0.0612
     13 C          -1.0435    2.7905   27.2875 C.ar    1  UNL1        0.0071
     14 C          -0.0092    3.7254   27.8410 C.ar    1  UNL1        0.0193
     15 C           0.8750    3.2828   28.9690 C.ar    1  UNL1        0.0829
     16 N           0.7251    1.9053   29.5434 N.ar    1  UNL1       -0.2731
     17 C          -1.9277    3.2330   26.1596 C.ar    1  UNL1        0.0108
     18 C          -3.2873    3.7965   26.4493 C.ar    1  UNL1        0.0017
     19 C          -4.1716    4.2391   25.3214 C.ar    1  UNL1        0.0114
     20 C          -3.6963    4.1181   23.9038 C.ar    1  UNL1        0.0585
     21 CL         -4.5806    4.5607   22.7759 Cl      1  UNL1       -0.0822
     22 C          -2.3366    3.5546   23.6142 C.ar    1  UNL1        0.0228
     23 C          -1.4524    3.1121   24.7421 C.ar    1  UNL1        0.0585
     24 CL         -0.0928    2.5486   24.4525 Cl      1  UNL1       -0.0822
     25 C           5.1769   -0.6697   34.4610 C.3     1  UNL1        0.1447
     26 C           6.4303   -0.6704   33.6370 C.3     1  UNL1        0.0988
     27 N           6.8356   -1.9059   32.8893 N.3     1  UNL1       -0.2710
     28 C           5.9063   -2.9357   32.3184 C.3     1  UNL1        0.0722
     29 C           6.7379   -3.9948   31.6575 C.3     1  UNL1        0.0188
     30 C           8.1810   -3.6197   31.8199 C.3     1  UNL1        0.0188
     31 C           8.2415   -2.3286   32.5812 C.3     1  UNL1        0.0722
@<TRIPOS>BOND
     1    10    11    2
     2    11    12   ar
     3    12    13   ar
     4    13    17    1
     5    17    18   ar
     6    18    19   ar
     7    19    20   ar
     8    20    21    1
     9    20    22   ar
    10    22    23   ar
    11    23    24    1
    12    13    14   ar
    13    14    15   ar
    14    15    16   ar
    15    16     1    1
    16     1     2   ar
    17     2     3   ar
    18     3     4   ar
    19     4     5   ar
    20     5     6   ar
    21     6     7   ar
    22     7     8   ar
    23     8    25    1
    24    25    26    1
    25    26    27    1
    26    27    28    1
    27    28    29    1
    28    29    30    1
    29    30    31    1
    30     5     9   ar
    31    16    11   ar
    32     9     1   ar
    33    23    17   ar
    34     8     4   ar
    35    31    27    1
@<TRIPOS>MOLECULE
*****
 31 35 0 0 0
SMALL
GASTEIGER

@<TRIPOS>ATOM
      1 C           0.9772    2.7765   30.8600 C.ar    1  UNL1        0.0670
      2 C           1.8412    1.6048   31.2210 C.ar    1  UNL1        0.0191
      3 C           2.4125    1.4919   32.6033 C.ar    1  UNL1        0.0203
      4 C           2.1198    2.5508   33.6246 C.ar    1  UNL1        0.0795
      5 C           1.2557    3.7225   33.2636 C.ar    1  UNL1        0.0396
      6 C           1.1416    4.6040   34.4719 C.ar    1  UNL1        0.1216
      7 N           1.9352    3.9771   35.5796 N.ar    1  UNL1       -0.1677
      8 N           2.5398    2.7081   35.0560 N.ar    1  UNL1       -0.2494
      9 C           0.6844    3.8354   31.8813 C.ar    1  UNL1        0.0207
     10 O          -0.3190    0.3963   29.5737 O.2     1  UNL1       -0.2666
     11 C          -0.2423    1.6993   28.8345 C.ar    1  UNL1        0.2648
     12 C          -0.8136    1.8122   27.4522 C.ar    1  UNL1        0.0612
     13 C          -0.7369    3.1152   26.7129 C.ar    1  UNL1        0.0071
     14 C          -0.0888    4.3053   27.3561 C.ar    1  UNL1        0.0193
     15 C           0.4825    4.1924   28.7385 C.ar    1  UNL1        0.0829
     16 N           0.4058    2.8894   29.4776 N.ar    1  UNL1       -0.2731
     17 C          -1.3082    3.2280   25.3306 C.ar    1  UNL1        0.0108
     18 C          -0.4320    2.9951   24.1357 C.ar    1  UNL1        0.0017
     19 C          -1.0034    3.1079   22.7533 C.ar    1  UNL1        0.0114
     20 C          -2.4509    3.4537   22.5659 C.ar    1  UNL1        0.0585
     21 CL         -3.0222    3.5666   21.1837 Cl      1  UNL1       -0.0822
     22 C          -3.3271    3.6866   23.7610 C.ar    1  UNL1        0.0228
     23 C          -2.7558    3.5738   25.1433 C.ar    1  UNL1        0.0585
     24 CL         -3.6320    3.8067   26.3383 Cl      1  UNL1       -0.0822
     25 C           3.4113    1.7625   35.8282 C.3     1  UNL1        0.1447
     26 C           3.6151    1.9631   37.3007 C.3     1  UNL1        0.0988
     27 N           2.4832    1.7205   38.2545 N.3     1  UNL1       -0.2710
     28 C           2.1379    0.4104   38.8981 C.3     1  UNL1        0.0722
     29 C           0.9391    0.6258   39.7736 C.3     1  UNL1        0.0188
     30 C           0.5434    2.0689   39.6710 C.3     1  UNL1        0.0188
     31 C           1.4977    2.7456   38.7321 C.3     1  UNL1        0.0722
@<TRIPOS>BOND
     1    10    11    2
     2    11    12   ar
     3    12    13   ar
     4    13    17    1
     5    17    18   ar
     6    18    19   ar
     7    19    20   ar
     8    20    21    1
     9    20    22   ar
    10    22    23   ar
    11    23    24    1
    12    13    14   ar
    13    14    15   ar
    14    15    16   ar
    15    16     1    1
    16     1     2   ar
    17     2     3   ar
    18     3     4   ar
    19     4     5   ar
    20     5     6   ar
    21     6     7   ar
    22     7     8   ar
    23     8    25    1
    24    25    26    1
    25    26    27    1
    26    27    28    1
    27    28    29    1
    28    29    30    1
    29    30    31    1
    30     5     9   ar
    31    16    11   ar
    32     9     1   ar
    33    23    17   ar
    34     8     4   ar
    35    31    27    1
@<TRIPOS>MOLECULE
*****
 31 35 0 0 0
SMALL
GASTEIGER

@<TRIPOS>ATOM
      1 C           1.5161    2.1418   31.2455 C.ar    1  UNL1        0.0670
      2 C           1.2907    3.0602   32.4098 C.ar    1  UNL1        0.0191
      3 C           1.9991    2.8125   33.7085 C.ar    1  UNL1        0.0203
      4 C           2.9329    1.6464   33.8430 C.ar    1  UNL1        0.0795
      5 C           3.1583    0.7279   32.6787 C.ar    1  UNL1        0.0396
      6 C           4.1296   -0.3322   33.1059 C.ar    1  UNL1        0.1216
      7 N           4.5046   -0.0690   34.5342 N.ar    1  UNL1       -0.1677
      8 N           3.7650    1.1538   34.9898 N.ar    1  UNL1       -0.2494
      9 C           2.4499    0.9756   31.3800 C.ar    1  UNL1        0.0207
     10 O           1.7314    4.8175   29.9060 O.2     1  UNL1       -0.2666
     11 C           0.9153    3.7274   29.2770 C.ar    1  UNL1        0.2648
     12 C           0.2069    3.9751   27.9782 C.ar    1  UNL1        0.0612
     13 C          -0.6092    2.8849   27.3491 C.ar    1  UNL1        0.0071
     14 C          -0.7168    1.5471   28.0189 C.ar    1  UNL1        0.0193
     15 C          -0.0084    1.2994   29.3177 C.ar    1  UNL1        0.0829
     16 N           0.8076    2.3895   29.9467 N.ar    1  UNL1       -0.2731
     17 C          -1.3175    3.1327   26.0504 C.ar    1  UNL1        0.0108
     18 C          -2.7716    3.5010   26.0476 C.ar    1  UNL1        0.0017
     19 C          -3.4800    3.7487   24.7488 C.ar    1  UNL1        0.0114
     20 C          -2.7343    3.6281   23.4528 C.ar    1  UNL1        0.0585
     21 CL         -3.4427    3.8759   22.1541 Cl      1  UNL1       -0.0822
     22 C          -1.2802    3.2598   23.4557 C.ar    1  UNL1        0.0228
     23 C          -0.5718    3.0121   24.7545 C.ar    1  UNL1        0.0585
     24 CL          0.8822    2.6438   24.7573 Cl      1  UNL1       -0.0822
     25 C           3.8436    1.7751   36.3528 C.3     1  UNL1        0.1447
     26 C           3.6441    0.9291   37.5753 C.3     1  UNL1        0.0988
     27 N           2.4777    1.1857   38.4828 N.3     1  UNL1       -0.2710
     28 C           1.6712    0.1429   39.1985 C.3     1  UNL1        0.0722
     29 C           0.6082    0.8430   39.9920 C.3     1  UNL1        0.0188
     30 C           0.7576    2.3184   39.7669 C.3     1  UNL1        0.0188
     31 C           1.9131    2.5303   38.8341 C.3     1  UNL1        0.0722
@<TRIPOS>BOND
     1    10    11    2
     2    11    12   ar
     3    12    13   ar
     4    13    17    1
     5    17    18   ar
     6    18    19   ar
     7    19    20   ar
     8    20    21    1
     9    20    22   ar
    10    22    23   ar
    11    23    24    1
    12    13    14   ar
    13    14    15   ar
    14    15    16   ar
    15    16     1    1
    16     1     2   ar
    17     2     3   ar
    18     3     4   ar
    19     4     5   ar
    20     5     6   ar
    21     6     7   ar
    22     7     8   ar
    23     8    25    1
    24    25    26    1
    25    26    27    1
    26    27    28    1
    27    28    29    1
    28    29    30    1
    29    30    31    1
    30     5     9   ar
    31    16    11   ar
    32     9     1   ar
    33    23    17   ar
    34     8     4   ar
    35    31    27    1
@<TRIPOS>MOLECULE
*****
 31 35 0 0 0
SMALL
GASTEIGER

@<TRIPOS>ATOM
      1 C           0.7631    1.7353   19.6402 C.ar    1  UNL1        0.0670
      2 C          -0.2450    2.0284   20.7115 C.ar    1  UNL1        0.0191
      3 C          -1.3716    2.9811   20.4409 C.ar    1  UNL1        0.0203
      4 C          -1.4900    3.6407   19.0989 C.ar    1  UNL1        0.0795
      5 C          -0.4819    3.3476   18.0276 C.ar    1  UNL1        0.0396
      6 C          -0.8541    4.1423   16.8110 C.ar    1  UNL1        0.1216
      7 N          -2.0922    4.9266   17.1305 N.ar    1  UNL1       -0.1677
      8 N          -2.4853    4.6166   18.5445 N.ar    1  UNL1       -0.2494
      9 C           0.6446    2.3949   18.2982 C.ar    1  UNL1        0.0207
     10 O           3.4544    2.7858   20.4483 O.2     1  UNL1       -0.2666
     11 C           3.2353    1.3079   20.3149 C.ar    1  UNL1        0.2648
     12 C           4.3619    0.3553   20.5855 C.ar    1  UNL1        0.0612
     13 C           4.1429   -1.1227   20.4520 C.ar    1  UNL1        0.0071
     14 C           2.7972   -1.6479   20.0479 C.ar    1  UNL1        0.0193
     15 C           1.6706   -0.6952   19.7773 C.ar    1  UNL1        0.0829
     16 N           1.8897    0.7826   19.9108 N.ar    1  UNL1       -0.2731
     17 C           5.2695   -2.0753   20.7226 C.ar    1  UNL1        0.0108
     18 C           6.3596   -2.2551   19.7081 C.ar    1  UNL1        0.0017
     19 C           7.4863   -3.2077   19.9787 C.ar    1  UNL1        0.0114
     20 C           7.5227   -3.9806   21.2638 C.ar    1  UNL1        0.0585
     21 CL          8.6493   -4.9332   21.5344 Cl      1  UNL1       -0.0822
     22 C           6.4325   -3.8008   22.2783 C.ar    1  UNL1        0.0228
     23 C           5.3059   -2.8481   22.0077 C.ar    1  UNL1        0.0585
     24 CL          4.2157   -2.6684   23.0221 Cl      1  UNL1       -0.0822
     25 C          -3.6661    5.1829   19.2757 C.3     1  UNL1        0.1447
     26 C          -4.8798    4.3337   19.5120 C.3     1  UNL1        0.0988
     27 N          -5.3932    4.1306   20.9067 N.3     1  UNL1       -0.2710
     28 C          -4.6894    3.3925   22.0066 C.3     1  UNL1        0.0722
     29 C          -5.5619    3.4358   23.2260 C.3     1  UNL1        0.0188
     30 C          -6.8048    4.2007   22.8797 C.3     1  UNL1        0.0188
     31 C          -6.7006    4.6301   21.4463 C.3     1  UNL1        0.0722
@<TRIPOS>BOND
     1    10    11    2
     2    11    12   ar
     3    12    13   ar
     4    13    17    1
     5    17    18   ar
     6    18    19   ar
     7    19    20   ar
     8    20    21    1
     9    20    22   ar
    10    22    23   ar
    11    23    24    1
    12    13    14   ar
    13    14    15   ar
    14    15    16   ar
    15    16     1    1
    16     1     2   ar
    17     2     3   ar
    18     3     4   ar
    19     4     5   ar
    20     5     6   ar
    21     6     7   ar
    22     7     8   ar
    23     8    25    1
    24    25    26    1
    25    26    27    1
    26    27    28    1
    27    28    29    1
    28    29    30    1
    29    30    31    1
    30     5     9   ar
    31    16    11   ar
    32     9     1   ar
    33    23    17   ar
    34     8     4   ar
    35    31    27    1
@<TRIPOS>MOLECULE
*****
 31 35 0 0 0
SMALL
GASTEIGER

@<TRIPOS>ATOM
      1 C           6.6557   -2.7381   26.6303 C.ar    1  UNL1        0.0670
      2 C           7.2641   -1.6351   27.4446 C.ar    1  UNL1        0.0191
      3 C           7.6876   -1.8938   28.8601 C.ar    1  UNL1        0.0203
      4 C           7.5027   -3.2556   29.4613 C.ar    1  UNL1        0.0795
      5 C           6.8943   -4.3586   28.6470 C.ar    1  UNL1        0.0396
      6 C           6.8374   -5.5892   29.5027 C.ar    1  UNL1        0.1216
      7 N           7.4106   -5.2468   30.8459 N.ar    1  UNL1       -0.1677
      8 N           7.8218   -3.8045   30.8204 N.ar    1  UNL1       -0.2494
      9 C           6.4708   -4.0999   27.2315 C.ar    1  UNL1        0.0207
     10 O           3.9600   -1.5492   26.0647 O.2     1  UNL1       -0.2666
     11 C           4.8843   -1.8849   24.9320 C.ar    1  UNL1        0.2648
     12 C           4.4607   -1.6262   23.5165 C.ar    1  UNL1        0.0612
     13 C           5.3850   -1.9620   22.3837 C.ar    1  UNL1        0.0071
     14 C           6.7328   -2.5564   22.6665 C.ar    1  UNL1        0.0193
     15 C           7.1564   -2.8152   24.0821 C.ar    1  UNL1        0.0829
     16 N           6.2321   -2.4794   25.2148 N.ar    1  UNL1       -0.2731
     17 C           4.9614   -1.7033   20.9683 C.ar    1  UNL1        0.0108
     18 C           5.1219   -0.3347   20.3757 C.ar    1  UNL1        0.0017
     19 C           4.6983   -0.0759   18.9601 C.ar    1  UNL1        0.0114
     20 C           4.1142   -1.1858   18.1373 C.ar    1  UNL1        0.0585
     21 CL          3.6906   -0.9271   16.7218 Cl      1  UNL1       -0.0822
     22 C           3.9537   -2.5544   18.7300 C.ar    1  UNL1        0.0228
     23 C           4.3773   -2.8131   20.1454 C.ar    1  UNL1        0.0585
     24 CL          4.2168   -4.1817   20.7380 Cl      1  UNL1       -0.0822
     25 C           8.4431   -3.0446   31.9546 C.3     1  UNL1        0.1447
     26 C           7.8366   -1.7511   32.4120 C.3     1  UNL1        0.0988
     27 N           6.4762   -1.7426   33.0437 N.3     1  UNL1       -0.2710
     28 C           5.9745   -0.7431   34.0434 C.3     1  UNL1        0.0722
     29 C           4.5669   -1.1149   34.4042 C.3     1  UNL1        0.0188
     30 C           4.1984   -2.3441   33.6274 C.3     1  UNL1        0.0188
     31 C           5.3785   -2.7320   32.7866 C.3     1  UNL1        0.0722
@<TRIPOS>BOND
     1    10    11    2
     2    11    12   ar
     3    12    13   ar
     4    13    17    1
     5    17    18   ar
     6    18    19   ar
     7    19    20   ar
     8    20    21    1
     9    20    22   ar
    10    22    23   ar
    11    23    24    1
    12    13    14   ar
    13    14    15   ar
    14    15    16   ar
    15    16     1    1
    16     1     2   ar
    17     2     3   ar
    18     3     4   ar
    19     4     5   ar
    20     5     6   ar
    21     6     7   ar
    22     7     8   ar
    23     8    25    1
    24    25    26    1
    25    26    27    1
    26    27    28    1
    27    28    29    1
    28    29    30    1
    29    30    31    1
    30     5     9   ar
    31    16    11   ar
    32     9     1   ar
    33    23    17   ar
    34     8     4   ar
    35    31    27    1
