@<TRIPOS>MOLECULE
*****
 27 30 0 0 0
SMALL
GASTEIGER

@<TRIPOS>ATOM
      1 C          -5.3228  -15.5303   23.8385 C.3     1  UNL1        0.1123
      2 N          -9.1372  -16.2143   23.6212 N.am    1  UNL1       -0.2414
      3 C          -9.0086  -15.7365   25.0373 C.3     1  UNL1        0.1212
      4 C          -7.5641  -15.4221   25.2910 C.3     1  UNL1        0.1169
      5 N          -6.7999  -15.7056   24.0318 N.am    1  UNL1       -0.2606
      6 C          -7.7721  -16.1952   22.9998 C.2     1  UNL1        0.3111
      7 O          -7.4380  -16.5954   21.5934 O.2     1  UNL1       -0.2520
      8 C         -12.3848  -15.9486   19.5736 C.3     1  UNL1        0.0311
      9 C         -12.0316  -16.5041   20.9215 C.ar    1  UNL1       -0.0206
     10 C         -12.9491  -17.4823   21.5934 C.ar    1  UNL1       -0.0042
     11 C         -12.5959  -18.0378   22.9412 C.ar    1  UNL1        0.0010
     12 C         -11.3253  -17.6151   23.6172 C.ar    1  UNL1        0.0149
     13 C         -10.4079  -16.6370   22.9453 C.ar    1  UNL1        0.0550
     14 C         -10.7611  -16.0815   21.5974 C.ar    1  UNL1        0.0107
     15 C          -4.3876  -16.6651   24.1347 C.3     1  UNL1        0.0939
     16 N          -3.5266  -17.2315   23.0449 N.3     1  UNL1       -0.2701
     17 C          -2.7051  -16.3162   22.1861 C.3     1  UNL1        0.0897
     18 C          -3.4870  -18.7131   22.8139 C.3     1  UNL1        0.0721
     19 C          -4.5499  -19.3715   21.9851 C.3     1  UNL1        0.0147
     20 C          -6.0122  -19.4327   22.3133 C.3     1  UNL1        0.0013
     21 C          -6.7030  -20.1834   21.2137 C.3     1  UNL1        0.0000
     22 C          -5.6676  -20.5863   20.2059 C.3     1  UNL1        0.0000
     23 C          -4.2052  -20.5251   19.8777 C.3     1  UNL1        0.0000
     24 C          -3.5143  -19.7744   20.9774 C.3     1  UNL1        0.0013
     25 C          -4.3368  -20.0845   20.6827 C.3     1  UNL1        0.0013
     26 C          -3.5016  -20.5955   19.5464 C.3     1  UNL1        0.0000
     27 C          -2.8530  -19.8907   20.5788 C.3     1  UNL1        0.0000
@<TRIPOS>BOND
     1     8     9    1
     2     9    10   ar
     3    10    11   ar
     4    11    12   ar
     5    12    13   ar
     6    13     2    1
     7     2     3    1
     8     3     4    1
     9     4     5    1
    10     5     1    1
    11     1    15    1
    12    15    16    1
    13    16    17    1
    14    16    18    1
    15    19    18    1
    16    19    20    1
    17    20    21    1
    18    22    21    1
    19    22    23    1
    20    23    24    1
    21    22    25    1
    22    25    26    1
    23    25    27    1
    24     5     6   am
    25     6     7    2
    26    13    14   ar
    27    14     9   ar
    28     6     2   am
    29    24    19    1
    30    25    19    1
@<TRIPOS>MOLECULE
*****
 27 30 0 0 0
SMALL
GASTEIGER

@<TRIPOS>ATOM
      1 C          -9.3459  -16.6766   24.1670 C.3     1  UNL1        0.1123
      2 N          -5.6408  -17.2725   23.1760 N.am    1  UNL1       -0.2414
      3 C          -5.5326  -15.9885   23.9438 C.3     1  UNL1        0.1212
      4 C          -6.9073  -15.6090   24.4085 C.3     1  UNL1        0.1169
      5 N          -7.8652  -16.6584   23.9279 N.am    1  UNL1       -0.2606
      6 C          -7.0825  -17.6865   23.1662 C.2     1  UNL1        0.3111
      7 O          -7.6430  -18.9133   22.5098 O.2     1  UNL1       -0.2520
      8 C          -3.9309  -20.8109   19.7765 C.3     1  UNL1        0.0311
      9 C          -3.6516  -19.7818   20.8315 C.ar    1  UNL1       -0.0206
     10 C          -2.2380  -19.4927   21.2417 C.ar    1  UNL1       -0.0042
     11 C          -1.9587  -18.4636   22.2966 C.ar    1  UNL1        0.0010
     12 C          -3.0929  -17.7236   22.9414 C.ar    1  UNL1        0.0149
     13 C          -4.5065  -18.0126   22.5312 C.ar    1  UNL1        0.0550
     14 C          -4.7858  -19.0417   21.4763 C.ar    1  UNL1        0.0107
     15 C          -9.9569  -17.7590   25.0068 C.3     1  UNL1        0.0939
     16 N         -10.5425  -18.9753   24.3528 N.3     1  UNL1       -0.2701
     17 C         -10.0101  -20.3369   24.6885 C.3     1  UNL1        0.0897
     18 C         -11.6603  -18.8300   23.3632 C.3     1  UNL1        0.0721
     19 C         -11.3566  -18.7362   21.8972 C.3     1  UNL1        0.0147
     20 C         -10.6566  -19.7761   21.0735 C.3     1  UNL1        0.0013
     21 C         -10.5671  -19.2685   19.6648 C.3     1  UNL1        0.0000
     22 C         -11.2118  -17.9149   19.6179 C.3     1  UNL1        0.0000
     23 C         -11.9119  -16.8750   20.4417 C.3     1  UNL1        0.0000
     24 C         -12.0014  -17.3826   21.8504 C.3     1  UNL1        0.0013
     25 C         -11.6998  -17.5859   20.9976 C.3     1  UNL1        0.0013
     26 C         -12.2820  -16.2366   20.6970 C.3     1  UNL1        0.0000
     27 C         -12.3661  -16.7131   22.0196 C.3     1  UNL1        0.0000
@<TRIPOS>BOND
     1     8     9    1
     2     9    10   ar
     3    10    11   ar
     4    11    12   ar
     5    12    13   ar
     6    13     2    1
     7     2     3    1
     8     3     4    1
     9     4     5    1
    10     5     1    1
    11     1    15    1
    12    15    16    1
    13    16    17    1
    14    16    18    1
    15    19    18    1
    16    19    20    1
    17    20    21    1
    18    22    21    1
    19    22    23    1
    20    23    24    1
    21    22    25    1
    22    25    26    1
    23    25    27    1
    24     5     6   am
    25     6     7    2
    26    13    14   ar
    27    14     9   ar
    28     6     2   am
    29    24    19    1
    30    25    19    1
@<TRIPOS>MOLECULE
*****
 27 30 0 0 0
SMALL
GASTEIGER

@<TRIPOS>ATOM
      1 C         -10.6002  -17.9833   22.2571 C.3     1  UNL1        0.1123
      2 N          -7.0329  -19.4930   22.0125 N.am    1  UNL1       -0.2414
      3 C          -7.7819  -20.6219   22.6564 C.3     1  UNL1        0.1212
      4 C          -9.2093  -20.1938   22.8264 C.3     1  UNL1        0.1169
      5 N          -9.3426  -18.8003   22.2876 N.am    1  UNL1       -0.2606
      6 C          -7.9976  -18.3672   21.7845 C.2     1  UNL1        0.3111
      7 O          -7.6739  -17.0412   21.1627 O.2     1  UNL1       -0.2520
      8 C          -2.1924  -17.8193   22.8891 C.3     1  UNL1        0.0311
      9 C          -3.1550  -18.6536   22.0970 C.ar    1  UNL1       -0.0206
     10 C          -2.6599  -19.4853   20.9510 C.ar    1  UNL1       -0.0042
     11 C          -3.6225  -20.3195   20.1589 C.ar    1  UNL1        0.0010
     12 C          -5.0801  -20.3221   20.5126 C.ar    1  UNL1        0.0149
     13 C          -5.5752  -19.4905   21.6586 C.ar    1  UNL1        0.0550
     14 C          -4.6126  -18.6562   22.4507 C.ar    1  UNL1        0.0107
     15 C         -10.8603  -16.9665   23.3288 C.3     1  UNL1        0.0939
     16 N          -9.8787  -16.7897   24.4492 N.3     1  UNL1       -0.2701
     17 C          -9.7550  -17.8421   25.5109 C.3     1  UNL1        0.0897
     18 C          -9.0209  -15.5606   24.5077 C.3     1  UNL1        0.0721
     19 C          -7.9196  -15.4623   25.5213 C.3     1  UNL1        0.0147
     20 C          -8.0946  -15.3903   27.0093 C.3     1  UNL1        0.0013
     21 C          -6.7331  -15.3021   27.6324 C.3     1  UNL1        0.0000
     22 C          -5.7165  -15.3196   26.5296 C.3     1  UNL1        0.0000
     23 C          -5.5414  -15.3916   25.0416 C.3     1  UNL1        0.0000
     24 C          -6.9030  -15.4797   24.4184 C.3     1  UNL1        0.0013
     25 C          -6.4498  -15.4186   25.2248 C.3     1  UNL1        0.0013
     26 C          -5.2575  -15.4187   24.3146 C.3     1  UNL1        0.0000
     27 C          -6.5359  -15.5015   23.7295 C.3     1  UNL1        0.0000
@<TRIPOS>BOND
     1     8     9    1
     2     9    10   ar
     3    10    11   ar
     4    11    12   ar
     5    12    13   ar
     6    13     2    1
     7     2     3    1
     8     3     4    1
     9     4     5    1
    10     5     1    1
    11     1    15    1
    12    15    16    1
    13    16    17    1
    14    16    18    1
    15    19    18    1
    16    19    20    1
    17    20    21    1
    18    22    21    1
    19    22    23    1
    20    23    24    1
    21    22    25    1
    22    25    26    1
    23    25    27    1
    24     5     6   am
    25     6     7    2
    26    13    14   ar
    27    14     9   ar
    28     6     2   am
    29    24    19    1
    30    25    19    1
@<TRIPOS>MOLECULE
*****
 27 30 0 0 0
SMALL
GASTEIGER

@<TRIPOS>ATOM
      1 C          -9.8320  -18.6888   21.9718 C.3     1  UNL1        0.1123
      2 N          -6.2897  -19.1804   20.4635 N.am    1  UNL1       -0.2414
      3 C          -7.1554  -19.6017   19.3133 C.3     1  UNL1        0.1212
      4 C          -8.5878  -19.4688   19.7383 C.3     1  UNL1        0.1169
      5 N          -8.6072  -18.9654   21.1512 N.am    1  UNL1       -0.2606
      6 C          -7.1870  -18.7871   21.5994 C.2     1  UNL1        0.3111
      7 O          -6.7420  -18.3010   22.9468 O.2     1  UNL1       -0.2520
      8 C          -1.7934  -17.7774   18.2690 C.3     1  UNL1        0.0311
      9 C          -2.5418  -18.4550   19.3784 C.ar    1  UNL1       -0.0206
     10 C          -1.7904  -19.1088   20.5000 C.ar    1  UNL1       -0.0042
     11 C          -2.5387  -19.7865   21.6094 C.ar    1  UNL1        0.0010
     12 C          -4.0384  -19.8103   21.5973 C.ar    1  UNL1        0.0149
     13 C          -4.7898  -19.1566   20.4757 C.ar    1  UNL1        0.0550
     14 C          -4.0415  -18.4789   19.3663 C.ar    1  UNL1        0.0107
     15 C          -9.9913  -17.3649   22.6588 C.3     1  UNL1        0.0939
     16 N          -9.7185  -17.2451   24.1289 N.3     1  UNL1       -0.2701
     17 C          -9.8983  -18.4349   25.0245 C.3     1  UNL1        0.0897
     18 C          -9.2658  -15.9355   24.7034 C.3     1  UNL1        0.0721
     19 C          -7.8011  -15.6488   24.8539 C.3     1  UNL1        0.0147
     20 C          -6.8253  -15.4335   23.7352 C.3     1  UNL1        0.0013
     21 C          -5.4763  -15.1787   24.3395 C.3     1  UNL1        0.0000
     22 C          -5.6184  -15.2365   25.8317 C.3     1  UNL1        0.0000
     23 C          -6.5941  -15.4517   26.9504 C.3     1  UNL1        0.0000
     24 C          -7.9433  -15.7066   26.3461 C.3     1  UNL1        0.0013
     25 C          -7.0552  -15.5270   26.1496 C.3     1  UNL1        0.0013
     26 C          -6.9408  -15.5341   27.6452 C.3     1  UNL1        0.0000
     27 C          -8.2075  -15.7734   27.0779 C.3     1  UNL1        0.0000
@<TRIPOS>BOND
     1     8     9    1
     2     9    10   ar
     3    10    11   ar
     4    11    12   ar
     5    12    13   ar
     6    13     2    1
     7     2     3    1
     8     3     4    1
     9     4     5    1
    10     5     1    1
    11     1    15    1
    12    15    16    1
    13    16    17    1
    14    16    18    1
    15    19    18    1
    16    19    20    1
    17    20    21    1
    18    22    21    1
    19    22    23    1
    20    23    24    1
    21    22    25    1
    22    25    26    1
    23    25    27    1
    24     5     6   am
    25     6     7    2
    26    13    14   ar
    27    14     9   ar
    28     6     2   am
    29    24    19    1
    30    25    19    1
@<TRIPOS>MOLECULE
*****
 27 30 0 0 0
SMALL
GASTEIGER

@<TRIPOS>ATOM
      1 C          -9.7044  -19.3498   20.3901 C.3     1  UNL1        0.1123
      2 N          -5.8347  -19.4068   20.6842 N.am    1  UNL1       -0.2414
      3 C          -6.0962  -20.7370   20.0422 C.3     1  UNL1        0.1212
      4 C          -7.5776  -20.8775   19.8539 C.3     1  UNL1        0.1169
      5 N          -8.2317  -19.6342   20.3795 N.am    1  UNL1       -0.2606
      6 C          -7.1545  -18.7252   20.8926 C.2     1  UNL1        0.3111
      7 O          -7.3609  -17.3722   21.5064 O.2     1  UNL1       -0.2520
      8 C          -1.0578  -17.8972   19.3046 C.3     1  UNL1        0.0311
      9 C          -2.1010  -18.1002   20.3631 C.ar    1  UNL1       -0.0206
     10 C          -1.7991  -17.7514   21.7904 C.ar    1  UNL1       -0.0042
     11 C          -2.8423  -17.9545   22.8490 C.ar    1  UNL1        0.0010
     12 C          -4.1875  -18.5062   22.4803 C.ar    1  UNL1        0.0149
     13 C          -4.4894  -18.8550   21.0530 C.ar    1  UNL1        0.0550
     14 C          -3.4462  -18.6520   19.9944 C.ar    1  UNL1        0.0107
     15 C         -10.2477  -18.1783   19.6266 C.3     1  UNL1        0.0939
     16 N         -10.7418  -16.9678   20.3618 N.3     1  UNL1       -0.2701
     17 C         -11.4362  -15.8681   19.6145 C.3     1  UNL1        0.0897
     18 C         -10.5415  -16.8571   21.8442 C.3     1  UNL1        0.0721
     19 C         -11.5574  -17.4362   22.7837 C.3     1  UNL1        0.0147
     20 C         -13.0431  -17.2465   22.7017 C.3     1  UNL1        0.0013
     21 C         -13.6698  -17.9997   23.8374 C.3     1  UNL1        0.0000
     22 C         -12.5715  -18.6549   24.6213 C.3     1  UNL1        0.0000
     23 C         -11.0858  -18.8445   24.7032 C.3     1  UNL1        0.0000
     24 C         -10.4590  -18.0913   23.5675 C.3     1  UNL1        0.0013
     25 C         -11.2659  -18.3066   23.9700 C.3     1  UNL1        0.0013
     26 C         -10.3606  -19.0523   24.9051 C.3     1  UNL1        0.0000
     27 C          -9.7721  -18.3451   23.8388 C.3     1  UNL1        0.0000
@<TRIPOS>BOND
     1     8     9    1
     2     9    10   ar
     3    10    11   ar
     4    11    12   ar
     5    12    13   ar
     6    13     2    1
     7     2     3    1
     8     3     4    1
     9     4     5    1
    10     5     1    1
    11     1    15    1
    12    15    16    1
    13    16    17    1
    14    16    18    1
    15    19    18    1
    16    19    20    1
    17    20    21    1
    18    22    21    1
    19    22    23    1
    20    23    24    1
    21    22    25    1
    22    25    26    1
    23    25    27    1
    24     5     6   am
    25     6     7    2
    26    13    14   ar
    27    14     9   ar
    28     6     2   am
    29    24    19    1
    30    25    19    1
@<TRIPOS>MOLECULE
*****
 27 30 0 0 0
SMALL
GASTEIGER

@<TRIPOS>ATOM
      1 C          -5.3306  -15.5471   23.9824 C.3     1  UNL1        0.1123
      2 N          -9.1335  -16.2439   23.6405 N.am    1  UNL1       -0.2414
      3 C          -9.0738  -15.6251   25.0056 C.3     1  UNL1        0.1212
      4 C          -7.6419  -15.2888   25.2998 C.3     1  UNL1        0.1169
      5 N          -6.8167  -15.6997   24.1165 N.am    1  UNL1       -0.2606
      6 C          -7.7385  -16.2900   23.0910 C.2     1  UNL1        0.3111
      7 O          -7.3361  -16.8313   21.7513 O.2     1  UNL1       -0.2520
      8 C         -13.9655  -18.1421   23.8625 C.3     1  UNL1        0.0311
      9 C         -12.7870  -17.6802   23.0577 C.ar    1  UNL1       -0.0206
     10 C         -12.8459  -17.7054   21.5590 C.ar    1  UNL1       -0.0042
     11 C         -11.6674  -17.2435   20.7542 C.ar    1  UNL1        0.0010
     12 C         -10.4299  -16.7563   21.4480 C.ar    1  UNL1        0.0149
     13 C         -10.3710  -16.7311   22.9466 C.ar    1  UNL1        0.0550
     14 C         -11.5495  -17.1930   23.7514 C.ar    1  UNL1        0.0107
     15 C          -4.5661  -16.4392   23.0497 C.3     1  UNL1        0.0939
     16 N          -3.5246  -17.3734   23.5905 N.3     1  UNL1       -0.2701
     17 C          -3.5093  -17.7150   25.0510 C.3     1  UNL1        0.0897
     18 C          -2.4984  -17.9659   22.6708 C.3     1  UNL1        0.0721
     19 C          -2.9326  -18.7263   21.4529 C.3     1  UNL1        0.0147
     20 C          -3.9016  -19.8710   21.4272 C.3     1  UNL1        0.0013
     21 C          -4.0419  -20.3276   20.0053 C.3     1  UNL1        0.0000
     22 C          -3.1596  -19.4650   19.1522 C.3     1  UNL1        0.0000
     23 C          -2.1907  -18.3203   19.1780 C.3     1  UNL1        0.0000
     24 C          -2.0503  -17.8637   20.5999 C.3     1  UNL1        0.0013
     25 C          -2.4741  -18.4753   20.0469 C.3     1  UNL1        0.0013
     26 C          -1.6806  -17.7579   18.9954 C.3     1  UNL1        0.0000
     27 C          -1.5488  -17.3292   20.3305 C.3     1  UNL1        0.0000
@<TRIPOS>BOND
     1     8     9    1
     2     9    10   ar
     3    10    11   ar
     4    11    12   ar
     5    12    13   ar
     6    13     2    1
     7     2     3    1
     8     3     4    1
     9     4     5    1
    10     5     1    1
    11     1    15    1
    12    15    16    1
    13    16    17    1
    14    16    18    1
    15    19    18    1
    16    19    20    1
    17    20    21    1
    18    22    21    1
    19    22    23    1
    20    23    24    1
    21    22    25    1
    22    25    26    1
    23    25    27    1
    24     5     6   am
    25     6     7    2
    26    13    14   ar
    27    14     9   ar
    28     6     2   am
    29    24    19    1
    30    25    19    1
@<TRIPOS>MOLECULE
*****
 27 30 0 0 0
SMALL
GASTEIGER

@<TRIPOS>ATOM
      1 C          -7.7291  -19.1482   20.2186 C.3     1  UNL1        0.1123
      2 N          -7.9818  -16.9009   23.3730 N.am    1  UNL1       -0.2414
      3 C          -9.3926  -16.8487   22.8662 C.3     1  UNL1        0.1212
      4 C          -9.4696  -17.6842   21.6229 C.3     1  UNL1        0.1169
      5 N          -8.1065  -18.2528   21.3612 N.am    1  UNL1       -0.2606
      6 C          -7.1869  -17.7687   22.4429 C.2     1  UNL1        0.3111
      7 O          -5.7286  -18.0950   22.5718 O.2     1  UNL1       -0.2520
      8 C          -8.7959  -14.8290   28.0682 C.3     1  UNL1        0.0311
      9 C          -7.8649  -15.1712   26.9430 C.ar    1  UNL1       -0.0206
     10 C          -6.4099  -14.8196   27.0401 C.ar    1  UNL1       -0.0042
     11 C          -5.4789  -15.1618   25.9149 C.ar    1  UNL1        0.0010
     12 C          -6.0028  -15.8556   24.6926 C.ar    1  UNL1        0.0149
     13 C          -7.4578  -16.2071   24.5954 C.ar    1  UNL1        0.0550
     14 C          -8.3888  -15.8649   25.7206 C.ar    1  UNL1        0.0107
     15 C          -6.3083  -19.1951   19.7398 C.3     1  UNL1        0.0939
     16 N          -5.4522  -20.3879   20.0469 N.3     1  UNL1       -0.2701
     17 C          -6.0650  -21.6137   20.6568 C.3     1  UNL1        0.0897
     18 C          -3.9835  -20.3549   19.7441 C.3     1  UNL1        0.0721
     19 C          -3.0743  -19.4624   20.5358 C.3     1  UNL1        0.0147
     20 C          -2.8818  -19.4960   22.0231 C.3     1  UNL1        0.0013
     21 C          -1.8866  -18.4340   22.3857 C.3     1  UNL1        0.0000
     22 C          -1.4640  -17.7440   21.1227 C.3     1  UNL1        0.0000
     23 C          -1.6565  -17.7104   19.6354 C.3     1  UNL1        0.0000
     24 C          -2.6518  -18.7724   19.2727 C.3     1  UNL1        0.0013
     25 C          -2.1980  -18.3796   19.9794 C.3     1  UNL1        0.0013
     26 C          -1.6240  -17.5451   18.8729 C.3     1  UNL1        0.0000
     27 C          -2.5585  -18.5423   18.5324 C.3     1  UNL1        0.0000
@<TRIPOS>BOND
     1     8     9    1
     2     9    10   ar
     3    10    11   ar
     4    11    12   ar
     5    12    13   ar
     6    13     2    1
     7     2     3    1
     8     3     4    1
     9     4     5    1
    10     5     1    1
    11     1    15    1
    12    15    16    1
    13    16    17    1
    14    16    18    1
    15    19    18    1
    16    19    20    1
    17    20    21    1
    18    22    21    1
    19    22    23    1
    20    23    24    1
    21    22    25    1
    22    25    26    1
    23    25    27    1
    24     5     6   am
    25     6     7    2
    26    13    14   ar
    27    14     9   ar
    28     6     2   am
    29    24    19    1
    30    25    19    1
@<TRIPOS>MOLECULE
*****
 27 30 0 0 0
SMALL
GASTEIGER

@<TRIPOS>ATOM
      1 C          -7.8729  -15.1502   24.9470 C.3     1  UNL1        0.1123
      2 N          -4.5822  -16.8491   23.7854 N.am    1  UNL1       -0.2414
      3 C          -4.1897  -16.3579   25.1473 C.3     1  UNL1        0.1212
      4 C          -5.3746  -15.6617   25.7481 C.3     1  UNL1        0.1169
      5 N          -6.4994  -15.7227   24.7577 N.am    1  UNL1       -0.2606
      6 C          -6.0097  -16.4565   23.5447 C.2     1  UNL1        0.3111
      7 O          -6.8074  -16.7468   22.3080 O.2     1  UNL1       -0.2520
      8 C          -0.6651  -16.9098   20.3716 C.3     1  UNL1        0.0311
      9 C          -1.7431  -17.6313   21.1248 C.ar    1  UNL1       -0.0206
     10 C          -1.9407  -19.1046   20.9244 C.ar    1  UNL1       -0.0042
     11 C          -3.0187  -19.8262   21.6776 C.ar    1  UNL1        0.0010
     12 C          -3.8992  -19.0744   22.6312 C.ar    1  UNL1        0.0149
     13 C          -3.7016  -17.6010   22.8317 C.ar    1  UNL1        0.0550
     14 C          -2.6236  -16.8795   22.0785 C.ar    1  UNL1        0.0107
     15 C          -8.9670  -16.0001   25.5221 C.3     1  UNL1        0.0939
     16 N          -9.3679  -17.2723   24.8360 N.3     1  UNL1       -0.2701
     17 C          -9.7910  -18.4609   25.6474 C.3     1  UNL1        0.0897
     18 C          -9.3456  -17.3559   23.3385 C.3     1  UNL1        0.0721
     19 C         -10.6322  -17.3457   22.5675 C.3     1  UNL1        0.0147
     20 C         -11.6454  -16.2397   22.5577 C.3     1  UNL1        0.0013
     21 C         -12.7709  -16.6502   21.6551 C.3     1  UNL1        0.0000
     22 C         -12.4532  -18.0099   21.1070 C.3     1  UNL1        0.0000
     23 C         -11.4400  -19.1159   21.1167 C.3     1  UNL1        0.0000
     24 C         -10.3144  -18.7054   22.0194 C.3     1  UNL1        0.0013
     25 C         -11.1314  -18.4398   21.6709 C.3     1  UNL1        0.0013
     26 C         -11.0419  -19.7770   20.9972 C.3     1  UNL1        0.0000
     27 C          -9.9852  -19.3916   21.8448 C.3     1  UNL1        0.0000
@<TRIPOS>BOND
     1     8     9    1
     2     9    10   ar
     3    10    11   ar
     4    11    12   ar
     5    12    13   ar
     6    13     2    1
     7     2     3    1
     8     3     4    1
     9     4     5    1
    10     5     1    1
    11     1    15    1
    12    15    16    1
    13    16    17    1
    14    16    18    1
    15    19    18    1
    16    19    20    1
    17    20    21    1
    18    22    21    1
    19    22    23    1
    20    23    24    1
    21    22    25    1
    22    25    26    1
    23    25    27    1
    24     5     6   am
    25     6     7    2
    26    13    14   ar
    27    14     9   ar
    28     6     2   am
    29    24    19    1
    30    25    19    1
@<TRIPOS>MOLECULE
*****
 27 30 0 0 0
SMALL
GASTEIGER

@<TRIPOS>ATOM
      1 C         -13.1769   -1.6415   18.6851 C.3     1  UNL1        0.1123
      2 N         -15.0785   -4.9970   18.2504 N.am    1  UNL1       -0.2414
      3 C         -15.4553   -4.2844   16.9855 C.3     1  UNL1        0.1212
      4 C         -14.7889   -2.9406   16.9944 C.3     1  UNL1        0.1169
      5 N         -14.0001   -2.8228   18.2648 N.am    1  UNL1       -0.2606
      6 C         -14.1791   -4.0937   19.0411 C.2     1  UNL1        0.3111
      7 O         -13.5664   -4.4065   20.3740 O.2     1  UNL1       -0.2520
      8 C         -18.6162   -8.1287   20.4133 C.3     1  UNL1        0.0311
      9 C         -17.2919   -7.9375   19.7353 C.ar    1  UNL1       -0.0206
     10 C         -16.4120   -9.1210   19.4608 C.ar    1  UNL1       -0.0042
     11 C         -15.0877   -8.9298   18.7829 C.ar    1  UNL1        0.0010
     12 C         -14.6432   -7.5552   18.3794 C.ar    1  UNL1        0.0149
     13 C         -15.5230   -6.3718   18.6539 C.ar    1  UNL1        0.0550
     14 C         -16.8473   -6.5629   19.3318 C.ar    1  UNL1        0.0107
     15 C         -11.7321   -1.8238   19.0447 C.3     1  UNL1        0.0939
     16 N         -10.8127   -2.5525   18.1101 N.3     1  UNL1       -0.2701
     17 C         -10.4527   -1.9448   16.7868 C.3     1  UNL1        0.0897
     18 C         -10.2533   -3.8890   18.4987 C.3     1  UNL1        0.0721
     19 C         -10.7312   -5.1317   17.8079 C.3     1  UNL1        0.0147
     20 C         -11.7071   -5.1881   16.6701 C.3     1  UNL1        0.0013
     21 C         -11.8961   -6.6275   16.2926 C.3     1  UNL1        0.0000
     22 C         -11.0371   -7.4606   17.1971 C.3     1  UNL1        0.0000
     23 C         -10.0613   -7.4042   18.3348 C.3     1  UNL1        0.0000
     24 C          -9.8722   -5.9648   18.7124 C.3     1  UNL1        0.0013
     25 C         -10.3172   -6.5362   18.1336 C.3     1  UNL1        0.0013
     26 C          -9.5542   -7.5724   18.9043 C.3     1  UNL1        0.0000
     27 C          -9.3766   -6.2210   19.2588 C.3     1  UNL1        0.0000
@<TRIPOS>BOND
     1     8     9    1
     2     9    10   ar
     3    10    11   ar
     4    11    12   ar
     5    12    13   ar
     6    13     2    1
     7     2     3    1
     8     3     4    1
     9     4     5    1
    10     5     1    1
    11     1    15    1
    12    15    16    1
    13    16    17    1
    14    16    18    1
    15    19    18    1
    16    19    20    1
    17    20    21    1
    18    22    21    1
    19    22    23    1
    20    23    24    1
    21    22    25    1
    22    25    26    1
    23    25    27    1
    24     5     6   am
    25     6     7    2
    26    13    14   ar
    27    14     9   ar
    28     6     2   am
    29    24    19    1
    30    25    19    1
