@<TRIPOS>MOLECULE
*****
 28 31 0 0 0
SMALL
GASTEIGER

@<TRIPOS>ATOM
      1 N          -8.7350  -15.9140   24.8527 N.3     1  UNL1       -0.2962
      2 H          -8.9176  -15.7034   25.8338 H       1  UNL1        0.1235
      3 C          -7.2453  -15.9966   24.6975 C.3     1  UNL1        0.0545
      4 C          -6.2280  -15.5766   25.7167 C.3     1  UNL1        0.0161
      5 C          -4.8654  -15.8341   25.1449 C.3     1  UNL1        0.0058
      6 C          -5.0405  -16.4132   23.7723 C.3     1  UNL1        0.0237
      7 C          -6.5113  -16.5136   23.4958 C.3     1  UNL1        0.0201
      8 C          -3.9383  -16.8204   22.8401 C.ar    1  UNL1       -0.0225
      9 C          -3.8172  -18.2495   22.4007 C.ar    1  UNL1       -0.0042
     10 C          -2.7150  -18.6568   21.4684 C.ar    1  UNL1        0.0008
     11 C          -1.7338  -17.6349   20.9754 C.ar    1  UNL1        0.0140
     12 C          -1.8548  -16.2058   21.4148 C.ar    1  UNL1        0.0008
     13 C          -2.9571  -15.7985   22.3471 C.ar    1  UNL1       -0.0042
     14 C          -0.6315  -18.0421   20.0431 C.2     1  UNL1        0.0729
     15 O           0.7606  -18.2361   20.5669 O.co2   1  UNL1       -0.5446
     16 O          -0.9213  -18.2554   18.5869 O.co2   1  UNL1       -0.5446
     17 C          -9.7129  -18.2471   25.4447 C.3     1  UNL1        0.0220
     18 C          -9.5927  -17.0917   24.4957 C.3     1  UNL1        0.0768
     19 C         -10.3301  -17.1140   23.1896 C.ar    1  UNL1       -0.0080
     20 C         -11.5923  -16.3201   23.0273 C.ar    1  UNL1       -0.0030
     21 C         -12.3297  -16.3424   21.7213 C.ar    1  UNL1       -0.0003
     22 C         -11.8049  -17.1587   20.5775 C.ar    1  UNL1       -0.0000
     23 C         -10.5426  -17.9527   20.7398 C.ar    1  UNL1       -0.0003
     24 C         -10.0178  -18.7690   19.5960 C.ar    1  UNL1       -0.0000
     25 C          -8.7555  -19.5629   19.7583 C.ar    1  UNL1       -0.0000
     26 C          -8.0182  -19.5406   21.0644 C.ar    1  UNL1       -0.0000
     27 C          -8.5430  -18.7244   22.2081 C.ar    1  UNL1       -0.0003
     28 C          -9.8052  -17.9304   22.0458 C.ar    1  UNL1       -0.0027
@<TRIPOS>UNITY_ATOM_ATTR
15 1
charge -1
@<TRIPOS>BOND
     1    18    17    1
     2    18     1    1
     3     1     3    1
     4     3     4    1
     5     4     5    1
     6     5     6    1
     7     6     8    1
     8     8     9   ar
     9     9    10   ar
    10    10    11   ar
    11    11    14    1
    12    14    15   ar
    13    14    16   ar
    14    11    12   ar
    15    12    13   ar
    16     6     7    1
    17    18    19    1
    18    19    20   ar
    19    20    21   ar
    20    21    22   ar
    21    22    23   ar
    22    23    24   ar
    23    24    25   ar
    24    25    26   ar
    25    26    27   ar
    26    27    28   ar
    27     7     3    1
    28    28    19   ar
    29    13     8   ar
    30    28    23   ar
    31     1     2    1
@<TRIPOS>MOLECULE
*****
 28 31 0 0 0
SMALL
GASTEIGER

@<TRIPOS>ATOM
      1 N          -9.6331  -19.1836   20.2778 N.3     1  UNL1       -0.2962
      2 H          -9.5588  -18.7199   19.3724 H       1  UNL1        0.1235
      3 C          -8.2324  -19.4395   20.7495 C.3     1  UNL1        0.0545
      4 C          -7.8358  -20.3170   21.8997 C.3     1  UNL1        0.0161
      5 C          -6.3406  -20.2826   22.0149 C.3     1  UNL1        0.0058
      6 C          -5.8131  -19.3839   20.9360 C.3     1  UNL1        0.0237
      7 C          -6.9823  -18.8628   20.1540 C.3     1  UNL1        0.0201
      8 C          -4.3699  -19.0627   20.6834 C.ar    1  UNL1       -0.0225
      9 C          -3.3603  -19.2353   21.7793 C.ar    1  UNL1       -0.0042
     10 C          -1.9170  -18.9141   21.5269 C.ar    1  UNL1        0.0008
     11 C          -1.4833  -18.4204   20.1785 C.ar    1  UNL1        0.0140
     12 C          -2.4929  -18.2478   19.0826 C.ar    1  UNL1        0.0008
     13 C          -3.9362  -18.5690   19.3351 C.ar    1  UNL1       -0.0042
     14 C          -0.0399  -18.0992   19.9260 C.2     1  UNL1        0.0729
     15 O           0.9167  -19.1914   19.5494 O.co2   1  UNL1       -0.5446
     16 O           0.4467  -16.6857   20.0502 O.co2   1  UNL1       -0.5446
     17 C         -11.7066  -17.6293   20.4644 C.3     1  UNL1        0.0220
     18 C         -10.5663  -18.3572   21.1123 C.3     1  UNL1        0.0768
     19 C         -10.3591  -18.2586   22.5947 C.ar    1  UNL1       -0.0080
     20 C         -11.0613  -19.2123   23.5151 C.ar    1  UNL1       -0.0030
     21 C         -10.8541  -19.1138   24.9975 C.ar    1  UNL1       -0.0003
     22 C          -9.9446  -18.0616   25.5593 C.ar    1  UNL1       -0.0000
     23 C          -9.2423  -17.1079   24.6389 C.ar    1  UNL1       -0.0003
     24 C          -8.3328  -16.0557   25.2007 C.ar    1  UNL1       -0.0000
     25 C          -7.6306  -15.1020   24.2802 C.ar    1  UNL1       -0.0000
     26 C          -7.8378  -15.2005   22.7979 C.ar    1  UNL1       -0.0000
     27 C          -8.7473  -16.2527   22.2360 C.ar    1  UNL1       -0.0003
     28 C          -9.4495  -17.2064   23.1565 C.ar    1  UNL1       -0.0027
@<TRIPOS>UNITY_ATOM_ATTR
15 1
charge -1
@<TRIPOS>BOND
     1    18    17    1
     2    18     1    1
     3     1     3    1
     4     3     4    1
     5     4     5    1
     6     5     6    1
     7     6     8    1
     8     8     9   ar
     9     9    10   ar
    10    10    11   ar
    11    11    14    1
    12    14    15   ar
    13    14    16   ar
    14    11    12   ar
    15    12    13   ar
    16     6     7    1
    17    18    19    1
    18    19    20   ar
    19    20    21   ar
    20    21    22   ar
    21    22    23   ar
    22    23    24   ar
    23    24    25   ar
    24    25    26   ar
    25    26    27   ar
    26    27    28   ar
    27     7     3    1
    28    28    19   ar
    29    13     8   ar
    30    28    23   ar
    31     1     2    1
@<TRIPOS>MOLECULE
*****
 28 31 0 0 0
SMALL
GASTEIGER

@<TRIPOS>ATOM
      1 N         -11.2994  -19.4903   21.0132 N.3     1  UNL1       -0.2962
      2 H         -11.9619  -19.4372   20.2394 H       1  UNL1        0.1235
      3 C          -9.9281  -19.5354   20.4069 C.3     1  UNL1        0.0545
      4 C          -9.6079  -19.8334   18.9720 C.3     1  UNL1        0.0161
      5 C          -8.1182  -19.7726   18.8074 C.3     1  UNL1        0.0058
      6 C          -7.5177  -19.4371   20.1404 C.3     1  UNL1        0.0237
      7 C          -8.6364  -19.2905   21.1290 C.3     1  UNL1        0.0201
      8 C          -6.0555  -19.2764   20.4334 C.ar    1  UNL1       -0.0225
      9 C          -5.5836  -19.1570   21.8522 C.ar    1  UNL1       -0.0042
     10 C          -4.1213  -18.9963   22.1453 C.ar    1  UNL1        0.0008
     11 C          -3.1309  -18.9550   21.0195 C.ar    1  UNL1        0.0140
     12 C          -3.6028  -19.0744   19.6007 C.ar    1  UNL1        0.0008
     13 C          -5.0651  -19.2351   19.3076 C.ar    1  UNL1       -0.0042
     14 C          -1.6686  -18.7943   21.3125 C.2     1  UNL1        0.0729
     15 O          -0.6694  -18.8482   20.1951 O.co2   1  UNL1       -0.5446
     16 O          -1.2055  -18.5797   22.7230 O.co2   1  UNL1       -0.5446
     17 C         -12.8204  -17.4889   21.6697 C.3     1  UNL1        0.0220
     18 C         -11.6611  -18.3923   21.9691 C.3     1  UNL1        0.0768
     19 C         -10.8633  -18.1978   23.2244 C.ar    1  UNL1       -0.0080
     20 C         -11.1518  -19.0367   24.4339 C.ar    1  UNL1       -0.0030
     21 C         -10.3540  -18.8422   25.6892 C.ar    1  UNL1       -0.0003
     22 C          -9.2677  -17.8088   25.7350 C.ar    1  UNL1       -0.0000
     23 C          -8.9792  -16.9699   24.5254 C.ar    1  UNL1       -0.0003
     24 C          -7.8929  -15.9365   24.5711 C.ar    1  UNL1       -0.0000
     25 C          -7.6045  -15.0976   23.3616 C.ar    1  UNL1       -0.0000
     26 C          -8.4022  -15.2921   22.1063 C.ar    1  UNL1       -0.0000
     27 C          -9.4885  -16.3255   22.0605 C.ar    1  UNL1       -0.0003
     28 C          -9.7770  -17.1644   23.2701 C.ar    1  UNL1       -0.0027
@<TRIPOS>UNITY_ATOM_ATTR
15 1
charge -1
@<TRIPOS>BOND
     1    18    17    1
     2    18     1    1
     3     1     3    1
     4     3     4    1
     5     4     5    1
     6     5     6    1
     7     6     8    1
     8     8     9   ar
     9     9    10   ar
    10    10    11   ar
    11    11    14    1
    12    14    15   ar
    13    14    16   ar
    14    11    12   ar
    15    12    13   ar
    16     6     7    1
    17    18    19    1
    18    19    20   ar
    19    20    21   ar
    20    21    22   ar
    21    22    23   ar
    22    23    24   ar
    23    24    25   ar
    24    25    26   ar
    25    26    27   ar
    26    27    28   ar
    27     7     3    1
    28    28    19   ar
    29    13     8   ar
    30    28    23   ar
    31     1     2    1
@<TRIPOS>MOLECULE
*****
 28 31 0 0 0
SMALL
GASTEIGER

@<TRIPOS>ATOM
      1 N          -9.7327  -19.5834   22.8824 N.3     1  UNL1       -0.2962
      2 H         -10.5142  -20.0668   22.4397 H       1  UNL1        0.1235
      3 C          -8.6141  -19.5631   21.8832 C.3     1  UNL1        0.0545
      4 C          -8.7141  -19.9587   20.4396 C.3     1  UNL1        0.0161
      5 C          -7.3609  -19.7837   19.8164 C.3     1  UNL1        0.0058
      6 C          -6.4247  -19.2801   20.8747 C.3     1  UNL1        0.0237
      7 C          -7.1993  -19.1438   22.1520 C.3     1  UNL1        0.0201
      8 C          -4.9696  -18.9677   20.6883 C.ar    1  UNL1       -0.0225
      9 C          -4.3940  -18.8725   19.3063 C.ar    1  UNL1       -0.0042
     10 C          -2.9388  -18.5601   19.1199 C.ar    1  UNL1        0.0008
     11 C          -2.0592  -18.3429   20.3153 C.ar    1  UNL1        0.0140
     12 C          -2.6348  -18.4382   21.6972 C.ar    1  UNL1        0.0008
     13 C          -4.0900  -18.7506   21.8837 C.ar    1  UNL1       -0.0042
     14 C          -0.6039  -18.0305   20.1289 C.2     1  UNL1        0.0729
     15 O           0.3395  -19.1004   19.6650 O.co2   1  UNL1       -0.5446
     16 O          -0.0921  -16.6481   20.4064 O.co2   1  UNL1       -0.5446
     17 C         -11.7053  -18.2096   23.8681 C.3     1  UNL1        0.0220
     18 C         -10.2737  -18.2954   23.4288 C.3     1  UNL1        0.0768
     19 C          -9.3829  -17.0933   23.5360 C.ar    1  UNL1       -0.0080
     20 C          -9.0523  -16.2933   22.3110 C.ar    1  UNL1       -0.0030
     21 C          -8.1616  -15.0912   22.4181 C.ar    1  UNL1       -0.0003
     22 C          -7.6015  -14.6890   23.7502 C.ar    1  UNL1       -0.0000
     23 C          -7.9321  -15.4891   24.9753 C.ar    1  UNL1       -0.0003
     24 C          -7.3720  -15.0869   26.3074 C.ar    1  UNL1       -0.0000
     25 C          -7.7027  -15.8869   27.5324 C.ar    1  UNL1       -0.0000
     26 C          -8.5934  -17.0890   27.4252 C.ar    1  UNL1       -0.0000
     27 C          -9.1535  -17.4912   26.0931 C.ar    1  UNL1       -0.0003
     28 C          -8.8229  -16.6912   24.8682 C.ar    1  UNL1       -0.0027
@<TRIPOS>UNITY_ATOM_ATTR
15 1
charge -1
@<TRIPOS>BOND
     1    18    17    1
     2    18     1    1
     3     1     3    1
     4     3     4    1
     5     4     5    1
     6     5     6    1
     7     6     8    1
     8     8     9   ar
     9     9    10   ar
    10    10    11   ar
    11    11    14    1
    12    14    15   ar
    13    14    16   ar
    14    11    12   ar
    15    12    13   ar
    16     6     7    1
    17    18    19    1
    18    19    20   ar
    19    20    21   ar
    20    21    22   ar
    21    22    23   ar
    22    23    24   ar
    23    24    25   ar
    24    25    26   ar
    25    26    27   ar
    26    27    28   ar
    27     7     3    1
    28    28    19   ar
    29    13     8   ar
    30    28    23   ar
    31     1     2    1
@<TRIPOS>MOLECULE
*****
 28 31 0 0 0
SMALL
GASTEIGER

@<TRIPOS>ATOM
      1 N          -8.7132  -15.7524   25.2387 N.3     1  UNL1       -0.2962
      2 H          -8.9265  -16.2467   26.1051 H       1  UNL1        0.1235
      3 C          -7.2379  -15.8973   25.0095 C.3     1  UNL1        0.0545
      4 C          -6.1551  -15.5462   25.9865 C.3     1  UNL1        0.0161
      5 C          -4.8344  -15.8507   25.3437 C.3     1  UNL1        0.0058
      6 C          -5.1009  -16.3899   23.9696 C.3     1  UNL1        0.0237
      7 C          -6.5863  -16.4187   23.7630 C.3     1  UNL1        0.0201
      8 C          -4.0640  -16.8240   22.9765 C.ar    1  UNL1       -0.0225
      9 C          -4.0173  -18.2509   22.5162 C.ar    1  UNL1       -0.0042
     10 C          -2.9804  -18.6851   21.5231 C.ar    1  UNL1        0.0008
     11 C          -1.9902  -17.6924   20.9902 C.ar    1  UNL1        0.0140
     12 C          -2.0369  -16.2655   21.4505 C.ar    1  UNL1        0.0008
     13 C          -3.0738  -15.8313   22.4436 C.ar    1  UNL1       -0.0042
     14 C          -0.9533  -18.1265   19.9970 C.2     1  UNL1        0.0729
     15 O           0.4615  -18.3535   20.4406 O.co2   1  UNL1       -0.5446
     16 O          -1.3312  -18.3338   18.5603 O.co2   1  UNL1       -0.5446
     17 C         -10.4307  -15.2678   23.3505 C.3     1  UNL1        0.0220
     18 C          -9.6844  -16.2465   24.2079 C.3     1  UNL1        0.0768
     19 C          -9.9094  -17.7194   24.0345 C.ar    1  UNL1       -0.0080
     20 C          -9.8420  -18.6333   25.2219 C.ar    1  UNL1       -0.0030
     21 C         -10.0670  -20.1062   25.0485 C.ar    1  UNL1       -0.0003
     22 C         -10.3593  -20.6651   23.6876 C.ar    1  UNL1       -0.0000
     23 C         -10.4266  -19.7511   22.5000 C.ar    1  UNL1       -0.0003
     24 C         -10.7189  -20.3101   21.1391 C.ar    1  UNL1       -0.0000
     25 C         -10.7862  -19.3962   19.9516 C.ar    1  UNL1       -0.0000
     26 C         -10.5613  -17.9233   20.1251 C.ar    1  UNL1       -0.0000
     27 C         -10.2690  -17.3644   21.4860 C.ar    1  UNL1       -0.0003
     28 C         -10.2017  -18.2783   22.6735 C.ar    1  UNL1       -0.0027
@<TRIPOS>UNITY_ATOM_ATTR
15 1
charge -1
@<TRIPOS>BOND
     1    18    17    1
     2    18     1    1
     3     1     3    1
     4     3     4    1
     5     4     5    1
     6     5     6    1
     7     6     8    1
     8     8     9   ar
     9     9    10   ar
    10    10    11   ar
    11    11    14    1
    12    14    15   ar
    13    14    16   ar
    14    11    12   ar
    15    12    13   ar
    16     6     7    1
    17    18    19    1
    18    19    20   ar
    19    20    21   ar
    20    21    22   ar
    21    22    23   ar
    22    23    24   ar
    23    24    25   ar
    24    25    26   ar
    25    26    27   ar
    26    27    28   ar
    27     7     3    1
    28    28    19   ar
    29    13     8   ar
    30    28    23   ar
    31     1     2    1
@<TRIPOS>MOLECULE
*****
 28 31 0 0 0
SMALL
GASTEIGER

@<TRIPOS>ATOM
      1 N          -8.8851  -16.9781   24.9933 N.3     1  UNL1       -0.2962
      2 H          -8.8666  -17.1007   26.0058 H       1  UNL1        0.1235
      3 C          -7.5109  -16.5365   24.5854 C.3     1  UNL1        0.0545
      4 C          -6.8392  -15.2577   24.9902 C.3     1  UNL1        0.0161
      5 C          -5.4802  -15.2272   24.3560 C.3     1  UNL1        0.0058
      6 C          -5.3119  -16.4869   23.5594 C.3     1  UNL1        0.0237
      7 C          -6.5669  -17.2962   23.7012 C.3     1  UNL1        0.0201
      8 C          -4.1011  -16.8701   22.7612 C.ar    1  UNL1       -0.0225
      9 C          -3.0903  -15.8278   22.3848 C.ar    1  UNL1       -0.0042
     10 C          -1.8795  -16.2109   21.5865 C.ar    1  UNL1        0.0008
     11 C          -1.6796  -17.6364   21.1647 C.ar    1  UNL1        0.0140
     12 C          -2.6904  -18.6788   21.5412 C.ar    1  UNL1        0.0008
     13 C          -3.9012  -18.2956   22.3394 C.ar    1  UNL1       -0.0042
     14 C          -0.4687  -18.0196   20.3665 C.2     1  UNL1        0.0729
     15 O          -0.3562  -19.4001   19.7905 O.co2   1  UNL1       -0.5446
     16 O           0.6295  -17.0224   20.1442 O.co2   1  UNL1       -0.5446
     17 C         -10.0512  -19.2762   25.3238 C.3     1  UNL1        0.0220
     18 C          -9.4723  -18.2319   24.4159 C.3     1  UNL1        0.0768
     19 C          -9.4805  -18.4414   22.9307 C.ar    1  UNL1       -0.0080
     20 C          -8.5062  -19.3930   22.3021 C.ar    1  UNL1       -0.0030
     21 C          -8.5144  -19.6025   20.8168 C.ar    1  UNL1       -0.0003
     22 C          -9.4969  -18.8603   19.9601 C.ar    1  UNL1       -0.0000
     23 C         -10.4712  -17.9086   20.5887 C.ar    1  UNL1       -0.0003
     24 C         -11.4536  -17.1664   19.7320 C.ar    1  UNL1       -0.0000
     25 C         -12.4278  -16.2147   20.3606 C.ar    1  UNL1       -0.0000
     26 C         -12.4196  -16.0053   21.8459 C.ar    1  UNL1       -0.0000
     27 C         -11.4372  -16.7475   22.7026 C.ar    1  UNL1       -0.0003
     28 C         -10.4630  -17.6991   22.0740 C.ar    1  UNL1       -0.0027
@<TRIPOS>UNITY_ATOM_ATTR
15 1
charge -1
@<TRIPOS>BOND
     1    18    17    1
     2    18     1    1
     3     1     3    1
     4     3     4    1
     5     4     5    1
     6     5     6    1
     7     6     8    1
     8     8     9   ar
     9     9    10   ar
    10    10    11   ar
    11    11    14    1
    12    14    15   ar
    13    14    16   ar
    14    11    12   ar
    15    12    13   ar
    16     6     7    1
    17    18    19    1
    18    19    20   ar
    19    20    21   ar
    20    21    22   ar
    21    22    23   ar
    22    23    24   ar
    23    24    25   ar
    24    25    26   ar
    25    26    27   ar
    26    27    28   ar
    27     7     3    1
    28    28    19   ar
    29    13     8   ar
    30    28    23   ar
    31     1     2    1
@<TRIPOS>MOLECULE
*****
 28 31 0 0 0
SMALL
GASTEIGER

@<TRIPOS>ATOM
      1 N          -8.8593  -19.6934   23.5877 N.3     1  UNL1       -0.2962
      2 H          -9.6601  -20.2292   23.2531 H       1  UNL1        0.1235
      3 C          -7.8195  -19.7486   22.5080 C.3     1  UNL1        0.0545
      4 C          -8.0099  -20.3060   21.1284 C.3     1  UNL1        0.0161
      5 C          -6.7148  -20.1581   20.3860 C.3     1  UNL1        0.0058
      6 C          -5.7242  -19.5093   21.3067 C.3     1  UNL1        0.0237
      7 C          -6.4069  -19.2563   22.6182 C.3     1  UNL1        0.0201
      8 C          -4.3008  -19.1727   20.9743 C.ar    1  UNL1       -0.0225
      9 C          -3.3572  -18.7486   22.0605 C.ar    1  UNL1       -0.0042
     10 C          -1.9337  -18.4120   21.7282 C.ar    1  UNL1        0.0008
     11 C          -1.4539  -18.4995   20.3097 C.ar    1  UNL1        0.0140
     12 C          -2.3975  -18.9237   19.2235 C.ar    1  UNL1        0.0008
     13 C          -3.8210  -19.2603   19.5559 C.ar    1  UNL1       -0.0042
     14 C          -0.0304  -18.1629   19.9773 C.2     1  UNL1        0.0729
     15 O           0.4452  -16.7431   20.0670 O.co2   1  UNL1       -0.5446
     16 O           0.9175  -19.2461   19.5552 O.co2   1  UNL1       -0.5446
     17 C         -10.1886  -18.2833   25.3182 C.3     1  UNL1        0.0220
     18 C          -9.3882  -18.3689   24.0526 C.3     1  UNL1        0.0768
     19 C          -9.1165  -17.1300   23.2517 C.ar    1  UNL1       -0.0080
     20 C          -7.9662  -16.2388   23.6157 C.ar    1  UNL1       -0.0030
     21 C          -7.6946  -14.9999   22.8148 C.ar    1  UNL1       -0.0003
     22 C          -8.5733  -14.6522   21.6499 C.ar    1  UNL1       -0.0000
     23 C          -9.7236  -15.5434   21.2859 C.ar    1  UNL1       -0.0003
     24 C         -10.6023  -15.1957   20.1210 C.ar    1  UNL1       -0.0000
     25 C         -11.7526  -16.0869   19.7570 C.ar    1  UNL1       -0.0000
     26 C         -12.0242  -17.3258   20.5578 C.ar    1  UNL1       -0.0000
     27 C         -11.1456  -17.6735   21.7227 C.ar    1  UNL1       -0.0003
     28 C          -9.9953  -16.7823   22.0867 C.ar    1  UNL1       -0.0027
@<TRIPOS>UNITY_ATOM_ATTR
15 1
charge -1
@<TRIPOS>BOND
     1    18    17    1
     2    18     1    1
     3     1     3    1
     4     3     4    1
     5     4     5    1
     6     5     6    1
     7     6     8    1
     8     8     9   ar
     9     9    10   ar
    10    10    11   ar
    11    11    14    1
    12    14    15   ar
    13    14    16   ar
    14    11    12   ar
    15    12    13   ar
    16     6     7    1
    17    18    19    1
    18    19    20   ar
    19    20    21   ar
    20    21    22   ar
    21    22    23   ar
    22    23    24   ar
    23    24    25   ar
    24    25    26   ar
    25    26    27   ar
    26    27    28   ar
    27     7     3    1
    28    28    19   ar
    29    13     8   ar
    30    28    23   ar
    31     1     2    1
@<TRIPOS>MOLECULE
*****
 28 31 0 0 0
SMALL
GASTEIGER

@<TRIPOS>ATOM
      1 N           6.7159   -4.6280   20.7089 N.3     1  UNL1       -0.2962
      2 H           6.4295   -5.5345   21.0785 H       1  UNL1        0.1235
      3 C           5.4631   -3.9125   20.2982 C.3     1  UNL1        0.0545
      4 C           4.6316   -4.2151   19.0869 C.3     1  UNL1        0.0161
      5 C           3.4764   -3.2583   19.0669 C.3     1  UNL1        0.0058
      6 C           3.5940   -2.3645   20.2658 C.3     1  UNL1        0.0237
      7 C           4.8218   -2.7688   21.0267 C.3     1  UNL1        0.0201
      8 C           2.6496   -1.2603   20.6382 C.ar    1  UNL1       -0.0225
      9 C           2.8573   -0.4930   21.9102 C.ar    1  UNL1       -0.0042
     10 C           1.9129    0.6113   22.2827 C.ar    1  UNL1        0.0008
     11 C           0.7608    0.9482   21.3832 C.ar    1  UNL1        0.0140
     12 C           0.5531    0.1808   20.1111 C.ar    1  UNL1        0.0008
     13 C           1.4975   -0.9234   19.7386 C.ar    1  UNL1       -0.0042
     14 C          -0.1837    2.0524   21.7556 C.2     1  UNL1        0.0729
     15 O           0.0051    2.7985   23.0432 O.co2   1  UNL1       -0.5446
     16 O          -1.3170    2.4106   20.8405 O.co2   1  UNL1       -0.5446
     17 C           8.7369   -3.1016   21.2883 C.3     1  UNL1        0.0220
     18 C           7.6305   -4.0144   21.7272 C.3     1  UNL1        0.0768
     19 C           7.4387   -4.3137   23.1845 C.ar    1  UNL1       -0.0080
     20 C           6.6123   -3.3962   24.0362 C.ar    1  UNL1       -0.0030
     21 C           6.4206   -3.6955   25.4934 C.ar    1  UNL1       -0.0003
     22 C           7.0552   -4.9122   26.0991 C.ar    1  UNL1       -0.0000
     23 C           7.8816   -5.8297   25.2474 C.ar    1  UNL1       -0.0003
     24 C           8.5162   -7.0465   25.8530 C.ar    1  UNL1       -0.0000
     25 C           9.3426   -7.9639   25.0014 C.ar    1  UNL1       -0.0000
     26 C           9.5344   -7.6646   23.5441 C.ar    1  UNL1       -0.0000
     27 C           8.8998   -6.4479   22.9385 C.ar    1  UNL1       -0.0003
     28 C           8.0734   -5.5305   23.7901 C.ar    1  UNL1       -0.0027
@<TRIPOS>UNITY_ATOM_ATTR
15 1
charge -1
@<TRIPOS>BOND
     1    18    17    1
     2    18     1    1
     3     1     3    1
     4     3     4    1
     5     4     5    1
     6     5     6    1
     7     6     8    1
     8     8     9   ar
     9     9    10   ar
    10    10    11   ar
    11    11    14    1
    12    14    15   ar
    13    14    16   ar
    14    11    12   ar
    15    12    13   ar
    16     6     7    1
    17    18    19    1
    18    19    20   ar
    19    20    21   ar
    20    21    22   ar
    21    22    23   ar
    22    23    24   ar
    23    24    25   ar
    24    25    26   ar
    25    26    27   ar
    26    27    28   ar
    27     7     3    1
    28    28    19   ar
    29    13     8   ar
    30    28    23   ar
    31     1     2    1
@<TRIPOS>MOLECULE
*****
 28 31 0 0 0
SMALL
GASTEIGER

@<TRIPOS>ATOM
      1 N         -13.6741   -8.3931   18.6014 N.3     1  UNL1       -0.2962
      2 H         -13.1417   -8.5006   19.4647 H       1  UNL1        0.1235
      3 C         -15.0050   -7.8156   18.9824 C.3     1  UNL1        0.0545
      4 C         -16.2099   -8.5930   19.4231 C.3     1  UNL1        0.0161
      5 C         -17.3143   -7.6172   19.7026 C.3     1  UNL1        0.0058
      6 C         -16.7921   -6.2368   19.4347 C.3     1  UNL1        0.0237
      7 C         -15.3649   -6.3595   18.9895 C.3     1  UNL1        0.0201
      8 C         -17.5619   -4.9584   19.5854 C.ar    1  UNL1       -0.0225
      9 C         -19.0617   -4.9814   19.5836 C.ar    1  UNL1       -0.0042
     10 C         -19.8316   -3.7029   19.7343 C.ar    1  UNL1        0.0008
     11 C         -19.1017   -2.4014   19.8869 C.ar    1  UNL1        0.0140
     12 C         -17.6018   -2.3784   19.8888 C.ar    1  UNL1        0.0008
     13 C         -16.8319   -3.6569   19.7381 C.ar    1  UNL1       -0.0042
     14 C         -19.8716   -1.1228   20.0377 C.2     1  UNL1        0.0729
     15 O         -20.3988   -0.4172   18.8236 O.co2   1  UNL1       -0.5446
     16 O         -20.1142   -0.5500   21.4026 O.co2   1  UNL1       -0.5446
     17 C         -12.9704   -7.8568   16.1585 C.3     1  UNL1        0.0220
     18 C         -12.7889   -7.6634   17.6349 C.3     1  UNL1        0.0768
     19 C         -11.7222   -6.7403   18.1448 C.ar    1  UNL1       -0.0080
     20 C         -10.4380   -7.3011   18.6799 C.ar    1  UNL1       -0.0030
     21 C          -9.3713   -6.3781   19.1898 C.ar    1  UNL1       -0.0003
     22 C          -9.5887   -4.8941   19.1647 C.ar    1  UNL1       -0.0000
     23 C         -10.8729   -4.3332   18.6296 C.ar    1  UNL1       -0.0003
     24 C         -11.0904   -2.8493   18.6044 C.ar    1  UNL1       -0.0000
     25 C         -12.3745   -2.2885   18.0693 C.ar    1  UNL1       -0.0000
     26 C         -13.4412   -3.2116   17.5594 C.ar    1  UNL1       -0.0000
     27 C         -13.2238   -4.6955   17.5846 C.ar    1  UNL1       -0.0003
     28 C         -11.9397   -5.2563   18.1196 C.ar    1  UNL1       -0.0027
@<TRIPOS>UNITY_ATOM_ATTR
15 1
charge -1
@<TRIPOS>BOND
     1    18    17    1
     2    18     1    1
     3     1     3    1
     4     3     4    1
     5     4     5    1
     6     5     6    1
     7     6     8    1
     8     8     9   ar
     9     9    10   ar
    10    10    11   ar
    11    11    14    1
    12    14    15   ar
    13    14    16   ar
    14    11    12   ar
    15    12    13   ar
    16     6     7    1
    17    18    19    1
    18    19    20   ar
    19    20    21   ar
    20    21    22   ar
    21    22    23   ar
    22    23    24   ar
    23    24    25   ar
    24    25    26   ar
    25    26    27   ar
    26    27    28   ar
    27     7     3    1
    28    28    19   ar
    29    13     8   ar
    30    28    23   ar
    31     1     2    1
