@<TRIPOS>MOLECULE
*****
 36 40 0 0 0
SMALL
GASTEIGER

@<TRIPOS>ATOM
      1 C         -13.0973  -18.6285   24.9616 C.3     1  UNL1        0.0896
      2 N         -11.7148  -19.0352   24.5452 N.3     1  UNL1       -0.2710
      3 C         -11.5261  -20.0003   23.4125 C.3     1  UNL1        0.0818
      4 C         -10.1438  -20.3423   22.9410 C.3     1  UNL1        0.1026
      5 C          -9.6860  -19.9060   21.5808 C.2     1  UNL1        0.2271
      6 O         -10.6841  -19.7251   20.4758 O.2     1  UNL1       -0.2748
      7 N          -8.2301  -19.6505   21.3256 N.am    1  UNL1       -0.2760
      8 C          -7.2320  -19.8314   22.4307 C.3     1  UNL1        0.1148
      9 C          -5.7761  -19.5760   22.1756 C.3     1  UNL1        0.1123
     10 N          -5.3183  -19.1397   20.8153 N.pl3   1  UNL1       -0.3040
     11 C          -6.3164  -18.9588   19.7103 C.3     1  UNL1        0.1123
     12 C          -7.7723  -19.2142   19.9655 C.3     1  UNL1        0.1148
     13 C          -3.8624  -18.8842   20.5602 C.ar    1  UNL1        0.0503
     14 C          -2.8618  -19.0848   21.6596 C.ar    1  UNL1        0.0170
     15 C          -1.4059  -18.8294   21.4045 C.ar    1  UNL1        0.0332
     16 C          -0.9506  -18.3734   20.0499 C.ar    1  UNL1        0.1675
     17 F           0.5054  -18.1180   19.7948 F       1  UNL1       -0.2018
     18 C          -1.9511  -18.1729   18.9506 C.ar    1  UNL1        0.1686
     19 F          -1.4958  -17.7169   17.5961 F       1  UNL1       -0.2018
     20 C          -3.4070  -18.4283   19.2057 C.ar    1  UNL1        0.0465
     21 C         -10.5210  -18.4767   25.2614 C.3     1  UNL1        0.0728
     22 C         -10.2278  -17.0070   25.1975 C.3     1  UNL1        0.0263
     23 C          -9.4861  -16.4406   24.0231 C.3     1  UNL1        0.0519
     24 C         -10.1806  -16.2821   22.7030 C.ar    1  UNL1        0.0162
     25 C         -11.6167  -16.6900   22.5573 C.ar    1  UNL1       -0.0009
     26 C         -12.3110  -16.5315   21.2372 C.ar    1  UNL1       -0.0001
     27 C         -11.5693  -15.9651   20.0628 C.ar    1  UNL1        0.0031
     28 C         -10.1333  -15.5572   20.2086 C.ar    1  UNL1        0.0372
     29 C          -9.4389  -15.7157   21.5287 C.ar    1  UNL1        0.1415
     30 O          -8.0028  -15.3078   21.6745 O.3     1  UNL1       -0.4541
     31 C          -7.3084  -15.4663   22.9945 C.ar    1  UNL1        0.1415
     32 C          -5.8722  -15.0584   23.1403 C.ar    1  UNL1        0.0372
     33 C          -5.1779  -15.2169   24.4604 C.ar    1  UNL1        0.0031
     34 C          -5.9195  -15.7833   25.6348 C.ar    1  UNL1       -0.0001
     35 C          -7.3556  -16.1912   25.4890 C.ar    1  UNL1       -0.0009
     36 C          -8.0501  -16.0327   24.1689 C.ar    1  UNL1        0.0162
@<TRIPOS>BOND
     1     1     2    1
     2     2     3    1
     3     3     4    1
     4     4     5    1
     5     5     6    2
     6     5     7   am
     7     7     8    1
     8     8     9    1
     9     9    10    1
    10    10    13    1
    11    13    14   ar
    12    14    15   ar
    13    15    16   ar
    14    16    17    1
    15    16    18   ar
    16    18    19    1
    17    18    20   ar
    18    10    11    1
    19    11    12    1
    20     2    21    1
    21    21    22    1
    22    22    23    1
    23    23    24    1
    24    24    25   ar
    25    25    26   ar
    26    26    27   ar
    27    27    28   ar
    28    28    29   ar
    29    29    30    1
    30    30    31    1
    31    31    32   ar
    32    32    33   ar
    33    33    34   ar
    34    34    35   ar
    35    35    36   ar
    36    12     7    1
    37    36    23    1
    38    20    13   ar
    39    29    24   ar
    40    36    31   ar
@<TRIPOS>MOLECULE
*****
 36 40 0 0 0
SMALL
GASTEIGER

@<TRIPOS>ATOM
      1 C         -13.0594  -18.5998   24.9689 C.3     1  UNL1        0.0896
      2 N         -11.6729  -19.0269   24.5874 N.3     1  UNL1       -0.2710
      3 C         -11.4728  -20.0390   23.4986 C.3     1  UNL1        0.0818
      4 C         -10.0892  -20.3534   23.0119 C.3     1  UNL1        0.1026
      5 C          -9.6476  -19.8891   21.6556 C.2     1  UNL1        0.2271
      6 O         -10.6594  -19.6811   20.5680 O.2     1  UNL1       -0.2748
      7 N          -8.1943  -19.6327   21.3871 N.am    1  UNL1       -0.2760
      8 C          -7.1826  -19.8407   22.4749 C.3     1  UNL1        0.1148
      9 C          -5.7292  -19.5843   22.2063 C.3     1  UNL1        0.1123
     10 N          -5.2877  -19.1200   20.8500 N.pl3   1  UNL1       -0.3040
     11 C          -6.2994  -18.9120   19.7623 C.3     1  UNL1        0.1123
     12 C          -7.7527  -19.1684   20.0309 C.3     1  UNL1        0.1148
     13 C          -3.8343  -18.8636   20.5815 C.ar    1  UNL1        0.0503
     14 C          -2.8291  -19.0195   21.6839 C.ar    1  UNL1        0.0170
     15 C          -1.3757  -18.7632   21.4153 C.ar    1  UNL1        0.0332
     16 C          -0.9277  -18.3509   20.0444 C.ar    1  UNL1        0.1675
     17 F           0.5256  -18.0945   19.7759 F       1  UNL1       -0.2018
     18 C          -1.9329  -18.1950   18.9421 C.ar    1  UNL1        0.1686
     19 F          -1.4849  -17.7827   17.5713 F       1  UNL1       -0.2018
     20 C          -3.3863  -18.4513   19.2107 C.ar    1  UNL1        0.0465
     21 C         -10.4866  -18.4417   25.2947 C.3     1  UNL1        0.0728
     22 C         -10.2109  -16.9700   25.2052 C.3     1  UNL1        0.0263
     23 C          -9.4548  -16.4184   24.0330 C.3     1  UNL1        0.0519
     24 C          -8.0181  -16.0163   24.1892 C.ar    1  UNL1        0.0162
     25 C          -7.3376  -16.1657   25.5176 C.ar    1  UNL1       -0.0009
     26 C          -5.9010  -15.7636   25.6738 C.ar    1  UNL1       -0.0001
     27 C          -5.1449  -15.2121   24.5016 C.ar    1  UNL1        0.0031
     28 C          -5.8253  -15.0627   23.1732 C.ar    1  UNL1        0.0372
     29 C          -7.2620  -15.4648   23.0170 C.ar    1  UNL1        0.1415
     30 O          -7.9425  -15.3154   21.6886 O.3     1  UNL1       -0.4541
     31 C          -9.3791  -15.7175   21.5325 C.ar    1  UNL1        0.1415
     32 C         -10.0596  -15.5680   20.2040 C.ar    1  UNL1        0.0372
     33 C         -11.4962  -15.9701   20.0479 C.ar    1  UNL1        0.0031
     34 C         -12.2524  -16.5217   21.2201 C.ar    1  UNL1       -0.0001
     35 C         -11.5719  -16.6711   22.5484 C.ar    1  UNL1       -0.0009
     36 C         -10.1352  -16.2690   22.7046 C.ar    1  UNL1        0.0162
@<TRIPOS>BOND
     1     1     2    1
     2     2     3    1
     3     3     4    1
     4     4     5    1
     5     5     6    2
     6     5     7   am
     7     7     8    1
     8     8     9    1
     9     9    10    1
    10    10    13    1
    11    13    14   ar
    12    14    15   ar
    13    15    16   ar
    14    16    17    1
    15    16    18   ar
    16    18    19    1
    17    18    20   ar
    18    10    11    1
    19    11    12    1
    20     2    21    1
    21    21    22    1
    22    22    23    1
    23    23    24    1
    24    24    25   ar
    25    25    26   ar
    26    26    27   ar
    27    27    28   ar
    28    28    29   ar
    29    29    30    1
    30    30    31    1
    31    31    32   ar
    32    32    33   ar
    33    33    34   ar
    34    34    35   ar
    35    35    36   ar
    36    12     7    1
    37    36    23    1
    38    20    13   ar
    39    29    24   ar
    40    36    31   ar
@<TRIPOS>MOLECULE
*****
 36 40 0 0 0
SMALL
GASTEIGER

@<TRIPOS>ATOM
      1 C           8.1520    1.9256   17.6968 C.3     1  UNL1        0.0896
      2 N           7.1305    1.4427   18.6835 N.3     1  UNL1       -0.2710
      3 C           7.5164    0.4450   19.7349 C.3     1  UNL1        0.0818
      4 C           7.0022    0.5951   21.1360 C.3     1  UNL1        0.1026
      5 C           5.9678   -0.3558   21.6613 C.2     1  UNL1        0.2271
      6 O           6.1801   -1.8359   21.5416 O.2     1  UNL1       -0.2748
      7 N           4.7212    0.1734   22.3062 N.am    1  UNL1       -0.2760
      8 C           4.5090    1.6535   22.4259 C.3     1  UNL1        0.1148
      9 C           3.2624    2.1827   23.0708 C.3     1  UNL1        0.1123
     10 N           2.2280    1.2318   23.5961 N.pl3   1  UNL1       -0.3040
     11 C           2.4403   -0.2483   23.4764 C.3     1  UNL1        0.1123
     12 C           3.6869   -0.7775   22.8315 C.3     1  UNL1        0.1148
     13 C           0.9814    1.7609   24.2410 C.ar    1  UNL1        0.0503
     14 C           0.1439    2.7816   23.5290 C.ar    1  UNL1        0.0170
     15 C          -1.1027    3.3108   24.1740 C.ar    1  UNL1        0.0332
     16 C          -1.5118    2.8193   25.5309 C.ar    1  UNL1        0.1675
     17 F          -2.7584    3.3485   26.1758 F       1  UNL1       -0.2018
     18 C          -0.6743    1.7987   26.2428 C.ar    1  UNL1        0.1686
     19 F          -1.0834    1.3072   27.5996 F       1  UNL1       -0.2018
     20 C           0.5723    1.2695   25.5979 C.ar    1  UNL1        0.0465
     21 C           5.7231    1.9575   18.6185 C.3     1  UNL1        0.0728
     22 C           4.6842    1.2045   17.8417 C.3     1  UNL1        0.0263
     23 C           3.7442    0.2755   18.5512 C.3     1  UNL1        0.0519
     24 C           4.0781   -1.1820   18.6707 C.ar    1  UNL1        0.0162
     25 C           5.3519   -1.7105   18.0807 C.ar    1  UNL1       -0.0009
     26 C           5.6858   -3.1679   18.2002 C.ar    1  UNL1       -0.0001
     27 C           4.7458   -4.0969   18.9097 C.ar    1  UNL1        0.0031
     28 C           3.4720   -3.5685   19.4997 C.ar    1  UNL1        0.0372
     29 C           3.1382   -2.1111   19.3802 C.ar    1  UNL1        0.1415
     30 O           1.8643   -1.5826   19.9702 O.3     1  UNL1       -0.4541
     31 C           1.5304   -0.1251   19.8507 C.ar    1  UNL1        0.1415
     32 C           0.2566    0.4034   20.4407 C.ar    1  UNL1        0.0372
     33 C          -0.0773    1.8608   20.3212 C.ar    1  UNL1        0.0031
     34 C           0.8627    2.7898   19.6117 C.ar    1  UNL1       -0.0001
     35 C           2.1365    2.2614   19.0217 C.ar    1  UNL1       -0.0009
     36 C           2.4704    0.8039   19.1412 C.ar    1  UNL1        0.0162
@<TRIPOS>BOND
     1     1     2    1
     2     2     3    1
     3     3     4    1
     4     4     5    1
     5     5     6    2
     6     5     7   am
     7     7     8    1
     8     8     9    1
     9     9    10    1
    10    10    13    1
    11    13    14   ar
    12    14    15   ar
    13    15    16   ar
    14    16    17    1
    15    16    18   ar
    16    18    19    1
    17    18    20   ar
    18    10    11    1
    19    11    12    1
    20     2    21    1
    21    21    22    1
    22    22    23    1
    23    23    24    1
    24    24    25   ar
    25    25    26   ar
    26    26    27   ar
    27    27    28   ar
    28    28    29   ar
    29    29    30    1
    30    30    31    1
    31    31    32   ar
    32    32    33   ar
    33    33    34   ar
    34    34    35   ar
    35    35    36   ar
    36    12     7    1
    37    36    23    1
    38    20    13   ar
    39    29    24   ar
    40    36    31   ar
@<TRIPOS>MOLECULE
*****
 36 40 0 0 0
SMALL
GASTEIGER

@<TRIPOS>ATOM
      1 C           8.1276    1.9060   17.6733 C.3     1  UNL1        0.0896
      2 N           7.1068    1.4756   18.6846 N.3     1  UNL1       -0.2710
      3 C           7.4860    0.5118   19.7696 C.3     1  UNL1        0.0818
      4 C           6.9523    0.6987   21.1590 C.3     1  UNL1        0.1026
      5 C           5.9398   -0.2617   21.7090 C.2     1  UNL1        0.2271
      6 O           6.1772   -1.7395   21.6110 O.2     1  UNL1       -0.2748
      7 N           4.6899    0.2558   22.3571 N.am    1  UNL1       -0.2760
      8 C           4.4526    1.7337   22.4552 C.3     1  UNL1        0.1148
      9 C           3.2027    2.2512   23.1032 C.3     1  UNL1        0.1123
     10 N           2.1901    1.2908   23.6533 N.pl3   1  UNL1       -0.3040
     11 C           2.4275   -0.1870   23.5552 C.3     1  UNL1        0.1123
     12 C           3.6774   -0.7045   22.9071 C.3     1  UNL1        0.1148
     13 C           0.9403    1.8083   24.3013 C.ar    1  UNL1        0.0503
     14 C           0.1130    2.8509   23.6093 C.ar    1  UNL1        0.0170
     15 C          -1.1368    3.3684   24.2574 C.ar    1  UNL1        0.0332
     16 C          -1.5595    2.8433   25.5975 C.ar    1  UNL1        0.1675
     17 F          -2.8094    3.3607   26.2456 F       1  UNL1       -0.2018
     18 C          -0.7323    1.8007   26.2894 C.ar    1  UNL1        0.1686
     19 F          -1.1550    1.2756   27.6294 F       1  UNL1       -0.2018
     20 C           0.5176    1.2832   25.6413 C.ar    1  UNL1        0.0465
     21 C           5.7068    2.0091   18.6109 C.3     1  UNL1        0.0728
     22 C           4.6558    1.2548   17.8517 C.3     1  UNL1        0.0263
     23 C           3.7285    0.3253   18.5771 C.3     1  UNL1        0.0519
     24 C           2.4612    0.8519   19.1827 C.ar    1  UNL1        0.0162
     25 C           2.1212    2.3079   19.0629 C.ar    1  UNL1       -0.0009
     26 C           0.8539    2.8344   19.6685 C.ar    1  UNL1       -0.0001
     27 C          -0.0734    1.9049   20.3939 C.ar    1  UNL1        0.0031
     28 C           0.2666    0.4489   20.5137 C.ar    1  UNL1        0.0372
     29 C           1.5339   -0.0776   19.9081 C.ar    1  UNL1        0.1415
     30 O           1.8740   -1.5337   20.0279 O.3     1  UNL1       -0.4541
     31 C           3.1413   -2.0602   19.4223 C.ar    1  UNL1        0.1415
     32 C           3.4813   -3.5163   19.5421 C.ar    1  UNL1        0.0372
     33 C           4.7486   -4.0428   18.9365 C.ar    1  UNL1        0.0031
     34 C           5.6759   -3.1133   18.2111 C.ar    1  UNL1       -0.0001
     35 C           5.3359   -1.6572   18.0913 C.ar    1  UNL1       -0.0009
     36 C           4.0685   -1.1307   18.6969 C.ar    1  UNL1        0.0162
@<TRIPOS>BOND
     1     1     2    1
     2     2     3    1
     3     3     4    1
     4     4     5    1
     5     5     6    2
     6     5     7   am
     7     7     8    1
     8     8     9    1
     9     9    10    1
    10    10    13    1
    11    13    14   ar
    12    14    15   ar
    13    15    16   ar
    14    16    17    1
    15    16    18   ar
    16    18    19    1
    17    18    20   ar
    18    10    11    1
    19    11    12    1
    20     2    21    1
    21    21    22    1
    22    22    23    1
    23    23    24    1
    24    24    25   ar
    25    25    26   ar
    26    26    27   ar
    27    27    28   ar
    28    28    29   ar
    29    29    30    1
    30    30    31    1
    31    31    32   ar
    32    32    33   ar
    33    33    34   ar
    34    34    35   ar
    35    35    36   ar
    36    12     7    1
    37    36    23    1
    38    20    13   ar
    39    29    24   ar
    40    36    31   ar
@<TRIPOS>MOLECULE
*****
 36 40 0 0 0
SMALL
GASTEIGER

@<TRIPOS>ATOM
      1 C           5.3559    2.6635   20.2197 C.3     1  UNL1        0.0896
      2 N           5.1986    1.6444   19.1302 N.3     1  UNL1       -0.2710
      3 C           6.3296    0.7148   18.8038 C.3     1  UNL1        0.0818
      4 C           7.0544   -0.0003   19.9053 C.3     1  UNL1        0.1026
      5 C           7.5972   -1.3795   19.6740 C.2     1  UNL1        0.2271
      6 O           8.1212   -1.7622   18.3217 O.2     1  UNL1       -0.2748
      7 N           7.6160   -2.3758   20.7952 N.am    1  UNL1       -0.2760
      8 C           7.0920   -1.9929   22.1476 C.3     1  UNL1        0.1148
      9 C           7.1108   -2.9892   23.2688 C.3     1  UNL1        0.1123
     10 N           7.6535   -4.3684   23.0375 N.pl3   1  UNL1       -0.3040
     11 C           8.1775   -4.7512   21.6852 C.3     1  UNL1        0.1123
     12 C           8.1587   -3.7549   20.5640 C.3     1  UNL1        0.1148
     13 C           7.6723   -5.3647   24.1587 C.ar    1  UNL1        0.0503
     14 C           8.4177   -6.6569   24.0014 C.ar    1  UNL1        0.0170
     15 C           8.4365   -7.6532   25.1225 C.ar    1  UNL1        0.0332
     16 C           7.7099   -7.3573   26.4010 C.ar    1  UNL1        0.1675
     17 F           7.7286   -8.3536   27.5222 F       1  UNL1       -0.2018
     18 C           6.9645   -6.0652   26.5583 C.ar    1  UNL1        0.1686
     19 F           6.2379   -5.7694   27.8368 F       1  UNL1       -0.2018
     20 C           6.9457   -5.0689   25.4372 C.ar    1  UNL1        0.0465
     21 C           3.9102    1.5550   18.3673 C.3     1  UNL1        0.0728
     22 C           2.8808    0.5337   18.7507 C.3     1  UNL1        0.0263
     23 C           3.0874   -0.3194   19.9671 C.3     1  UNL1        0.0519
     24 C           2.7214    0.2070   21.3233 C.ar    1  UNL1        0.0162
     25 C           2.1489    1.5863   21.4630 C.ar    1  UNL1       -0.0009
     26 C           1.7829    2.1126   22.8190 C.ar    1  UNL1       -0.0001
     27 C           1.9895    1.2596   24.0354 C.ar    1  UNL1        0.0031
     28 C           2.5621   -0.1198   23.8958 C.ar    1  UNL1        0.0372
     29 C           2.9280   -0.6461   22.5397 C.ar    1  UNL1        0.1415
     30 O           3.5006   -2.0255   22.3999 O.3     1  UNL1       -0.4541
     31 C           3.8666   -2.5518   21.0438 C.ar    1  UNL1        0.1415
     32 C           4.4392   -3.9312   20.9041 C.ar    1  UNL1        0.0372
     33 C           4.8051   -4.4574   19.5480 C.ar    1  UNL1        0.0031
     34 C           4.5985   -3.6044   18.3316 C.ar    1  UNL1       -0.0001
     35 C           4.0260   -2.2251   18.4713 C.ar    1  UNL1       -0.0009
     36 C           3.6600   -1.6987   19.8274 C.ar    1  UNL1        0.0162
@<TRIPOS>BOND
     1     1     2    1
     2     2     3    1
     3     3     4    1
     4     4     5    1
     5     5     6    2
     6     5     7   am
     7     7     8    1
     8     8     9    1
     9     9    10    1
    10    10    13    1
    11    13    14   ar
    12    14    15   ar
    13    15    16   ar
    14    16    17    1
    15    16    18   ar
    16    18    19    1
    17    18    20   ar
    18    10    11    1
    19    11    12    1
    20     2    21    1
    21    21    22    1
    22    22    23    1
    23    23    24    1
    24    24    25   ar
    25    25    26   ar
    26    26    27   ar
    27    27    28   ar
    28    28    29   ar
    29    29    30    1
    30    30    31    1
    31    31    32   ar
    32    32    33   ar
    33    33    34   ar
    34    34    35   ar
    35    35    36   ar
    36    12     7    1
    37    36    23    1
    38    20    13   ar
    39    29    24   ar
    40    36    31   ar
@<TRIPOS>MOLECULE
*****
 36 40 0 0 0
SMALL
GASTEIGER

@<TRIPOS>ATOM
      1 C           5.2461    2.2746   18.4274 C.3     1  UNL1        0.0896
      2 N           5.9328    0.9521   18.2556 N.3     1  UNL1       -0.2710
      3 C           7.0600    0.5682   19.1677 C.3     1  UNL1        0.0818
      4 C           7.1865    1.2128   20.5162 C.3     1  UNL1        0.1026
      5 C           7.0477    0.3848   21.7593 C.2     1  UNL1        0.2271
      6 O           8.1191   -0.5975   22.1296 O.2     1  UNL1       -0.2748
      7 N           5.8374    0.5390   22.6319 N.am    1  UNL1       -0.2760
      8 C           4.7660    1.5213   22.2615 C.3     1  UNL1        0.1148
      9 C           3.5557    1.6755   23.1341 C.3     1  UNL1        0.1123
     10 N           3.4169    0.8475   24.3772 N.pl3   1  UNL1       -0.3040
     11 C           4.4884   -0.1348   24.7476 C.3     1  UNL1        0.1123
     12 C           5.6986   -0.2890   23.8749 C.3     1  UNL1        0.1148
     13 C           2.2067    1.0017   25.2498 C.ar    1  UNL1        0.0503
     14 C           0.8761    1.3241   24.6368 C.ar    1  UNL1        0.0170
     15 C          -0.3341    1.4784   25.5094 C.ar    1  UNL1        0.0332
     16 C          -0.2138    1.3101   26.9951 C.ar    1  UNL1        0.1675
     17 F          -1.4241    1.4644   27.8678 F       1  UNL1       -0.2018
     18 C           1.1166    0.9877   27.6081 C.ar    1  UNL1        0.1686
     19 F           1.2369    0.8195   29.0938 F       1  UNL1       -0.2018
     20 C           2.3269    0.8335   26.7355 C.ar    1  UNL1        0.0465
     21 C           5.4921    0.0134   17.1718 C.3     1  UNL1        0.0728
     22 C           4.5012   -1.0709   17.4758 C.3     1  UNL1        0.0263
     23 C           3.9138   -1.1861   18.8511 C.3     1  UNL1        0.0519
     24 C           2.6882   -0.3999   19.2115 C.ar    1  UNL1        0.0162
     25 C           2.0500    0.5015   18.1965 C.ar    1  UNL1       -0.0009
     26 C           0.8245    1.2876   18.5569 C.ar    1  UNL1       -0.0001
     27 C           0.2371    1.1724   19.9322 C.ar    1  UNL1        0.0031
     28 C           0.8752    0.2711   20.9472 C.ar    1  UNL1        0.0372
     29 C           2.1008   -0.5151   20.5869 C.ar    1  UNL1        0.1415
     30 O           2.7390   -1.4165   21.6019 O.3     1  UNL1       -0.4541
     31 C           3.9646   -2.2026   21.2415 C.ar    1  UNL1        0.1415
     32 C           4.6028   -3.1041   22.2566 C.ar    1  UNL1        0.0372
     33 C           5.8283   -3.8902   21.8962 C.ar    1  UNL1        0.0031
     34 C           6.4158   -3.7750   20.5208 C.ar    1  UNL1       -0.0001
     35 C           5.7776   -2.8737   19.5058 C.ar    1  UNL1       -0.0009
     36 C           4.5520   -2.0874   19.8661 C.ar    1  UNL1        0.0162
@<TRIPOS>BOND
     1     1     2    1
     2     2     3    1
     3     3     4    1
     4     4     5    1
     5     5     6    2
     6     5     7   am
     7     7     8    1
     8     8     9    1
     9     9    10    1
    10    10    13    1
    11    13    14   ar
    12    14    15   ar
    13    15    16   ar
    14    16    17    1
    15    16    18   ar
    16    18    19    1
    17    18    20   ar
    18    10    11    1
    19    11    12    1
    20     2    21    1
    21    21    22    1
    22    22    23    1
    23    23    24    1
    24    24    25   ar
    25    25    26   ar
    26    26    27   ar
    27    27    28   ar
    28    28    29   ar
    29    29    30    1
    30    30    31    1
    31    31    32   ar
    32    32    33   ar
    33    33    34   ar
    34    34    35   ar
    35    35    36   ar
    36    12     7    1
    37    36    23    1
    38    20    13   ar
    39    29    24   ar
    40    36    31   ar
@<TRIPOS>MOLECULE
*****
 36 40 0 0 0
SMALL
GASTEIGER

@<TRIPOS>ATOM
      1 C           3.8334    2.7467   19.5935 C.3     1  UNL1        0.0896
      2 N           2.6777    2.2741   18.7621 N.3     1  UNL1       -0.2710
      3 C           1.5471    3.2088   18.4493 C.3     1  UNL1        0.0818
      4 C           0.1649    2.6679   18.2325 C.3     1  UNL1        0.1026
      5 C          -0.9808    3.6082   18.0016 C.2     1  UNL1        0.2271
      6 O          -1.1683    4.2460   16.6570 O.2     1  UNL1       -0.2748
      7 N          -1.9390    3.9107   19.1153 N.am    1  UNL1       -0.2760
      8 C          -1.7514    3.2729   20.4600 C.3     1  UNL1        0.1148
      9 C          -2.7096    3.5754   21.5737 C.3     1  UNL1        0.1123
     10 N          -3.8553    4.5157   21.3428 N.pl3   1  UNL1       -0.3040
     11 C          -4.0428    5.1535   19.9982 C.3     1  UNL1        0.1123
     12 C          -3.0846    4.8510   18.8844 C.3     1  UNL1        0.1148
     13 C          -4.8134    4.8182   22.4565 C.ar    1  UNL1        0.0503
     14 C          -4.3988    5.7252   23.5771 C.ar    1  UNL1        0.0170
     15 C          -5.3569    6.0277   24.6908 C.ar    1  UNL1        0.0332
     16 C          -6.7298    5.4232   24.6840 C.ar    1  UNL1        0.1675
     17 F          -7.6879    5.7257   25.7978 F       1  UNL1       -0.2018
     18 C          -7.1444    4.5163   23.5636 C.ar    1  UNL1        0.1686
     19 F          -8.5171    3.9118   23.5569 F       1  UNL1       -0.2018
     20 C          -6.1862    4.2138   22.4498 C.ar    1  UNL1        0.0465
     21 C           2.6527    0.8667   18.2437 C.3     1  UNL1        0.0728
     22 C           1.9646   -0.2098   19.0295 C.3     1  UNL1        0.0263
     23 C           2.6243   -0.7885   20.2460 C.3     1  UNL1        0.0519
     24 C           3.6087   -1.9113   20.1029 C.ar    1  UNL1        0.0162
     25 C           3.9334   -2.4553   18.7433 C.ar    1  UNL1       -0.0009
     26 C           4.9178   -3.5780   18.6002 C.ar    1  UNL1       -0.0001
     27 C           5.5775   -4.1567   19.8167 C.ar    1  UNL1        0.0031
     28 C           5.2527   -3.6127   21.1763 C.ar    1  UNL1        0.0372
     29 C           4.2684   -2.4900   21.3194 C.ar    1  UNL1        0.1415
     30 O           3.9436   -1.9459   22.6791 O.3     1  UNL1       -0.4541
     31 C           2.9592   -0.8233   22.8222 C.ar    1  UNL1        0.1415
     32 C           2.6345   -0.2792   24.1818 C.ar    1  UNL1        0.0372
     33 C           1.6501    0.8435   24.3249 C.ar    1  UNL1        0.0031
     34 C           0.9904    1.4222   23.1084 C.ar    1  UNL1       -0.0001
     35 C           1.3152    0.8782   21.7488 C.ar    1  UNL1       -0.0009
     36 C           2.2996   -0.2446   21.6056 C.ar    1  UNL1        0.0162
@<TRIPOS>BOND
     1     1     2    1
     2     2     3    1
     3     3     4    1
     4     4     5    1
     5     5     6    2
     6     5     7   am
     7     7     8    1
     8     8     9    1
     9     9    10    1
    10    10    13    1
    11    13    14   ar
    12    14    15   ar
    13    15    16   ar
    14    16    17    1
    15    16    18   ar
    16    18    19    1
    17    18    20   ar
    18    10    11    1
    19    11    12    1
    20     2    21    1
    21    21    22    1
    22    22    23    1
    23    23    24    1
    24    24    25   ar
    25    25    26   ar
    26    26    27   ar
    27    27    28   ar
    28    28    29   ar
    29    29    30    1
    30    30    31    1
    31    31    32   ar
    32    32    33   ar
    33    33    34   ar
    34    34    35   ar
    35    35    36   ar
    36    12     7    1
    37    36    23    1
    38    20    13   ar
    39    29    24   ar
    40    36    31   ar
@<TRIPOS>MOLECULE
*****
 36 40 0 0 0
SMALL
GASTEIGER

@<TRIPOS>ATOM
      1 C           6.0622    2.4949   19.7598 C.3     1  UNL1        0.0896
      2 N           5.9554    1.3895   18.7515 N.3     1  UNL1       -0.2710
      3 C           7.0029    0.3170   18.7007 C.3     1  UNL1        0.0818
      4 C           7.2778   -0.5209   19.9141 C.3     1  UNL1        0.1026
      5 C           7.8477   -1.8999   19.7598 C.2     1  UNL1        0.2271
      6 O           8.4226   -2.3309   18.4431 O.2     1  UNL1       -0.2748
      7 N           7.8426   -2.8479   20.9223 N.am    1  UNL1       -0.2760
      8 C           7.2676   -2.4169   22.2390 C.3     1  UNL1        0.1148
      9 C           7.2625   -3.3648   23.4015 C.3     1  UNL1        0.1123
     10 N           7.8324   -4.7438   23.2472 N.pl3   1  UNL1       -0.3040
     11 C           8.4073   -5.1748   21.9305 C.3     1  UNL1        0.1123
     12 C           8.4124   -4.2268   20.7681 C.3     1  UNL1        0.1148
     13 C           7.8272   -5.6918   24.4097 C.ar    1  UNL1        0.0503
     14 C           8.4032   -7.0685   24.2573 C.ar    1  UNL1        0.0170
     15 C           8.3981   -8.0164   25.4198 C.ar    1  UNL1        0.0332
     16 C           7.8170   -7.5877   26.7346 C.ar    1  UNL1        0.1675
     17 F           7.8119   -8.5357   27.8971 F       1  UNL1       -0.2018
     18 C           7.2411   -6.2112   26.8869 C.ar    1  UNL1        0.1686
     19 F           6.6601   -5.7825   28.2016 F       1  UNL1       -0.2018
     20 C           7.2462   -5.2632   25.7244 C.ar    1  UNL1        0.0465
     21 C           4.8012    1.3566   17.7940 C.3     1  UNL1        0.0728
     22 C           3.5505    0.6102   18.1524 C.3     1  UNL1        0.0263
     23 C           3.4607   -0.1185   19.4604 C.3     1  UNL1        0.0519
     24 C           3.8948   -1.5514   19.5520 C.ar    1  UNL1        0.0162
     25 C           4.4187   -2.2556   18.3356 C.ar    1  UNL1       -0.0009
     26 C           4.8527   -3.6884   18.4272 C.ar    1  UNL1       -0.0001
     27 C           4.7629   -4.4172   19.7352 C.ar    1  UNL1        0.0031
     28 C           4.2391   -3.7130   20.9516 C.ar    1  UNL1        0.0372
     29 C           3.8050   -2.2802   20.8600 C.ar    1  UNL1        0.1415
     30 O           3.2811   -1.5759   22.0765 O.3     1  UNL1       -0.4541
     31 C           2.8470   -0.1431   21.9849 C.ar    1  UNL1        0.1415
     32 C           2.3231    0.5611   23.2013 C.ar    1  UNL1        0.0372
     33 C           1.8890    1.9940   23.1097 C.ar    1  UNL1        0.0031
     34 C           1.9788    2.7227   21.8017 C.ar    1  UNL1       -0.0001
     35 C           2.5027    2.0186   20.5853 C.ar    1  UNL1       -0.0009
     36 C           2.9368    0.5856   20.6769 C.ar    1  UNL1        0.0162
@<TRIPOS>BOND
     1     1     2    1
     2     2     3    1
     3     3     4    1
     4     4     5    1
     5     5     6    2
     6     5     7   am
     7     7     8    1
     8     8     9    1
     9     9    10    1
    10    10    13    1
    11    13    14   ar
    12    14    15   ar
    13    15    16   ar
    14    16    17    1
    15    16    18   ar
    16    18    19    1
    17    18    20   ar
    18    10    11    1
    19    11    12    1
    20     2    21    1
    21    21    22    1
    22    22    23    1
    23    23    24    1
    24    24    25   ar
    25    25    26   ar
    26    26    27   ar
    27    27    28   ar
    28    28    29   ar
    29    29    30    1
    30    30    31    1
    31    31    32   ar
    32    32    33   ar
    33    33    34   ar
    34    34    35   ar
    35    35    36   ar
    36    12     7    1
    37    36    23    1
    38    20    13   ar
    39    29    24   ar
    40    36    31   ar
@<TRIPOS>MOLECULE
*****
 36 40 0 0 0
SMALL
GASTEIGER

@<TRIPOS>ATOM
      1 C          -2.9916    6.3967   23.2610 C.3     1  UNL1        0.0896
      2 N          -2.6892    4.9601   22.9528 N.3     1  UNL1       -0.2710
      3 C          -1.8694    4.6083   21.7470 C.3     1  UNL1        0.0818
      4 C          -1.4813    3.1816   21.4942 C.3     1  UNL1        0.1026
      5 C          -0.8140    2.8030   20.2051 C.2     1  UNL1        0.2271
      6 O          -1.2155    3.4769   18.9266 O.2     1  UNL1       -0.2748
      7 N           0.2546    1.7504   20.1947 N.am    1  UNL1       -0.2760
      8 C           0.6560    1.0765   21.4733 C.3     1  UNL1        0.1148
      9 C           1.7247    0.0239   21.4628 C.3     1  UNL1        0.1123
     10 N           2.3919   -0.3547   20.1738 N.pl3   1  UNL1       -0.3040
     11 C           1.9904    0.3192   18.8953 C.3     1  UNL1        0.1123
     12 C           0.9218    1.3718   18.9057 C.3     1  UNL1        0.1148
     13 C           3.4605   -1.4073   20.1633 C.ar    1  UNL1        0.0503
     14 C           4.6173   -1.3110   21.1134 C.ar    1  UNL1        0.0170
     15 C           5.6860   -2.3636   21.1030 C.ar    1  UNL1        0.0332
     16 C           5.5978   -3.5124   20.1424 C.ar    1  UNL1        0.1675
     17 F           6.6665   -4.5649   20.1320 F       1  UNL1       -0.2018
     18 C           4.4411   -3.6086   19.1924 C.ar    1  UNL1        0.1686
     19 F           4.3530   -4.7573   18.2319 F       1  UNL1       -0.2018
     20 C           3.3724   -2.5560   19.2028 C.ar    1  UNL1        0.0465
     21 C          -3.2066    3.8755   23.8505 C.3     1  UNL1        0.0728
     22 C          -4.5723    3.2995   23.6207 C.3     1  UNL1        0.0263
     23 C          -5.6582    4.1540   23.0371 C.3     1  UNL1        0.0519
     24 C          -5.9226    4.1263   21.5608 C.ar    1  UNL1        0.0162
     25 C          -5.1012    3.2441   20.6681 C.ar    1  UNL1       -0.0009
     26 C          -5.3656    3.2164   19.1919 C.ar    1  UNL1       -0.0001
     27 C          -6.4515    4.0709   18.6083 C.ar    1  UNL1        0.0031
     28 C          -7.2730    4.9532   19.5010 C.ar    1  UNL1        0.0372
     29 C          -7.0085    4.9809   20.9772 C.ar    1  UNL1        0.1415
     30 O          -7.8300    5.8632   21.8699 O.3     1  UNL1       -0.4541
     31 C          -7.5656    5.8908   23.3461 C.ar    1  UNL1        0.1415
     32 C          -8.3870    6.7731   24.2388 C.ar    1  UNL1        0.0372
     33 C          -8.1226    6.8008   25.7150 C.ar    1  UNL1        0.0031
     34 C          -7.0367    5.9463   26.2986 C.ar    1  UNL1       -0.0001
     35 C          -6.2153    5.0640   25.4060 C.ar    1  UNL1       -0.0009
     36 C          -6.4797    5.0363   23.9297 C.ar    1  UNL1        0.0162
@<TRIPOS>BOND
     1     1     2    1
     2     2     3    1
     3     3     4    1
     4     4     5    1
     5     5     6    2
     6     5     7   am
     7     7     8    1
     8     8     9    1
     9     9    10    1
    10    10    13    1
    11    13    14   ar
    12    14    15   ar
    13    15    16   ar
    14    16    17    1
    15    16    18   ar
    16    18    19    1
    17    18    20   ar
    18    10    11    1
    19    11    12    1
    20     2    21    1
    21    21    22    1
    22    22    23    1
    23    23    24    1
    24    24    25   ar
    25    25    26   ar
    26    26    27   ar
    27    27    28   ar
    28    28    29   ar
    29    29    30    1
    30    30    31    1
    31    31    32   ar
    32    32    33   ar
    33    33    34   ar
    34    34    35   ar
    35    35    36   ar
    36    12     7    1
    37    36    23    1
    38    20    13   ar
    39    29    24   ar
    40    36    31   ar
