@<TRIPOS>MOLECULE
*****
 34 37 0 0 0
SMALL
GASTEIGER

@<TRIPOS>ATOM
      1 C          -5.4991  -19.5838   20.4974 C.ar    1  UNL1        0.1549
      2 C          -6.7916  -19.6565   19.7398 C.ar    1  UNL1        0.0553
      3 C          -8.0841  -19.8423   20.4779 C.ar    1  UNL1        0.1753
      4 F          -9.3767  -19.9150   19.7203 F       1  UNL1       -0.2009
      5 C          -8.0841  -19.9554   21.9736 C.ar    1  UNL1        0.1681
      6 C          -6.7915  -19.8828   22.7312 C.ar    1  UNL1        0.0702
      7 C          -5.4990  -19.6970   21.9931 C.ar    1  UNL1        0.1620
      8 F          -4.2064  -19.6243   22.7507 F       1  UNL1       -0.2026
      9 O          -3.7041  -20.6989   20.3116 O.2     1  UNL1       -0.1498
     10 S          -4.2065  -19.3980   19.7593 S.O2    1  UNL1        0.0773
     11 O          -4.7088  -18.0970   19.2070 O.2     1  UNL1       -0.1498
     12 N          -2.9139  -19.2122   19.0212 N.pl3   1  UNL1       -0.1925
     13 H          -2.7748  -19.6549   18.1530 H       1  UNL1        0.1758
     14 C          -1.8332  -18.3518   19.6061 C.ar    1  UNL1        0.1977
     15 N          -0.3567  -18.5845   19.4814 N.ar    1  UNL1       -0.1997
     16 C           0.3497  -17.4843   20.2165 C.ar    1  UNL1        0.2082
     17 N          -0.6903  -16.5715   20.7956 N.ar    1  UNL1       -0.1840
     18 S          -2.0395  -17.1078   20.4183 S.2     1  UNL1        0.0508
     19 O          -9.3767  -20.1413   22.7117 O.3     1  UNL1       -0.4731
     20 C         -10.1846  -18.9459   23.1220 C.3     1  UNL1        0.2071
     21 C         -10.5913  -17.9281   22.0979 C.3     1  UNL1        0.0635
     22 C         -11.6418  -18.2650   21.0816 C.3     1  UNL1        0.0726
     23 N         -12.0484  -17.2472   20.0576 N.3     1  UNL1       -0.2973
     24 C         -11.4044  -15.8925   20.0498 C.3     1  UNL1        0.0689
     25 C         -10.3539  -15.5556   21.0660 C.3     1  UNL1        0.0216
     26 C          -9.9473  -16.5734   22.0901 C.3     1  UNL1        0.0286
     27 H         -13.0504  -17.0963   20.1742 H       1  UNL1        0.1232
     28 C          -8.8967  -16.2365   23.1064 C.ar    1  UNL1       -0.0222
     29 C          -9.2987  -15.7792   24.4773 C.ar    1  UNL1       -0.0034
     30 C          -8.2482  -15.4423   25.4936 C.ar    1  UNL1        0.0111
     31 C          -6.7956  -15.5627   25.1390 C.ar    1  UNL1        0.0577
     32 CL         -5.7451  -15.2259   26.1553 Cl      1  UNL1       -0.0822
     33 C          -6.3936  -16.0201   23.7682 C.ar    1  UNL1        0.0111
     34 C          -7.4442  -16.3570   22.7518 C.ar    1  UNL1       -0.0034
@<TRIPOS>BOND
     1     9    10    2
     2    10    11    2
     3    10    12    1
     4    12    14    1
     5    14    15   ar
     6    15    16   ar
     7    16    17   ar
     8    17    18   ar
     9    10     1    1
    10     1     2   ar
    11     2     3   ar
    12     3     4    1
    13     3     5   ar
    14     5    19    1
    15    19    20    1
    16    21    20    1
    17    21    22    1
    18    22    23    1
    19    23    24    1
    20    24    25    1
    21    25    26    1
    22    26    28    1
    23    28    29   ar
    24    29    30   ar
    25    30    31   ar
    26    31    32    1
    27    31    33   ar
    28    33    34   ar
    29     5     6   ar
    30     6     7   ar
    31     7     8    1
    32    18    14   ar
    33     7     1   ar
    34    26    21    1
    35    34    28   ar
    36    12    13    1
    37    23    27    1
@<TRIPOS>MOLECULE
*****
 34 37 0 0 0
SMALL
GASTEIGER

@<TRIPOS>ATOM
      1 C          -7.1974  -19.6738   20.9075 C.ar    1  UNL1        0.1549
      2 C          -8.5238  -19.3524   20.2853 C.ar    1  UNL1        0.0553
      3 C          -9.7820  -19.4855   21.0910 C.ar    1  UNL1        0.1753
      4 F         -11.1086  -19.1641   20.4688 F       1  UNL1       -0.2009
      5 C          -9.7138  -19.9400   22.5188 C.ar    1  UNL1        0.1681
      6 C          -8.3873  -20.2614   23.1410 C.ar    1  UNL1        0.0702
      7 C          -7.1291  -20.1283   22.3354 C.ar    1  UNL1        0.1620
      8 F          -5.8026  -20.4497   22.9575 F       1  UNL1       -0.2026
      9 O          -6.0456  -18.0467   20.1823 O.2     1  UNL1       -0.1498
     10 S          -5.9391  -19.5407   20.1018 S.O2    1  UNL1        0.0773
     11 O          -5.8325  -21.0348   20.0214 O.2     1  UNL1       -0.1498
     12 N          -4.6808  -19.4076   19.2962 N.pl3   1  UNL1       -0.1925
     13 H          -4.6773  -19.6573   18.3439 H       1  UNL1        0.1758
     14 C          -3.4278  -18.8941   19.9415 C.ar    1  UNL1        0.1977
     15 N          -2.7539  -17.5878   19.6429 N.ar    1  UNL1       -0.1997
     16 C          -1.5384  -17.4831   20.5156 C.ar    1  UNL1        0.2082
     17 N          -1.4611  -18.7249   21.3536 N.ar    1  UNL1       -0.1840
     18 S          -2.6289  -19.5969   20.9988 S.2     1  UNL1        0.0508
     19 O         -10.9721  -20.0731   23.3245 O.3     1  UNL1       -0.4731
     20 C         -11.3921  -18.9678   24.2475 C.3     1  UNL1        0.2071
     21 C         -10.3610  -18.0553   24.8428 C.3     1  UNL1        0.0635
     22 C          -9.7531  -18.3786   26.1754 C.3     1  UNL1        0.0726
     23 N          -8.7221  -17.4661   26.7706 N.3     1  UNL1       -0.2973
     24 C          -8.2991  -16.2302   26.0332 C.3     1  UNL1        0.0689
     25 C          -8.9070  -15.9069   24.7006 C.3     1  UNL1        0.0216
     26 C          -9.9380  -16.8194   24.1054 C.3     1  UNL1        0.0286
     27 H          -7.8815  -18.0256   26.9142 H       1  UNL1        0.1232
     28 C         -10.5460  -16.4962   22.7728 C.ar    1  UNL1       -0.0222
     29 C         -12.0208  -16.6679   22.5598 C.ar    1  UNL1       -0.0034
     30 C         -12.6288  -16.3446   21.2272 C.ar    1  UNL1        0.0111
     31 C         -11.7620  -15.8496   20.1075 C.ar    1  UNL1        0.0577
     32 CL        -12.3700  -15.5263   18.7749 Cl      1  UNL1       -0.0822
     33 C         -10.2871  -15.6779   20.3205 C.ar    1  UNL1        0.0111
     34 C          -9.6791  -16.0012   21.6532 C.ar    1  UNL1       -0.0034
@<TRIPOS>BOND
     1     9    10    2
     2    10    11    2
     3    10    12    1
     4    12    14    1
     5    14    15   ar
     6    15    16   ar
     7    16    17   ar
     8    17    18   ar
     9    10     1    1
    10     1     2   ar
    11     2     3   ar
    12     3     4    1
    13     3     5   ar
    14     5    19    1
    15    19    20    1
    16    21    20    1
    17    21    22    1
    18    22    23    1
    19    23    24    1
    20    24    25    1
    21    25    26    1
    22    26    28    1
    23    28    29   ar
    24    29    30   ar
    25    30    31   ar
    26    31    32    1
    27    31    33   ar
    28    33    34   ar
    29     5     6   ar
    30     6     7   ar
    31     7     8    1
    32    18    14   ar
    33     7     1   ar
    34    26    21    1
    35    34    28   ar
    36    12    13    1
    37    23    27    1
@<TRIPOS>MOLECULE
*****
 34 37 0 0 0
SMALL
GASTEIGER

@<TRIPOS>ATOM
      1 C          -4.6644  -16.9606   23.4468 C.ar    1  UNL1        0.1549
      2 C          -4.7569  -16.0744   24.6535 C.ar    1  UNL1        0.0553
      3 C          -6.0997  -15.6837   25.1959 C.ar    1  UNL1        0.1753
      4 F          -6.1922  -14.7975   26.4026 F       1  UNL1       -0.2009
      5 C          -7.3500  -16.1793   24.5317 C.ar    1  UNL1        0.1681
      6 C          -7.2575  -17.0655   23.3250 C.ar    1  UNL1        0.0702
      7 C          -5.9147  -17.4562   22.7826 C.ar    1  UNL1        0.1620
      8 F          -5.8221  -18.3425   21.5759 F       1  UNL1       -0.2026
      9 O          -3.4987  -18.7329   23.4611 O.2     1  UNL1       -0.1498
     10 S          -3.3215  -17.3514   22.9044 S.O2    1  UNL1        0.0773
     11 O          -3.1444  -15.9698   22.3477 O.2     1  UNL1       -0.1498
     12 N          -1.9788  -17.7421   22.3619 N.pl3   1  UNL1       -0.1925
     13 H          -1.2361  -17.9355   22.9786 H       1  UNL1        0.1758
     14 C          -1.7675  -17.8381   20.8800 C.ar    1  UNL1        0.1977
     15 N          -2.8444  -17.9342   19.8402 N.ar    1  UNL1       -0.1997
     16 C          -2.1848  -18.0103   18.4953 C.ar    1  UNL1        0.2082
     17 N          -0.7001  -17.9613   18.7037 N.ar    1  UNL1       -0.1840
     18 S          -0.4422  -17.8549   20.1776 S.2     1  UNL1        0.0508
     19 O          -8.6928  -15.7886   25.0741 O.3     1  UNL1       -0.4731
     20 C          -9.9398  -16.3817   24.4883 C.3     1  UNL1        0.2071
     21 C         -10.1083  -17.8713   24.4346 C.3     1  UNL1        0.0635
     22 C          -9.7148  -18.7135   25.6118 C.3     1  UNL1        0.0726
     23 N          -9.8833  -20.2030   25.5580 N.3     1  UNL1       -0.2973
     24 C         -10.4453  -20.8503   24.3270 C.3     1  UNL1        0.0689
     25 C         -10.8388  -20.0080   23.1499 C.3     1  UNL1        0.0216
     26 C         -10.6703  -18.5185   23.2037 C.3     1  UNL1        0.0286
     27 H         -10.4976  -20.4580   26.3313 H       1  UNL1        0.1232
     28 C         -11.0638  -17.6762   22.0265 C.ar    1  UNL1       -0.0222
     29 C         -10.2314  -17.6956   20.7787 C.ar    1  UNL1       -0.0034
     30 C         -10.6249  -16.8533   19.6016 C.ar    1  UNL1        0.0111
     31 C         -11.8507  -15.9916   19.6721 C.ar    1  UNL1        0.0577
     32 CL        -12.2441  -15.1494   18.4949 Cl      1  UNL1       -0.0822
     33 C         -12.6831  -15.9723   20.9198 C.ar    1  UNL1        0.0111
     34 C         -12.2896  -16.8146   22.0970 C.ar    1  UNL1       -0.0034
@<TRIPOS>BOND
     1     9    10    2
     2    10    11    2
     3    10    12    1
     4    12    14    1
     5    14    15   ar
     6    15    16   ar
     7    16    17   ar
     8    17    18   ar
     9    10     1    1
    10     1     2   ar
    11     2     3   ar
    12     3     4    1
    13     3     5   ar
    14     5    19    1
    15    19    20    1
    16    21    20    1
    17    21    22    1
    18    22    23    1
    19    23    24    1
    20    24    25    1
    21    25    26    1
    22    26    28    1
    23    28    29   ar
    24    29    30   ar
    25    30    31   ar
    26    31    32    1
    27    31    33   ar
    28    33    34   ar
    29     5     6   ar
    30     6     7   ar
    31     7     8    1
    32    18    14   ar
    33     7     1   ar
    34    26    21    1
    35    34    28   ar
    36    12    13    1
    37    23    27    1
@<TRIPOS>MOLECULE
*****
 34 37 0 0 0
SMALL
GASTEIGER

@<TRIPOS>ATOM
      1 C          -8.6309  -18.7520   21.2954 C.ar    1  UNL1        0.1549
      2 C          -8.2903  -19.7915   20.2691 C.ar    1  UNL1        0.0553
      3 C          -6.8894  -20.3188   20.1720 C.ar    1  UNL1        0.1753
      4 F          -6.5487  -21.3584   19.1457 F       1  UNL1       -0.2009
      5 C          -5.8291  -19.8065   21.1012 C.ar    1  UNL1        0.1681
      6 C          -6.1697  -18.7670   22.1275 C.ar    1  UNL1        0.0702
      7 C          -7.5706  -18.2397   22.2246 C.ar    1  UNL1        0.1620
      8 F          -7.9113  -17.2001   23.2509 F       1  UNL1       -0.2026
      9 O         -10.5523  -19.6273   21.4998 O.2     1  UNL1       -0.1498
     10 S         -10.0318  -18.2246   21.3925 S.O2    1  UNL1        0.0773
     11 O          -9.5113  -16.8220   21.2852 O.2     1  UNL1       -0.1498
     12 N         -11.4327  -17.6974   21.4896 N.pl3   1  UNL1       -0.1925
     13 H         -11.8146  -17.1750   20.7477 H       1  UNL1        0.1758
     14 C         -12.2518  -17.9660   22.7173 C.ar    1  UNL1        0.1977
     15 N         -13.7363  -17.7913   22.8424 N.ar    1  UNL1       -0.1997
     16 C         -14.1321  -18.1738   24.2377 C.ar    1  UNL1        0.2082
     17 N         -12.8921  -18.5850   24.9751 N.ar    1  UNL1       -0.1840
     18 S         -11.7300  -18.4565   24.0353 S.2     1  UNL1        0.0508
     19 O          -4.4282  -20.3338   21.0041 O.3     1  UNL1       -0.4731
     20 C          -3.3446  -19.7458   21.8585 C.3     1  UNL1        0.2071
     21 C          -2.3878  -18.7484   21.2754 C.3     1  UNL1        0.0635
     22 C          -1.4717  -19.1523   20.1584 C.3     1  UNL1        0.0726
     23 N          -0.5150  -18.1549   19.5754 N.3     1  UNL1       -0.2973
     24 C          -0.4744  -16.7537   20.1093 C.3     1  UNL1        0.0689
     25 C          -1.3905  -16.3499   21.2263 C.3     1  UNL1        0.0216
     26 C          -2.3472  -17.3473   21.8093 C.3     1  UNL1        0.0286
     27 H          -0.7321  -18.0850   18.5812 H       1  UNL1        0.1232
     28 C          -3.2634  -16.9435   22.9263 C.ar    1  UNL1       -0.0222
     29 C          -3.2836  -17.7323   24.2020 C.ar    1  UNL1       -0.0034
     30 C          -4.1997  -17.3286   25.3190 C.ar    1  UNL1        0.0111
     31 C          -5.0956  -16.1360   25.1604 C.ar    1  UNL1        0.0577
     32 CL         -6.0117  -15.7323   26.2774 Cl      1  UNL1       -0.0822
     33 C          -5.0754  -15.3472   23.8847 C.ar    1  UNL1        0.0111
     34 C          -4.1592  -15.7509   22.7677 C.ar    1  UNL1       -0.0034
@<TRIPOS>BOND
     1     9    10    2
     2    10    11    2
     3    10    12    1
     4    12    14    1
     5    14    15   ar
     6    15    16   ar
     7    16    17   ar
     8    17    18   ar
     9    10     1    1
    10     1     2   ar
    11     2     3   ar
    12     3     4    1
    13     3     5   ar
    14     5    19    1
    15    19    20    1
    16    21    20    1
    17    21    22    1
    18    22    23    1
    19    23    24    1
    20    24    25    1
    21    25    26    1
    22    26    28    1
    23    28    29   ar
    24    29    30   ar
    25    30    31   ar
    26    31    32    1
    27    31    33   ar
    28    33    34   ar
    29     5     6   ar
    30     6     7   ar
    31     7     8    1
    32    18    14   ar
    33     7     1   ar
    34    26    21    1
    35    34    28   ar
    36    12    13    1
    37    23    27    1
@<TRIPOS>MOLECULE
*****
 34 37 0 0 0
SMALL
GASTEIGER

@<TRIPOS>ATOM
      1 C           0.7719    1.7746   25.5453 C.ar    1  UNL1        0.1549
      2 C           1.8279    1.1578   26.4139 C.ar    1  UNL1        0.0553
      3 C           2.8775    0.2754   25.8061 C.ar    1  UNL1        0.1753
      4 F           3.9336   -0.3415   26.6746 F       1  UNL1       -0.2009
      5 C           2.8712    0.0097   24.3298 C.ar    1  UNL1        0.1681
      6 C           1.8152    0.6265   23.4613 C.ar    1  UNL1        0.0702
      7 C           0.7655    1.5090   24.0691 C.ar    1  UNL1        0.1620
      8 F          -0.2906    2.1258   23.2005 F       1  UNL1       -0.2026
      9 O          -0.9349    1.4550   26.7639 O.2     1  UNL1       -0.1498
     10 S          -0.2779    2.6572   26.1531 S.O2    1  UNL1        0.0773
     11 O           0.3791    3.8593   25.5423 O.2     1  UNL1       -0.1498
     12 N          -1.3276    3.5396   26.7608 N.pl3   1  UNL1       -0.1925
     13 H          -1.1260    4.0556   27.5747 H       1  UNL1        0.1758
     14 C          -2.6845    3.6359   26.1286 C.ar    1  UNL1        0.1977
     15 N          -3.0057    3.3761   24.6866 N.ar    1  UNL1       -0.1997
     16 C          -4.4781    3.5885   24.4942 C.ar    1  UNL1        0.2082
     17 N          -5.0668    3.9796   25.8173 N.ar    1  UNL1       -0.1840
     18 S          -3.9582    4.0088   26.8274 S.2     1  UNL1        0.0508
     19 O           3.9209   -0.8728   23.7221 O.3     1  UNL1       -0.4731
     20 C           4.1944   -0.8077   22.2487 C.3     1  UNL1        0.2071
     21 C           4.1695   -2.0611   21.4251 C.3     1  UNL1        0.0635
     22 C           4.9450   -3.2659   21.8691 C.3     1  UNL1        0.0726
     23 N           4.9200   -4.5192   21.0455 N.3     1  UNL1       -0.2973
     24 C           4.1196   -4.5678   19.7778 C.3     1  UNL1        0.0689
     25 C           3.3442   -3.3631   19.3337 C.3     1  UNL1        0.0216
     26 C           3.3691   -2.1097   20.1574 C.3     1  UNL1        0.0286
     27 H           4.5625   -5.2605   21.6481 H       1  UNL1        0.1232
     28 C           2.5937   -0.9049   19.7133 C.ar    1  UNL1       -0.0222
     29 C           1.1986   -0.6831   20.2179 C.ar    1  UNL1       -0.0034
     30 C           0.4231    0.5216   19.7739 C.ar    1  UNL1        0.0111
     31 C           1.0427    1.5047   18.8253 C.ar    1  UNL1        0.0577
     32 CL          0.2673    2.7095   18.3813 Cl      1  UNL1       -0.0822
     33 C           2.4378    1.2830   18.3208 C.ar    1  UNL1        0.0111
     34 C           3.2133    0.0781   18.7648 C.ar    1  UNL1       -0.0034
@<TRIPOS>BOND
     1     9    10    2
     2    10    11    2
     3    10    12    1
     4    12    14    1
     5    14    15   ar
     6    15    16   ar
     7    16    17   ar
     8    17    18   ar
     9    10     1    1
    10     1     2   ar
    11     2     3   ar
    12     3     4    1
    13     3     5   ar
    14     5    19    1
    15    19    20    1
    16    21    20    1
    17    21    22    1
    18    22    23    1
    19    23    24    1
    20    24    25    1
    21    25    26    1
    22    26    28    1
    23    28    29   ar
    24    29    30   ar
    25    30    31   ar
    26    31    32    1
    27    31    33   ar
    28    33    34   ar
    29     5     6   ar
    30     6     7   ar
    31     7     8    1
    32    18    14   ar
    33     7     1   ar
    34    26    21    1
    35    34    28   ar
    36    12    13    1
    37    23    27    1
@<TRIPOS>MOLECULE
*****
 34 37 0 0 0
SMALL
GASTEIGER

@<TRIPOS>ATOM
      1 C           2.6945    1.0580   24.5423 C.ar    1  UNL1        0.1549
      2 C           2.9665    1.7259   23.2271 C.ar    1  UNL1        0.0553
      3 C           4.0520    1.2057   22.3321 C.ar    1  UNL1        0.1753
      4 F           4.3239    1.8736   21.0167 F       1  UNL1       -0.2009
      5 C           4.8656    0.0177   22.7523 C.ar    1  UNL1        0.1681
      6 C           4.5937   -0.6502   24.0676 C.ar    1  UNL1        0.0702
      7 C           3.5082   -0.1301   24.9626 C.ar    1  UNL1        0.1620
      8 F           3.2362   -0.7980   26.2779 F       1  UNL1       -0.2026
      9 O           0.6010    0.7517   24.6951 O.2     1  UNL1       -0.1498
     10 S           1.6090    1.5781   25.4374 S.O2    1  UNL1        0.0773
     11 O           2.6169    2.4045   26.1797 O.2     1  UNL1       -0.1498
     12 N           0.5234    2.0982   26.3324 N.pl3   1  UNL1       -0.1925
     13 H           0.1365    2.9888   26.1705 H       1  UNL1        0.1758
     14 C           0.0274    1.2612   27.4741 C.ar    1  UNL1        0.1977
     15 N          -1.3961    1.1527   27.9346 N.ar    1  UNL1       -0.1997
     16 C          -1.4355    0.2102   29.1008 C.ar    1  UNL1        0.2082
     17 N          -0.0363   -0.2639   29.3611 N.ar    1  UNL1       -0.1840
     18 S           0.8678    0.3857   28.3557 S.2     1  UNL1        0.0508
     19 O           5.9511   -0.5024   21.8572 O.3     1  UNL1       -0.4731
     20 C           5.6515   -0.8222   20.4227 C.3     1  UNL1        0.2071
     21 C           5.1359   -2.1804   20.0490 C.3     1  UNL1        0.0635
     22 C           6.0414   -3.3737   20.1262 C.3     1  UNL1        0.0726
     23 N           5.5257   -4.7318   19.7524 N.3     1  UNL1       -0.2973
     24 C           4.1047   -4.8965   19.3014 C.3     1  UNL1        0.0689
     25 C           3.1992   -3.7032   19.2242 C.3     1  UNL1        0.0216
     26 C           3.7148   -2.3451   19.5980 C.3     1  UNL1        0.0286
     27 H           5.6458   -5.3280   20.5713 H       1  UNL1        0.1232
     28 C           2.8093   -1.1517   19.5208 C.ar    1  UNL1       -0.0222
     29 C           1.7319   -0.9601   20.5467 C.ar    1  UNL1       -0.0034
     30 C           0.8265    0.2332   20.4696 C.ar    1  UNL1        0.0111
     31 C           0.9983    1.2351   19.3665 C.ar    1  UNL1        0.0577
     32 CL          0.0929    2.4285   19.2893 Cl      1  UNL1       -0.0822
     33 C           2.0757    1.0435   18.3405 C.ar    1  UNL1        0.0111
     34 C           2.9812   -0.1499   18.4177 C.ar    1  UNL1       -0.0034
@<TRIPOS>BOND
     1     9    10    2
     2    10    11    2
     3    10    12    1
     4    12    14    1
     5    14    15   ar
     6    15    16   ar
     7    16    17   ar
     8    17    18   ar
     9    10     1    1
    10     1     2   ar
    11     2     3   ar
    12     3     4    1
    13     3     5   ar
    14     5    19    1
    15    19    20    1
    16    21    20    1
    17    21    22    1
    18    22    23    1
    19    23    24    1
    20    24    25    1
    21    25    26    1
    22    26    28    1
    23    28    29   ar
    24    29    30   ar
    25    30    31   ar
    26    31    32    1
    27    31    33   ar
    28    33    34   ar
    29     5     6   ar
    30     6     7   ar
    31     7     8    1
    32    18    14   ar
    33     7     1   ar
    34    26    21    1
    35    34    28   ar
    36    12    13    1
    37    23    27    1
@<TRIPOS>MOLECULE
*****
 34 37 0 0 0
SMALL
GASTEIGER

@<TRIPOS>ATOM
      1 C          -8.1572  -19.2158   21.4795 C.ar    1  UNL1        0.1549
      2 C          -7.2958  -18.6632   20.3829 C.ar    1  UNL1        0.0553
      3 C          -5.8649  -19.0967   20.2628 C.ar    1  UNL1        0.1753
      4 F          -5.0034  -18.5441   19.1661 F       1  UNL1       -0.2009
      5 C          -5.2954  -20.0827   21.2392 C.ar    1  UNL1        0.1681
      6 C          -6.1568  -20.6352   22.3358 C.ar    1  UNL1        0.0702
      7 C          -7.5877  -20.2018   22.4560 C.ar    1  UNL1        0.1620
      8 F          -8.4492  -20.7544   23.5526 F       1  UNL1       -0.2026
      9 O          -9.9708  -19.7444   20.5144 O.2     1  UNL1       -0.1498
     10 S          -9.5883  -18.7823   21.5997 S.O2    1  UNL1        0.0773
     11 O          -9.2057  -17.8202   22.6851 O.2     1  UNL1       -0.1498
     12 N         -11.0192  -18.3489   21.7199 N.pl3   1  UNL1       -0.1925
     13 H         -11.6079  -18.7733   22.3852 H       1  UNL1        0.1758
     14 C         -11.5534  -17.2689   20.8264 C.ar    1  UNL1        0.1977
     15 N         -10.8126  -16.6086   19.7015 N.ar    1  UNL1       -0.1997
     16 C         -11.7235  -15.5913   19.0808 C.ar    1  UNL1        0.2082
     17 N         -13.0272  -15.6228   19.8220 N.ar    1  UNL1       -0.1840
     18 S         -12.9221  -16.6597   20.9009 S.2     1  UNL1        0.0508
     19 O          -3.8643  -20.5161   21.1190 O.3     1  UNL1       -0.4731
     20 C          -2.7965  -19.8004   21.8919 C.3     1  UNL1        0.2071
     21 C          -1.9813  -18.7295   21.2294 C.3     1  UNL1        0.0635
     22 C          -1.0297  -19.0858   20.1260 C.3     1  UNL1        0.0726
     23 N          -0.2146  -18.0150   19.4637 N.3     1  UNL1       -0.2973
     24 C          -0.3510  -16.5878   19.9048 C.3     1  UNL1        0.0689
     25 C          -1.3026  -16.2315   21.0082 C.3     1  UNL1        0.0216
     26 C          -2.1177  -17.3023   21.6705 C.3     1  UNL1        0.0286
     27 H          -0.4469  -18.0398   18.4708 H       1  UNL1        0.1232
     28 C          -3.0693  -16.9461   22.7740 C.ar    1  UNL1       -0.0222
     29 C          -3.9588  -15.7458   22.6389 C.ar    1  UNL1       -0.0034
     30 C          -4.9104  -15.3895   23.7423 C.ar    1  UNL1        0.0111
     31 C          -4.9725  -16.2335   24.9808 C.ar    1  UNL1        0.0577
     32 CL         -5.9241  -15.8772   26.0842 Cl      1  UNL1       -0.0822
     33 C          -4.0831  -17.4337   25.1159 C.ar    1  UNL1        0.0111
     34 C          -3.1314  -17.7900   24.0124 C.ar    1  UNL1       -0.0034
@<TRIPOS>BOND
     1     9    10    2
     2    10    11    2
     3    10    12    1
     4    12    14    1
     5    14    15   ar
     6    15    16   ar
     7    16    17   ar
     8    17    18   ar
     9    10     1    1
    10     1     2   ar
    11     2     3   ar
    12     3     4    1
    13     3     5   ar
    14     5    19    1
    15    19    20    1
    16    21    20    1
    17    21    22    1
    18    22    23    1
    19    23    24    1
    20    24    25    1
    21    25    26    1
    22    26    28    1
    23    28    29   ar
    24    29    30   ar
    25    30    31   ar
    26    31    32    1
    27    31    33   ar
    28    33    34   ar
    29     5     6   ar
    30     6     7   ar
    31     7     8    1
    32    18    14   ar
    33     7     1   ar
    34    26    21    1
    35    34    28   ar
    36    12    13    1
    37    23    27    1
@<TRIPOS>MOLECULE
*****
 34 37 0 0 0
SMALL
GASTEIGER

@<TRIPOS>ATOM
      1 C           1.0018    2.5125   23.0280 C.ar    1  UNL1        0.1549
      2 C           2.1489    2.7696   22.0964 C.ar    1  UNL1        0.0553
      3 C           3.2867    1.7951   22.0210 C.ar    1  UNL1        0.1753
      4 F           4.4339    2.0522   21.0893 F       1  UNL1       -0.2009
      5 C           3.2774    0.5635   22.8772 C.ar    1  UNL1        0.1681
      6 C           2.1303    0.3064   23.8088 C.ar    1  UNL1        0.0702
      7 C           0.9925    1.2809   23.8842 C.ar    1  UNL1        0.1620
      8 F          -0.1547    1.0238   24.8159 F       1  UNL1       -0.2026
      9 O          -0.7354    2.8828   21.8683 O.2     1  UNL1       -0.1498
     10 S          -0.1361    3.4870   23.1035 S.O2    1  UNL1        0.0773
     11 O           0.4632    4.0912   24.3387 O.2     1  UNL1       -0.1498
     12 N          -1.2739    4.4614   23.1790 N.pl3   1  UNL1       -0.1925
     13 H          -1.1094    5.4221   23.0400 H       1  UNL1        0.1758
     14 C          -2.6626    3.9722   23.4662 C.ar    1  UNL1        0.1977
     15 N          -3.1791    3.5175   24.7990 N.ar    1  UNL1       -0.1997
     16 C          -4.6142    3.1161   24.6275 C.ar    1  UNL1        0.2082
     17 N          -4.9846    3.3228   23.1887 N.ar    1  UNL1       -0.1840
     18 S          -3.7784    3.8519   22.4709 S.2     1  UNL1        0.0508
     19 O           4.4153   -0.4110   22.8017 O.3     1  UNL1       -0.4731
     20 C           5.0269   -0.7485   21.4743 C.3     1  UNL1        0.2071
     21 C           4.7350   -2.0706   20.8285 C.3     1  UNL1        0.0635
     22 C           5.5861   -3.2644   21.1457 C.3     1  UNL1        0.0726
     23 N           5.2942   -4.5864   20.4999 N.3     1  UNL1       -0.2973
     24 C           4.1514   -4.7146   19.5369 C.3     1  UNL1        0.0689
     25 C           3.3003   -3.5209   19.2197 C.3     1  UNL1        0.0216
     26 C           3.5922   -2.1989   19.8655 C.3     1  UNL1        0.0286
     27 H           5.1196   -5.2504   21.2542 H       1  UNL1        0.1232
     28 C           2.7411   -1.0050   19.5482 C.ar    1  UNL1       -0.0222
     29 C           3.2316    0.0294   18.5791 C.ar    1  UNL1       -0.0034
     30 C           2.3806    1.2232   18.2618 C.ar    1  UNL1        0.0111
     31 C           1.0391    1.3826   18.9138 C.ar    1  UNL1        0.0577
     32 CL          0.1882    2.5764   18.5966 Cl      1  UNL1       -0.0822
     33 C           0.5486    0.3481   19.8830 C.ar    1  UNL1        0.0111
     34 C           1.3997   -0.8457   20.2002 C.ar    1  UNL1       -0.0034
@<TRIPOS>BOND
     1     9    10    2
     2    10    11    2
     3    10    12    1
     4    12    14    1
     5    14    15   ar
     6    15    16   ar
     7    16    17   ar
     8    17    18   ar
     9    10     1    1
    10     1     2   ar
    11     2     3   ar
    12     3     4    1
    13     3     5   ar
    14     5    19    1
    15    19    20    1
    16    21    20    1
    17    21    22    1
    18    22    23    1
    19    23    24    1
    20    24    25    1
    21    25    26    1
    22    26    28    1
    23    28    29   ar
    24    29    30   ar
    25    30    31   ar
    26    31    32    1
    27    31    33   ar
    28    33    34   ar
    29     5     6   ar
    30     6     7   ar
    31     7     8    1
    32    18    14   ar
    33     7     1   ar
    34    26    21    1
    35    34    28   ar
    36    12    13    1
    37    23    27    1
@<TRIPOS>MOLECULE
*****
 34 37 0 0 0
SMALL
GASTEIGER

@<TRIPOS>ATOM
      1 C           0.4975    2.7998   19.5474 C.ar    1  UNL1        0.1549
      2 C           0.8936    1.7318   18.5714 C.ar    1  UNL1        0.0553
      3 C           2.3353    1.3431   18.4293 C.ar    1  UNL1        0.1753
      4 F           2.7315    0.2751   17.4533 F       1  UNL1       -0.2009
      5 C           3.3810    2.0223   19.2631 C.ar    1  UNL1        0.1681
      6 C           2.9849    3.0903   20.2391 C.ar    1  UNL1        0.0702
      7 C           1.5432    3.4790   20.3812 C.ar    1  UNL1        0.1620
      8 F           1.1470    4.5470   21.3572 F       1  UNL1       -0.2026
      9 O          -1.1820    1.9890   20.5583 O.2     1  UNL1       -0.1498
     10 S          -0.9443    3.1885   19.6896 S.O2    1  UNL1        0.0773
     11 O          -0.7066    4.3881   18.8210 O.2     1  UNL1       -0.1498
     12 N          -2.3860    3.5773   19.8318 N.pl3   1  UNL1       -0.1925
     13 H          -2.9203    3.7876   19.0321 H       1  UNL1        0.1758
     14 C          -3.0137    3.6456   21.1925 C.ar    1  UNL1        0.1977
     15 N          -4.2370    2.9004   21.6376 N.ar    1  UNL1       -0.1997
     16 C          -4.5076    3.2653   23.0671 C.ar    1  UNL1        0.2082
     17 N          -3.4514    4.2361   23.5056 N.ar    1  UNL1       -0.1840
     18 S          -2.5281    4.4711   22.3470 S.2     1  UNL1        0.0508
     19 O           4.8228    1.6336   19.1209 O.3     1  UNL1       -0.4731
     20 C           5.3621    0.4606   19.8846 C.3     1  UNL1        0.2071
     21 C           4.9579   -0.9327   19.5032 C.3     1  UNL1        0.0635
     22 C           5.5081   -1.5584   18.2560 C.3     1  UNL1        0.0726
     23 N           5.1039   -2.9516   17.8747 N.3     1  UNL1       -0.2973
     24 C           4.1494   -3.7192   18.7407 C.3     1  UNL1        0.0689
     25 C           3.5992   -3.0935   19.9879 C.3     1  UNL1        0.0216
     26 C           4.0035   -1.7002   20.3692 C.3     1  UNL1        0.0286
     27 H           5.9607   -3.5025   17.8208 H       1  UNL1        0.1232
     28 C           3.4532   -1.0745   21.6165 C.ar    1  UNL1       -0.0222
     29 C           2.2182   -0.2259   21.5480 C.ar    1  UNL1       -0.0034
     30 C           1.6680    0.3999   22.7952 C.ar    1  UNL1        0.0111
     31 C           2.3528    0.1771   24.1111 C.ar    1  UNL1        0.0577
     32 CL          1.8026    0.8029   25.3583 Cl      1  UNL1       -0.0822
     33 C           3.5878   -0.6715   24.1797 C.ar    1  UNL1        0.0111
     34 C           4.1380   -1.2972   22.9323 C.ar    1  UNL1       -0.0034
@<TRIPOS>BOND
     1     9    10    2
     2    10    11    2
     3    10    12    1
     4    12    14    1
     5    14    15   ar
     6    15    16   ar
     7    16    17   ar
     8    17    18   ar
     9    10     1    1
    10     1     2   ar
    11     2     3   ar
    12     3     4    1
    13     3     5   ar
    14     5    19    1
    15    19    20    1
    16    21    20    1
    17    21    22    1
    18    22    23    1
    19    23    24    1
    20    24    25    1
    21    25    26    1
    22    26    28    1
    23    28    29   ar
    24    29    30   ar
    25    30    31   ar
    26    31    32    1
    27    31    33   ar
    28    33    34   ar
    29     5     6   ar
    30     6     7   ar
    31     7     8    1
    32    18    14   ar
    33     7     1   ar
    34    26    21    1
    35    34    28   ar
    36    12    13    1
    37    23    27    1
