@<TRIPOS>MOLECULE
*****
 32 34 0 0 0
SMALL
GASTEIGER

@<TRIPOS>ATOM
      1 C          -3.9063  -18.3845   21.9972 C.ar    1  UNL1        0.2031
      2 N          -4.7484  -17.3443   22.6746 N.ar    1  UNL1       -0.1927
      3 C          -4.2571  -15.9306   22.7753 C.ar    1  UNL1        0.2187
      4 N          -2.9236  -15.5572   22.1986 N.ar    1  UNL1       -0.2057
      5 C          -2.0816  -16.5974   21.5212 C.ar    1  UNL1        0.1799
      6 C          -2.5729  -18.0111   21.4205 C.ar    1  UNL1        0.3398
      7 N          -1.7309  -19.0513   20.7431 N.pl3   1  UNL1        0.0855
      8 O          -0.8936  -18.6812   19.5548 O.2     1  UNL1        0.0416
      9 O          -1.7262  -20.4616   21.2539 O.co2   1  UNL1       -0.5759
     10 N          -4.3976  -19.7982   21.8965 N.pl3   1  UNL1       -0.3131
     11 H          -4.0929  -20.4726   22.5457 H       1  UNL1        0.1484
     12 C          -5.3532  -20.1842   20.8066 C.3     1  UNL1        0.0883
     13 C          -9.7501  -19.3443   21.2676 C.3     1  UNL1        0.0155
     14 C          -9.1278  -19.3563   19.9028 C.3     1  UNL1        0.0014
     15 C          -7.6622  -19.6363   19.7492 C.3     1  UNL1        0.0017
     16 C          -6.8188  -19.9043   20.9603 C.3     1  UNL1        0.0196
     17 C          -7.4411  -19.8923   22.3250 C.3     1  UNL1        0.0017
     18 C          -8.9067  -19.6123   22.4787 C.3     1  UNL1        0.0014
     19 N         -11.7991  -17.7974   20.8695 N.3     1  UNL1       -0.3211
     20 C         -11.2157  -19.0644   21.4212 C.3     1  UNL1        0.0651
     21 H         -12.8004  -17.7720   21.0624 H       1  UNL1        0.1189
     22 H         -11.6460  -17.7633   19.8616 H       1  UNL1        0.1189
     23 N          -5.0991  -14.8904   23.4527 N.pl3   1  UNL1       -0.2990
     24 H          -4.6832  -14.0654   23.7928 H       1  UNL1        0.1500
     25 C          -6.5748  -15.1071   23.6119 C.3     1  UNL1        0.1173
     26 C          -7.1260  -15.5816   24.9238 C.ar    1  UNL1        0.0080
     27 C          -6.3223  -15.4149   26.1792 C.ar    1  UNL1       -0.0018
     28 C          -6.8734  -15.8894   27.4912 C.ar    1  UNL1       -0.0002
     29 C          -8.2282  -16.5307   27.5476 C.ar    1  UNL1        0.0008
     30 C          -9.0320  -16.6974   26.2921 C.ar    1  UNL1        0.0111
     31 C          -8.4808  -16.2229   24.9802 C.ar    1  UNL1        0.0553
     32 CL         -9.2845  -16.3896   23.7248 Cl      1  UNL1       -0.0825
@<TRIPOS>UNITY_ATOM_ATTR
7 1
charge 1
9 1
charge -1
@<TRIPOS>BOND
     1    19    20    1
     2    20    13    1
     3    13    14    1
     4    14    15    1
     5    15    16    1
     6    16    12    1
     7    12    10    1
     8    10     1    1
     9     1     2   ar
    10     2     3   ar
    11     3    23    1
    12    23    25    1
    13    25    26    1
    14    26    27   ar
    15    27    28   ar
    16    28    29   ar
    17    29    30   ar
    18    30    31   ar
    19    31    32    1
    20     3     4   ar
    21     4     5   ar
    22     5     6   ar
    23     6     7    1
    24     7     8    2
    25     7     9    1
    26    16    17    1
    27    17    18    1
    28    18    13    1
    29     6     1   ar
    30    31    26   ar
    31    19    21    1
    32    19    22    1
    33    10    11    1
    34    23    24    1
@<TRIPOS>MOLECULE
*****
 32 34 0 0 0
SMALL
GASTEIGER

@<TRIPOS>ATOM
      1 C          -7.6214  -17.5457   21.9436 C.ar    1  UNL1        0.2031
      2 N          -6.2391  -18.0231   22.2773 N.ar    1  UNL1       -0.1927
      3 C          -5.4125  -17.2815   23.2856 C.ar    1  UNL1        0.2187
      4 N          -5.9683  -16.0624   23.9603 N.ar    1  UNL1       -0.2057
      5 C          -7.3506  -15.5851   23.6266 C.ar    1  UNL1        0.1799
      6 C          -8.1772  -16.3267   22.6183 C.ar    1  UNL1        0.3398
      7 N          -9.5594  -15.8494   22.2846 N.pl3   1  UNL1        0.0855
      8 O          -9.9053  -15.4816   20.8721 O.2     1  UNL1        0.0416
      9 O         -10.5959  -15.7399   23.3634 O.co2   1  UNL1       -0.5759
     10 N          -8.4480  -18.2874   20.9353 N.pl3   1  UNL1       -0.3131
     11 H          -8.3885  -18.0521   19.9812 H       1  UNL1        0.1484
     12 C          -9.3652  -19.3876   21.3806 C.3     1  UNL1        0.0883
     13 C         -12.9992  -18.4247   23.8538 C.3     1  UNL1        0.0155
     14 C         -12.9914  -18.1253   22.3840 C.3     1  UNL1        0.0014
     15 C         -11.7801  -18.4463   21.5596 C.3     1  UNL1        0.0017
     16 C         -10.5765  -19.0666   22.2050 C.3     1  UNL1        0.0196
     17 C         -10.5843  -19.3659   23.6748 C.3     1  UNL1        0.0017
     18 C         -11.7956  -19.0450   24.4992 C.3     1  UNL1        0.0014
     19 N         -14.3152  -18.6101   26.0862 N.3     1  UNL1       -0.3211
     20 C         -14.2106  -18.1037   24.6782 C.3     1  UNL1        0.0651
     21 H         -15.1970  -18.2998   26.4944 H       1  UNL1        0.1189
     22 H         -13.5384  -18.2453   26.6373 H       1  UNL1        0.1189
     23 N          -4.0302  -17.7588   23.6193 N.pl3   1  UNL1       -0.2990
     24 H          -3.5456  -17.3688   24.3824 H       1  UNL1        0.1500
     25 C          -3.3863  -18.8304   22.7904 C.3     1  UNL1        0.1173
     26 C          -2.7816  -18.4884   21.4609 C.ar    1  UNL1        0.0080
     27 C          -1.7237  -17.4291   21.3684 C.ar    1  UNL1       -0.0018
     28 C          -1.1190  -17.0871   20.0389 C.ar    1  UNL1       -0.0002
     29 C          -1.5722  -17.8045   18.8020 C.ar    1  UNL1        0.0008
     30 C          -2.6301  -18.8639   18.8946 C.ar    1  UNL1        0.0111
     31 C          -3.2348  -19.2059   20.2240 C.ar    1  UNL1        0.0553
     32 CL         -4.2927  -20.2652   20.3166 Cl      1  UNL1       -0.0825
@<TRIPOS>UNITY_ATOM_ATTR
7 1
charge 1
9 1
charge -1
@<TRIPOS>BOND
     1    19    20    1
     2    20    13    1
     3    13    14    1
     4    14    15    1
     5    15    16    1
     6    16    12    1
     7    12    10    1
     8    10     1    1
     9     1     2   ar
    10     2     3   ar
    11     3    23    1
    12    23    25    1
    13    25    26    1
    14    26    27   ar
    15    27    28   ar
    16    28    29   ar
    17    29    30   ar
    18    30    31   ar
    19    31    32    1
    20     3     4   ar
    21     4     5   ar
    22     5     6   ar
    23     6     7    1
    24     7     8    2
    25     7     9    1
    26    16    17    1
    27    17    18    1
    28    18    13    1
    29     6     1   ar
    30    31    26   ar
    31    19    21    1
    32    19    22    1
    33    10    11    1
    34    23    24    1
@<TRIPOS>MOLECULE
*****
 32 34 0 0 0
SMALL
GASTEIGER

@<TRIPOS>ATOM
      1 C          -6.2807  -16.1968   23.9082 C.ar    1  UNL1        0.2031
      2 N          -6.9065  -16.7123   22.6462 N.ar    1  UNL1       -0.1927
      3 C          -8.3927  -16.6330   22.4594 C.ar    1  UNL1        0.2187
      4 N          -9.2531  -16.0383   23.5347 N.ar    1  UNL1       -0.2057
      5 C          -8.6273  -15.5228   24.7966 C.ar    1  UNL1        0.1799
      6 C          -7.1410  -15.6021   24.9834 C.ar    1  UNL1        0.3398
      7 N          -6.5152  -15.0867   26.2453 N.pl3   1  UNL1        0.0855
      8 O          -5.1655  -14.4337   26.2007 O.2     1  UNL1        0.0416
      9 O          -7.2390  -15.2241   27.5520 O.co2   1  UNL1       -0.5759
     10 N          -4.7945  -16.2761   24.0950 N.pl3   1  UNL1       -0.3131
     11 H          -4.2911  -15.4798   24.3810 H       1  UNL1        0.1484
     12 C          -4.0752  -17.5686   23.8460 C.3     1  UNL1        0.0883
     13 C          -1.4330  -18.0130   20.2306 C.3     1  UNL1        0.0155
     14 C          -2.1680  -19.2027   20.7732 C.3     1  UNL1        0.0014
     15 C          -3.0487  -19.0545   21.9783 C.3     1  UNL1        0.0017
     16 C          -3.1944  -17.7167   22.6409 C.3     1  UNL1        0.0196
     17 C          -2.4595  -16.5270   22.0982 C.3     1  UNL1        0.0017
     18 C          -1.5788  -16.6752   20.8931 C.3     1  UNL1        0.0014
     19 N          -1.0665  -17.7788   17.6692 N.3     1  UNL1       -0.3211
     20 C          -0.5523  -18.1611   19.0254 C.3     1  UNL1        0.0651
     21 H          -0.3407  -17.9433   16.9716 H       1  UNL1        0.1189
     22 H          -1.3214  -16.7912   17.6682 H       1  UNL1        0.1189
     23 N          -9.0186  -17.1485   21.1975 N.pl3   1  UNL1       -0.2990
     24 H          -8.8071  -16.7247   20.3344 H       1  UNL1        0.1500
     25 C          -9.9668  -18.3097   21.2505 C.3     1  UNL1        0.1173
     26 C         -11.0164  -18.3726   22.3201 C.ar    1  UNL1        0.0080
     27 C         -12.3160  -17.6457   22.1392 C.ar    1  UNL1       -0.0018
     28 C         -13.3658  -17.7086   23.2089 C.ar    1  UNL1       -0.0002
     29 C         -13.1159  -18.4984   24.4594 C.ar    1  UNL1        0.0008
     30 C         -11.8163  -19.2253   24.6402 C.ar    1  UNL1        0.0111
     31 C         -10.7666  -19.1624   23.5706 C.ar    1  UNL1        0.0553
     32 CL         -9.4670  -19.8893   23.7515 Cl      1  UNL1       -0.0825
@<TRIPOS>UNITY_ATOM_ATTR
7 1
charge 1
9 1
charge -1
@<TRIPOS>BOND
     1    19    20    1
     2    20    13    1
     3    13    14    1
     4    14    15    1
     5    15    16    1
     6    16    12    1
     7    12    10    1
     8    10     1    1
     9     1     2   ar
    10     2     3   ar
    11     3    23    1
    12    23    25    1
    13    25    26    1
    14    26    27   ar
    15    27    28   ar
    16    28    29   ar
    17    29    30   ar
    18    30    31   ar
    19    31    32    1
    20     3     4   ar
    21     4     5   ar
    22     5     6   ar
    23     6     7    1
    24     7     8    2
    25     7     9    1
    26    16    17    1
    27    17    18    1
    28    18    13    1
    29     6     1   ar
    30    31    26   ar
    31    19    21    1
    32    19    22    1
    33    10    11    1
    34    23    24    1
@<TRIPOS>MOLECULE
*****
 32 34 0 0 0
SMALL
GASTEIGER

@<TRIPOS>ATOM
      1 C          -7.4507  -17.1622   23.5318 C.ar    1  UNL1        0.2031
      2 N          -8.6718  -18.0166   23.7019 N.ar    1  UNL1       -0.1927
      3 C          -9.5762  -17.8063   24.8800 C.ar    1  UNL1        0.2187
      4 N          -9.2595  -16.7415   25.8879 N.ar    1  UNL1       -0.2057
      5 C          -8.0384  -15.8871   25.7178 C.ar    1  UNL1        0.1799
      6 C          -7.1340  -16.0975   24.5398 C.ar    1  UNL1        0.3398
      7 N          -5.9129  -15.2431   24.3697 N.pl3   1  UNL1        0.0855
      8 O          -5.1686  -14.7502   25.5750 O.2     1  UNL1        0.0416
      9 O          -5.4362  -14.8816   22.9941 O.co2   1  UNL1       -0.5759
     10 N          -6.5463  -17.3726   22.3538 N.pl3   1  UNL1       -0.3131
     11 H          -6.5206  -16.7078   21.6280 H       1  UNL1        0.1484
     12 C          -5.6811  -18.5957   22.2815 C.3     1  UNL1        0.0883
     13 C          -1.5978  -18.3557   20.4055 C.3     1  UNL1        0.0155
     14 C          -2.7506  -18.9125   19.6240 C.3     1  UNL1        0.0014
     15 C          -4.1117  -18.9925   20.2493 C.3     1  UNL1        0.0017
     16 C          -4.3200  -18.5157   21.6562 C.3     1  UNL1        0.0196
     17 C          -3.1671  -17.9588   22.4377 C.3     1  UNL1        0.0017
     18 C          -1.8060  -17.8788   21.8124 C.3     1  UNL1        0.0014
     19 N           0.9291  -17.7783   20.5824 N.3     1  UNL1       -0.3211
     20 C          -0.2367  -18.2757   19.7802 C.3     1  UNL1        0.0651
     21 H           1.7695  -17.7905   20.0044 H       1  UNL1        0.1189
     22 H           1.0657  -18.3814   21.3936 H       1  UNL1        0.1189
     23 N         -10.7973  -18.6607   25.0501 N.pl3   1  UNL1       -0.2990
     24 H         -10.8651  -19.2753   25.8161 H       1  UNL1        0.1500
     25 C         -11.9150  -18.5785   24.0530 C.3     1  UNL1        0.1173
     26 C         -11.6091  -18.5365   22.5852 C.ar    1  UNL1        0.0080
     27 C         -11.0586  -19.7512   21.8988 C.ar    1  UNL1       -0.0018
     28 C         -10.7526  -19.7093   20.4309 C.ar    1  UNL1       -0.0002
     29 C         -10.9973  -18.4525   19.6494 C.ar    1  UNL1        0.0008
     30 C         -11.5478  -17.2377   20.3359 C.ar    1  UNL1        0.0111
     31 C         -11.8537  -17.2797   21.8038 C.ar    1  UNL1        0.0553
     32 CL        -12.4043  -16.0649   22.4902 Cl      1  UNL1       -0.0825
@<TRIPOS>UNITY_ATOM_ATTR
7 1
charge 1
9 1
charge -1
@<TRIPOS>BOND
     1    19    20    1
     2    20    13    1
     3    13    14    1
     4    14    15    1
     5    15    16    1
     6    16    12    1
     7    12    10    1
     8    10     1    1
     9     1     2   ar
    10     2     3   ar
    11     3    23    1
    12    23    25    1
    13    25    26    1
    14    26    27   ar
    15    27    28   ar
    16    28    29   ar
    17    29    30   ar
    18    30    31   ar
    19    31    32    1
    20     3     4   ar
    21     4     5   ar
    22     5     6   ar
    23     6     7    1
    24     7     8    2
    25     7     9    1
    26    16    17    1
    27    17    18    1
    28    18    13    1
    29     6     1   ar
    30    31    26   ar
    31    19    21    1
    32    19    22    1
    33    10    11    1
    34    23    24    1
@<TRIPOS>MOLECULE
*****
 32 34 0 0 0
SMALL
GASTEIGER

@<TRIPOS>ATOM
      1 C          -5.0753  -18.7291   22.1336 C.ar    1  UNL1        0.2031
      2 N          -5.6275  -17.4770   22.7479 N.ar    1  UNL1       -0.1927
      3 C          -4.7544  -16.2663   22.8963 C.ar    1  UNL1        0.2187
      4 N          -3.3292  -16.3077   22.4304 N.ar    1  UNL1       -0.2057
      5 C          -2.7771  -17.5598   21.8161 C.ar    1  UNL1        0.1799
      6 C          -3.6501  -18.7705   21.6677 C.ar    1  UNL1        0.3398
      7 N          -3.0980  -20.0226   21.0534 N.pl3   1  UNL1        0.0855
      8 O          -3.9487  -20.8431   20.1299 O.2     1  UNL1        0.0416
      9 O          -1.6950  -20.4542   21.3627 O.co2   1  UNL1       -0.5759
     10 N          -5.9483  -19.9398   21.9852 N.pl3   1  UNL1       -0.3131
     11 H          -5.6635  -20.8018   22.3661 H       1  UNL1        0.1484
     12 C          -7.2554  -19.8372   21.2565 C.3     1  UNL1        0.0883
     13 C         -10.9878  -18.6719   23.4840 C.3     1  UNL1        0.0155
     14 C         -10.1816  -19.8528   23.9374 C.3     1  UNL1        0.0014
     15 C          -8.9375  -20.2412   23.1949 C.3     1  UNL1        0.0017
     16 C          -8.4995  -19.4487   21.9990 C.3     1  UNL1        0.0196
     17 C          -9.3057  -18.2679   21.5456 C.3     1  UNL1        0.0017
     18 C         -10.5499  -17.8795   22.2881 C.3     1  UNL1        0.0014
     19 N         -13.5147  -18.0682   23.4795 N.3     1  UNL1       -0.3211
     20 C         -12.2319  -18.2835   24.2264 C.3     1  UNL1        0.0651
     21 H         -14.2517  -17.8116   24.1363 H       1  UNL1        0.1189
     22 H         -13.7748  -18.9276   22.9955 H       1  UNL1        0.1189
     23 N          -5.3066  -15.0142   23.5106 N.pl3   1  UNL1       -0.2990
     24 H          -4.7075  -14.2597   23.7132 H       1  UNL1        0.1500
     25 C          -6.7716  -14.9116   23.8163 C.3     1  UNL1        0.1173
     26 C          -7.3270  -15.5567   25.0513 C.ar    1  UNL1        0.0080
     27 C          -8.6242  -16.3070   24.9869 C.ar    1  UNL1       -0.0018
     28 C          -9.1797  -16.9521   26.2220 C.ar    1  UNL1       -0.0002
     29 C          -8.4379  -16.8467   27.5215 C.ar    1  UNL1        0.0008
     30 C          -7.1407  -16.0963   27.5859 C.ar    1  UNL1        0.0111
     31 C          -6.5852  -15.4513   26.3508 C.ar    1  UNL1        0.0553
     32 CL         -5.2881  -14.7009   26.4153 Cl      1  UNL1       -0.0825
@<TRIPOS>UNITY_ATOM_ATTR
7 1
charge 1
9 1
charge -1
@<TRIPOS>BOND
     1    19    20    1
     2    20    13    1
     3    13    14    1
     4    14    15    1
     5    15    16    1
     6    16    12    1
     7    12    10    1
     8    10     1    1
     9     1     2   ar
    10     2     3   ar
    11     3    23    1
    12    23    25    1
    13    25    26    1
    14    26    27   ar
    15    27    28   ar
    16    28    29   ar
    17    29    30   ar
    18    30    31   ar
    19    31    32    1
    20     3     4   ar
    21     4     5   ar
    22     5     6   ar
    23     6     7    1
    24     7     8    2
    25     7     9    1
    26    16    17    1
    27    17    18    1
    28    18    13    1
    29     6     1   ar
    30    31    26   ar
    31    19    21    1
    32    19    22    1
    33    10    11    1
    34    23    24    1
@<TRIPOS>MOLECULE
*****
 32 34 0 0 0
SMALL
GASTEIGER

@<TRIPOS>ATOM
      1 C          -5.9398  -19.0368   21.7565 C.ar    1  UNL1        0.2031
      2 N          -5.8921  -17.8177   22.6293 N.ar    1  UNL1       -0.1927
      3 C          -4.6145  -17.0438   22.7675 C.ar    1  UNL1        0.2187
      4 N          -3.3848  -17.4890   22.0329 N.ar    1  UNL1       -0.2057
      5 C          -3.4326  -18.7081   21.1602 C.ar    1  UNL1        0.1799
      6 C          -4.7101  -19.4819   21.0220 C.ar    1  UNL1        0.3398
      7 N          -4.7579  -20.7010   20.1493 N.pl3   1  UNL1        0.0855
      8 O          -5.8976  -21.6682   20.2737 O.2     1  UNL1        0.0416
      9 O          -3.6659  -20.9528   19.1522 O.co2   1  UNL1       -0.5759
     10 N          -7.2173  -19.8106   21.6184 N.pl3   1  UNL1       -0.3131
     11 H          -7.2829  -20.7220   21.9849 H       1  UNL1        0.1484
     12 C          -8.3950  -19.1959   20.9217 C.3     1  UNL1        0.0883
     13 C         -12.1664  -18.3283   23.2181 C.3     1  UNL1        0.0155
     14 C         -11.9518  -17.7114   21.8678 C.3     1  UNL1        0.0014
     15 C         -10.6946  -18.0006   21.1024 C.3     1  UNL1        0.0017
     16 C          -9.6521  -18.9067   21.6872 C.3     1  UNL1        0.0196
     17 C          -9.8668  -19.5236   23.0375 C.3     1  UNL1        0.0017
     18 C         -11.1239  -19.2344   23.8029 C.3     1  UNL1        0.0014
     19 N         -13.5965  -18.5777   25.3728 N.3     1  UNL1       -0.3211
     20 C         -13.4236  -18.0391   23.9835 C.3     1  UNL1        0.0651
     21 H         -14.5024  -18.2863   25.7401 H       1  UNL1        0.1189
     22 H         -12.8544  -18.2166   25.9722 H       1  UNL1        0.1189
     23 N          -4.5668  -15.8248   23.6402 N.pl3   1  UNL1       -0.2990
     24 H          -3.7088  -15.5220   24.0163 H       1  UNL1        0.1500
     25 C          -5.8262  -15.0670   23.9398 C.3     1  UNL1        0.1173
     26 C          -6.6843  -15.4685   25.1027 C.ar    1  UNL1        0.0080
     27 C          -6.1266  -15.4311   26.4946 C.ar    1  UNL1       -0.0018
     28 C          -6.9847  -15.8326   27.6575 C.ar    1  UNL1       -0.0002
     29 C          -8.4007  -16.2715   27.4285 C.ar    1  UNL1        0.0008
     30 C          -8.9585  -16.3089   26.0365 C.ar    1  UNL1        0.0111
     31 C          -8.1003  -15.9074   24.8737 C.ar    1  UNL1        0.0553
     32 CL         -8.6581  -15.9448   23.4818 Cl      1  UNL1       -0.0825
@<TRIPOS>UNITY_ATOM_ATTR
7 1
charge 1
9 1
charge -1
@<TRIPOS>BOND
     1    19    20    1
     2    20    13    1
     3    13    14    1
     4    14    15    1
     5    15    16    1
     6    16    12    1
     7    12    10    1
     8    10     1    1
     9     1     2   ar
    10     2     3   ar
    11     3    23    1
    12    23    25    1
    13    25    26    1
    14    26    27   ar
    15    27    28   ar
    16    28    29   ar
    17    29    30   ar
    18    30    31   ar
    19    31    32    1
    20     3     4   ar
    21     4     5   ar
    22     5     6   ar
    23     6     7    1
    24     7     8    2
    25     7     9    1
    26    16    17    1
    27    17    18    1
    28    18    13    1
    29     6     1   ar
    30    31    26   ar
    31    19    21    1
    32    19    22    1
    33    10    11    1
    34    23    24    1
@<TRIPOS>MOLECULE
*****
 32 34 0 0 0
SMALL
GASTEIGER

@<TRIPOS>ATOM
      1 C          -6.4680  -15.3958   23.7149 C.ar    1  UNL1        0.2031
      2 N          -7.3480  -15.6008   22.5175 N.ar    1  UNL1       -0.1927
      3 C          -8.8308  -15.7447   22.6925 C.ar    1  UNL1        0.2187
      4 N          -9.4336  -15.6835   24.0647 N.ar    1  UNL1       -0.2057
      5 C          -8.5535  -15.4785   25.2620 C.ar    1  UNL1        0.1799
      6 C          -7.0707  -15.3347   25.0871 C.ar    1  UNL1        0.3398
      7 N          -6.1907  -15.1297   26.2843 N.pl3   1  UNL1        0.0855
      8 O          -6.5394  -15.7779   27.5913 O.2     1  UNL1        0.0416
      9 O          -4.9618  -14.2765   26.1746 O.co2   1  UNL1       -0.5759
     10 N          -4.9852  -15.2520   23.5400 N.pl3   1  UNL1       -0.3131
     11 H          -4.5996  -14.3767   23.3067 H       1  UNL1        0.1484
     12 C          -4.0898  -16.4418   23.7205 C.3     1  UNL1        0.0883
     13 C          -4.3764  -19.9244   20.8851 C.3     1  UNL1        0.0155
     14 C          -3.1244  -19.0999   20.9362 C.3     1  UNL1        0.0014
     15 C          -3.0288  -17.9390   21.8813 C.3     1  UNL1        0.0017
     16 C          -4.1853  -17.6026   22.7753 C.3     1  UNL1        0.0196
     17 C          -5.4373  -18.4271   22.7243 C.3     1  UNL1        0.0017
     18 C          -5.5328  -19.5880   21.7791 C.3     1  UNL1        0.0014
     19 N          -5.7584  -21.8461   19.8142 N.3     1  UNL1       -0.3211
     20 C          -4.4719  -21.0852   19.9399 C.3     1  UNL1        0.0651
     21 H          -5.6445  -22.5963   19.1326 H       1  UNL1        0.1189
     22 H          -6.4978  -21.2151   19.5051 H       1  UNL1        0.1189
     23 N          -9.7109  -15.9497   21.4952 N.pl3   1  UNL1       -0.2990
     24 H          -9.8532  -15.2136   20.8571 H       1  UNL1        0.1500
     25 C         -10.3741  -17.2762   21.2702 C.3     1  UNL1        0.1173
     26 C         -10.2814  -18.3480   22.3154 C.ar    1  UNL1        0.0080
     27 C          -9.0875  -19.2552   22.3555 C.ar    1  UNL1       -0.0018
     28 C          -8.9947  -20.3270   23.4007 C.ar    1  UNL1       -0.0002
     29 C         -10.0958  -20.4917   24.4059 C.ar    1  UNL1        0.0008
     30 C         -11.2898  -19.5844   24.3659 C.ar    1  UNL1        0.0111
     31 C         -11.3825  -18.5126   23.3206 C.ar    1  UNL1        0.0553
     32 CL        -12.5764  -17.6054   23.2806 Cl      1  UNL1       -0.0825
@<TRIPOS>UNITY_ATOM_ATTR
7 1
charge 1
9 1
charge -1
@<TRIPOS>BOND
     1    19    20    1
     2    20    13    1
     3    13    14    1
     4    14    15    1
     5    15    16    1
     6    16    12    1
     7    12    10    1
     8    10     1    1
     9     1     2   ar
    10     2     3   ar
    11     3    23    1
    12    23    25    1
    13    25    26    1
    14    26    27   ar
    15    27    28   ar
    16    28    29   ar
    17    29    30   ar
    18    30    31   ar
    19    31    32    1
    20     3     4   ar
    21     4     5   ar
    22     5     6   ar
    23     6     7    1
    24     7     8    2
    25     7     9    1
    26    16    17    1
    27    17    18    1
    28    18    13    1
    29     6     1   ar
    30    31    26   ar
    31    19    21    1
    32    19    22    1
    33    10    11    1
    34    23    24    1
@<TRIPOS>MOLECULE
*****
 32 34 0 0 0
SMALL
GASTEIGER

@<TRIPOS>ATOM
      1 C          -6.8689  -18.9764   22.6801 C.ar    1  UNL1        0.2031
      2 N          -8.0980  -19.8321   22.5954 N.ar    1  UNL1       -0.1927
      3 C          -9.4163  -19.3005   23.0743 C.ar    1  UNL1        0.2187
      4 N          -9.5056  -17.9133   23.6380 N.ar    1  UNL1       -0.2057
      5 C          -8.2765  -17.0577   23.7228 C.ar    1  UNL1        0.1799
      6 C          -6.9581  -17.5892   23.2438 C.ar    1  UNL1        0.3398
      7 N          -5.7290  -16.7336   23.3285 N.pl3   1  UNL1        0.0855
      8 O          -4.4104  -17.3490   23.6925 O.2     1  UNL1        0.0416
      9 O          -5.8185  -15.2625   23.0492 O.co2   1  UNL1       -0.5759
     10 N          -5.5505  -19.5079   22.2012 N.pl3   1  UNL1       -0.3131
     11 H          -4.9772  -20.0253   22.8118 H       1  UNL1        0.1484
     12 C          -5.1057  -19.2513   20.7918 C.3     1  UNL1        0.0883
     13 C          -0.8434  -18.0743   19.9566 C.3     1  UNL1        0.0155
     14 C          -1.1945  -18.7554   21.2461 C.3     1  UNL1        0.0014
     15 C          -2.6153  -19.1477   21.5245 C.3     1  UNL1        0.0017
     16 C          -3.6849  -18.8590   20.5134 C.3     1  UNL1        0.0196
     17 C          -3.3339  -18.1779   19.2239 C.3     1  UNL1        0.0017
     18 C          -1.9131  -17.7856   18.9455 C.3     1  UNL1        0.0014
     19 N           1.6190  -17.8279   20.7476 N.3     1  UNL1       -0.3211
     20 C           0.5773  -17.6820   19.6782 C.3     1  UNL1        0.0651
     21 H           2.5213  -17.5165   20.3880 H       1  UNL1        0.1189
     22 H           1.6840  -18.8066   21.0276 H       1  UNL1        0.1189
     23 N         -10.6454  -20.1561   22.9896 N.pl3   1  UNL1       -0.2990
     24 H         -10.8259  -20.8288   23.6854 H       1  UNL1        0.1500
     25 C         -11.5997  -19.9868   21.8447 C.3     1  UNL1        0.1173
     26 C         -11.7526  -18.6471   21.1876 C.ar    1  UNL1        0.0080
     27 C         -12.6843  -17.6271   21.7721 C.ar    1  UNL1       -0.0018
     28 C         -12.8372  -16.2873   21.1150 C.ar    1  UNL1       -0.0002
     29 C         -12.0585  -15.9676   19.8735 C.ar    1  UNL1        0.0008
     30 C         -11.1268  -16.9877   19.2891 C.ar    1  UNL1        0.0111
     31 C         -10.9739  -18.3274   19.9461 C.ar    1  UNL1        0.0553
     32 CL        -10.0422  -19.3473   19.3617 Cl      1  UNL1       -0.0825
@<TRIPOS>UNITY_ATOM_ATTR
7 1
charge 1
9 1
charge -1
@<TRIPOS>BOND
     1    19    20    1
     2    20    13    1
     3    13    14    1
     4    14    15    1
     5    15    16    1
     6    16    12    1
     7    12    10    1
     8    10     1    1
     9     1     2   ar
    10     2     3   ar
    11     3    23    1
    12    23    25    1
    13    25    26    1
    14    26    27   ar
    15    27    28   ar
    16    28    29   ar
    17    29    30   ar
    18    30    31   ar
    19    31    32    1
    20     3     4   ar
    21     4     5   ar
    22     5     6   ar
    23     6     7    1
    24     7     8    2
    25     7     9    1
    26    16    17    1
    27    17    18    1
    28    18    13    1
    29     6     1   ar
    30    31    26   ar
    31    19    21    1
    32    19    22    1
    33    10    11    1
    34    23    24    1
@<TRIPOS>MOLECULE
*****
 32 34 0 0 0
SMALL
GASTEIGER

@<TRIPOS>ATOM
      1 C          -6.6044  -19.6696   20.9978 C.ar    1  UNL1        0.2031
      2 N          -7.8786  -19.7457   20.2099 N.ar    1  UNL1       -0.1927
      3 C          -8.8855  -18.6377   20.3033 C.ar    1  UNL1        0.2187
      4 N          -8.6182  -17.4537   21.1847 N.ar    1  UNL1       -0.2057
      5 C          -7.3441  -17.3777   21.9726 C.ar    1  UNL1        0.1799
      6 C          -6.3372  -18.4856   21.8792 C.ar    1  UNL1        0.3398
      7 N          -5.0631  -18.4096   22.6671 N.pl3   1  UNL1        0.0855
      8 O          -4.4298  -19.6640   23.1918 O.2     1  UNL1        0.0416
      9 O          -4.4223  -17.0791   22.9303 O.co2   1  UNL1       -0.5759
     10 N          -5.5976  -20.7775   20.9044 N.pl3   1  UNL1       -0.3131
     11 H          -5.6168  -21.5163   21.5549 H       1  UNL1        0.1484
     12 C          -4.5615  -20.7599   19.8200 C.3     1  UNL1        0.0883
     13 C          -1.1562  -17.8242   20.0089 C.3     1  UNL1        0.0155
     14 C          -1.1834  -19.0020   20.9373 C.3     1  UNL1        0.0014
     15 C          -2.3185  -19.9806   20.8743 C.3     1  UNL1        0.0017
     16 C          -3.4264  -19.7814   19.8829 C.3     1  UNL1        0.0196
     17 C          -3.3992  -18.6035   18.9546 C.3     1  UNL1        0.0017
     18 C          -2.2641  -17.6250   19.0175 C.3     1  UNL1        0.0014
     19 N           1.3382  -17.3011   20.5133 N.3     1  UNL1       -0.3211
     20 C          -0.0211  -16.8457   20.0719 C.3     1  UNL1        0.0651
     21 H           1.9834  -16.5113   20.4966 H       1  UNL1        0.1189
     22 H           1.6746  -18.0285   19.8823 H       1  UNL1        0.1189
     23 N         -10.1596  -18.7138   19.5154 N.pl3   1  UNL1       -0.2990
     24 H         -10.1574  -18.5009   18.5542 H       1  UNL1        0.1500
     25 C         -11.4371  -19.1142   20.1920 C.3     1  UNL1        0.1173
     26 C         -11.5455  -19.0522   21.6867 C.ar    1  UNL1        0.0080
     27 C         -10.8729  -20.0935   22.5313 C.ar    1  UNL1       -0.0018
     28 C         -10.9813  -20.0315   24.0261 C.ar    1  UNL1       -0.0002
     29 C         -11.7623  -18.9283   24.6763 C.ar    1  UNL1        0.0008
     30 C         -12.4349  -17.8869   23.8317 C.ar    1  UNL1        0.0111
     31 C         -12.3265  -17.9489   22.3369 C.ar    1  UNL1        0.0553
     32 CL        -12.9991  -16.9077   21.4924 Cl      1  UNL1       -0.0825
@<TRIPOS>UNITY_ATOM_ATTR
7 1
charge 1
9 1
charge -1
@<TRIPOS>BOND
     1    19    20    1
     2    20    13    1
     3    13    14    1
     4    14    15    1
     5    15    16    1
     6    16    12    1
     7    12    10    1
     8    10     1    1
     9     1     2   ar
    10     2     3   ar
    11     3    23    1
    12    23    25    1
    13    25    26    1
    14    26    27   ar
    15    27    28   ar
    16    28    29   ar
    17    29    30   ar
    18    30    31   ar
    19    31    32    1
    20     3     4   ar
    21     4     5   ar
    22     5     6   ar
    23     6     7    1
    24     7     8    2
    25     7     9    1
    26    16    17    1
    27    17    18    1
    28    18    13    1
    29     6     1   ar
    30    31    26   ar
    31    19    21    1
    32    19    22    1
    33    10    11    1
    34    23    24    1
