@<TRIPOS>MOLECULE
*****
 33 37 0 0 0
SMALL
GASTEIGER

@<TRIPOS>ATOM
      1 C           6.1577   -2.5765   28.8720 C.ar    1  UNL1       -0.0024
      2 C           6.5528   -3.1922   30.1815 C.ar    1  UNL1       -0.0013
      3 C           6.1372   -2.5461   31.4699 C.ar    1  UNL1        0.0181
      4 C           5.3263   -1.2843   31.4487 C.ar    1  UNL1        0.1056
      5 C           4.9311   -0.6686   30.1392 C.ar    1  UNL1        0.0181
      6 C           5.3468   -1.3147   28.8509 C.ar    1  UNL1       -0.0013
      7 S           4.9107   -0.6382   32.7370 S.O2    1  UNL1        0.0071
      8 O           6.3043   -0.1163   32.9249 O.2     1  UNL1       -0.1687
      9 O           3.5170   -1.1601   32.5491 O.2     1  UNL1       -0.1687
     10 C           4.4950    0.0079   34.0253 C.3     1  UNL1        0.1366
     11 C           4.9652   -0.5563   35.3333 C.3     1  UNL1        0.0413
     12 C           4.5495    0.0898   36.6215 C.3     1  UNL1        0.0740
     13 N           3.6637    1.3001   36.6020 N.3     1  UNL1       -0.2696
     14 C           3.1935    1.8643   35.2941 C.3     1  UNL1        0.0740
     15 C           3.6092    1.2182   34.0058 C.3     1  UNL1        0.0413
     16 C           3.2480    1.9462   37.8903 C.3     1  UNL1        0.1172
     17 C           2.0393    1.8668   38.7750 C.3     1  UNL1        0.1606
     18 O           2.6601    2.8599   39.7123 O.3     1  UNL1       -0.3507
     19 C           3.8688    2.9393   38.8276 C.3     1  UNL1        0.1606
     20 C           6.5733   -3.2226   27.5837 C.3     1  UNL1        0.1177
     21 O           7.2055   -4.7149   25.0592 O.2     1  UNL1       -0.2526
     22 C           6.1920   -3.6093   25.0430 C.2     1  UNL1        0.3047
     23 N           5.8759   -2.8631   26.3052 N.am    1  UNL1       -0.2847
     24 N           5.4946   -3.2498   23.7646 N.am    1  UNL1       -0.2560
     25 C           5.7057   -3.9035   22.4311 C.3     1  UNL1        0.1218
     26 C           4.8052   -3.2313   21.4375 C.ar    1  UNL1       -0.0016
     27 C           4.5851   -3.4545   19.9707 C.ar    1  UNL1        0.0178
     28 C           3.5973   -2.6087   19.2233 C.ar    1  UNL1        0.0986
     29 N           2.8296   -1.5395   19.9427 N.ar    1  UNL1       -0.2426
     30 C           3.0497   -1.3162   21.4095 C.ar    1  UNL1        0.0960
     31 C           4.0375   -2.1621   22.1569 C.ar    1  UNL1        0.0146
     32 C           4.4636   -2.1736   23.5951 C.3     1  UNL1        0.1233
     33 H           5.2107   -2.1374   26.2946 H       1  UNL1        0.1513
@<TRIPOS>BOND
     1    21    22    2
     2    22    23   am
     3    23    20    1
     4    20     1    1
     5     1     2   ar
     6     2     3   ar
     7     3     4   ar
     8     4     7    1
     9     7     8    2
    10     7     9    2
    11     7    10    1
    12    10    11    1
    13    11    12    1
    14    12    13    1
    15    13    16    1
    16    16    17    1
    17    17    18    1
    18    18    19    1
    19    13    14    1
    20    14    15    1
    21     4     5   ar
    22     5     6   ar
    23    22    24   am
    24    24    25    1
    25    25    26    1
    26    26    27   ar
    27    27    28   ar
    28    28    29   ar
    29    29    30   ar
    30    30    31   ar
    31    31    32    1
    32     6     1   ar
    33    32    24    1
    34    15    10    1
    35    31    26   ar
    36    19    16    1
    37    23    33    1
@<TRIPOS>MOLECULE
*****
 33 37 0 0 0
SMALL
GASTEIGER

@<TRIPOS>ATOM
      1 C           1.8435    1.1878   27.0427 C.ar    1  UNL1       -0.0024
      2 C           3.2346    1.4515   27.5378 C.ar    1  UNL1       -0.0013
      3 C           3.5068    1.5148   29.0116 C.ar    1  UNL1        0.0181
      4 C           2.3878    1.3144   29.9902 C.ar    1  UNL1        0.1056
      5 C           0.9966    1.0508   29.4950 C.ar    1  UNL1        0.0181
      6 C           0.7245    0.9875   28.0213 C.ar    1  UNL1       -0.0013
      7 S           2.6600    1.3777   31.4639 S.O2    1  UNL1        0.0071
      8 O           4.1350    1.3737   31.1917 O.2     1  UNL1       -0.1687
      9 O           1.1849    1.3818   31.7361 O.2     1  UNL1       -0.1687
     10 C           2.9321    1.4410   32.9376 C.3     1  UNL1        0.1366
     11 C           3.9397    0.5168   33.5547 C.3     1  UNL1        0.0413
     12 C           4.2118    0.5801   35.0284 C.3     1  UNL1        0.0740
     13 N           3.4764    1.5676   35.8851 N.3     1  UNL1       -0.2696
     14 C           2.4689    2.4918   35.2682 C.3     1  UNL1        0.0740
     15 C           2.1967    2.4285   33.7944 C.3     1  UNL1        0.0413
     16 C           3.7485    1.6309   37.3589 C.3     1  UNL1        0.1172
     17 C           2.9577    1.3299   38.5974 C.3     1  UNL1        0.1606
     18 O           4.1334    1.7204   39.4432 O.3     1  UNL1       -0.3507
     19 C           4.9242    2.0214   38.2046 C.3     1  UNL1        0.1606
     20 C           1.5713    1.1245   25.5689 C.3     1  UNL1        0.1177
     21 O           1.0628    1.0321   22.6138 O.2     1  UNL1       -0.2526
     22 C           2.0659    0.1036   23.2316 C.2     1  UNL1        0.3047
     23 N           2.3202    0.1499   24.7091 N.am    1  UNL1       -0.2847
     24 N           2.8148   -0.8710   22.3718 N.am    1  UNL1       -0.2560
     25 C           2.6677   -1.0319   20.8877 C.3     1  UNL1        0.1218
     26 C           3.6042   -2.1162   20.4438 C.ar    1  UNL1       -0.0016
     27 C           3.8897   -2.7056   19.0944 C.ar    1  UNL1        0.0178
     28 C           4.9012   -3.8044   18.9547 C.ar    1  UNL1        0.0986
     29 N           5.6272   -4.3138   20.1645 N.ar    1  UNL1       -0.2426
     30 C           5.3416   -3.7244   21.5139 C.ar    1  UNL1        0.0960
     31 C           4.3301   -2.6256   21.6536 C.ar    1  UNL1        0.0146
     32 C           3.8423   -1.8560   22.8451 C.3     1  UNL1        0.1233
     33 H           2.9785   -0.4595   25.1146 H       1  UNL1        0.1513
@<TRIPOS>BOND
     1    21    22    2
     2    22    23   am
     3    23    20    1
     4    20     1    1
     5     1     2   ar
     6     2     3   ar
     7     3     4   ar
     8     4     7    1
     9     7     8    2
    10     7     9    2
    11     7    10    1
    12    10    11    1
    13    11    12    1
    14    12    13    1
    15    13    16    1
    16    16    17    1
    17    17    18    1
    18    18    19    1
    19    13    14    1
    20    14    15    1
    21     4     5   ar
    22     5     6   ar
    23    22    24   am
    24    24    25    1
    25    25    26    1
    26    26    27   ar
    27    27    28   ar
    28    28    29   ar
    29    29    30   ar
    30    30    31   ar
    31    31    32    1
    32     6     1   ar
    33    32    24    1
    34    15    10    1
    35    31    26   ar
    36    19    16    1
    37    23    33    1
@<TRIPOS>MOLECULE
*****
 33 37 0 0 0
SMALL
GASTEIGER

@<TRIPOS>ATOM
      1 C           4.7547   -2.8479   22.3290 C.ar    1  UNL1       -0.0024
      2 C           4.1503   -1.8231   23.2424 C.ar    1  UNL1       -0.0013
      3 C           3.1961   -0.8021   22.6973 C.ar    1  UNL1        0.0181
      4 C           2.8464   -0.8059   21.2386 C.ar    1  UNL1        0.1056
      5 C           3.4509   -1.8307   20.3251 C.ar    1  UNL1        0.0181
      6 C           4.4050   -2.8517   20.8703 C.ar    1  UNL1       -0.0013
      7 S           1.8923    0.2151   20.6934 S.O2    1  UNL1        0.0071
      8 O           1.0488   -0.8821   20.1149 O.2     1  UNL1       -0.1687
      9 O           2.7358    1.3122   21.2719 O.2     1  UNL1       -0.1687
     10 C           0.9382    1.2360   20.1482 C.3     1  UNL1        0.1366
     11 C          -0.1197    1.8229   21.0351 C.3     1  UNL1        0.0413
     12 C          -1.0738    2.8439   20.4899 C.3     1  UNL1        0.0740
     13 N          -0.9701    3.2780   19.0579 N.3     1  UNL1       -0.2696
     14 C           0.0877    2.6912   18.1710 C.3     1  UNL1        0.0740
     15 C           1.0419    1.6702   18.7162 C.3     1  UNL1        0.0413
     16 C          -1.9242    4.2990   18.5127 C.3     1  UNL1        0.1172
     17 C          -1.7912    5.6889   17.9645 C.3     1  UNL1        0.1606
     18 O          -3.2736    5.7429   17.7416 O.3     1  UNL1       -0.3507
     19 C          -3.4066    4.3530   18.2898 C.3     1  UNL1        0.1606
     20 C           5.7089   -3.8689   22.8741 C.3     1  UNL1        0.1177
     21 O           7.5280   -5.9858   23.9738 O.2     1  UNL1       -0.2526
     22 C           6.8516   -5.0217   24.9027 C.2     1  UNL1        0.3047
     23 N           5.9420   -3.9633   24.3529 N.am    1  UNL1       -0.2847
     24 N           7.0847   -5.1161   26.3815 N.am    1  UNL1       -0.2560
     25 C           7.9626   -6.1162   27.0736 C.3     1  UNL1        0.1218
     26 C           7.9014   -5.8452   28.5476 C.ar    1  UNL1       -0.0016
     27 C           8.5611   -6.5107   29.7188 C.ar    1  UNL1        0.0178
     28 C           8.3052   -6.0086   31.1089 C.ar    1  UNL1        0.0986
     29 N           7.3895   -4.8409   31.3277 N.ar    1  UNL1       -0.2426
     30 C           6.7298   -4.1753   30.1566 C.ar    1  UNL1        0.0960
     31 C           6.9857   -4.6774   28.7665 C.ar    1  UNL1        0.0146
     32 C           6.4810   -4.2268   27.4278 C.3     1  UNL1        0.1233
     33 H           5.4981   -3.3305   24.9626 H       1  UNL1        0.1513
@<TRIPOS>BOND
     1    21    22    2
     2    22    23   am
     3    23    20    1
     4    20     1    1
     5     1     2   ar
     6     2     3   ar
     7     3     4   ar
     8     4     7    1
     9     7     8    2
    10     7     9    2
    11     7    10    1
    12    10    11    1
    13    11    12    1
    14    12    13    1
    15    13    16    1
    16    16    17    1
    17    17    18    1
    18    18    19    1
    19    13    14    1
    20    14    15    1
    21     4     5   ar
    22     5     6   ar
    23    22    24   am
    24    24    25    1
    25    25    26    1
    26    26    27   ar
    27    27    28   ar
    28    28    29   ar
    29    29    30   ar
    30    30    31   ar
    31    31    32    1
    32     6     1   ar
    33    32    24    1
    34    15    10    1
    35    31    26   ar
    36    19    16    1
    37    23    33    1
@<TRIPOS>MOLECULE
*****
 33 37 0 0 0
SMALL
GASTEIGER

@<TRIPOS>ATOM
      1 C           0.3755    1.4460   26.4097 C.ar    1  UNL1       -0.0024
      2 C           1.8284    1.6858   26.6947 C.ar    1  UNL1       -0.0013
      3 C           2.3245    1.6892   28.1104 C.ar    1  UNL1        0.0181
      4 C           1.3675    1.4527   29.2409 C.ar    1  UNL1        0.1056
      5 C          -0.0856    1.2129   28.9559 C.ar    1  UNL1        0.0181
      6 C          -0.5815    1.2095   27.5403 C.ar    1  UNL1       -0.0013
      7 S           1.8635    1.4561   30.6565 S.O2    1  UNL1        0.0071
      8 O           1.8936    2.9557   30.6424 O.2     1  UNL1       -0.1687
      9 O           1.8333   -0.0435   30.6707 O.2     1  UNL1       -0.1687
     10 C           2.3595    1.4595   32.0721 C.3     1  UNL1        0.1366
     11 C           1.8058    2.4447   33.0585 C.3     1  UNL1        0.0413
     12 C           2.3018    2.4481   34.4741 C.3     1  UNL1        0.0740
     13 N           3.3514    1.4663   34.9034 N.3     1  UNL1       -0.2696
     14 C           3.9051    0.4811   33.9171 C.3     1  UNL1        0.0740
     15 C           3.4091    0.4777   32.5014 C.3     1  UNL1        0.0413
     16 C           3.8474    1.4696   36.3190 C.3     1  UNL1        0.1172
     17 C           3.7958    2.4436   37.4586 C.3     1  UNL1        0.1606
     18 O           4.5489    1.4744   38.3211 O.3     1  UNL1       -0.3507
     19 C           4.6004    0.5005   37.1814 C.3     1  UNL1        0.1606
     20 C          -0.1206    1.4426   24.9940 C.3     1  UNL1        0.1177
     21 O          -0.1988    2.5195   22.1952 O.2     1  UNL1       -0.2526
     22 C           0.6533    1.3277   22.5166 C.2     1  UNL1        0.3047
     23 N           0.6924    0.7892   23.9160 N.am    1  UNL1       -0.2847
     24 N           1.4663    0.6743   21.4386 N.am    1  UNL1       -0.2560
     25 C           1.5279    1.0985   20.0011 C.3     1  UNL1        0.1218
     26 C           2.4601    0.1684   19.2829 C.ar    1  UNL1       -0.0016
     27 C           2.9069    0.1021   17.8525 C.ar    1  UNL1        0.0178
     28 C           3.8683   -0.9633   17.4158 C.ar    1  UNL1        0.0986
     29 N           4.3829   -1.9623   18.4093 N.ar    1  UNL1       -0.2426
     30 C           3.9361   -1.8960   19.8397 C.ar    1  UNL1        0.0960
     31 C           2.9747   -0.8306   20.2764 C.ar    1  UNL1        0.0146
     32 C           2.3605   -0.5179   21.6087 C.3     1  UNL1        0.1233
     33 H           1.2517    0.0070   24.1270 H       1  UNL1        0.1513
@<TRIPOS>BOND
     1    21    22    2
     2    22    23   am
     3    23    20    1
     4    20     1    1
     5     1     2   ar
     6     2     3   ar
     7     3     4   ar
     8     4     7    1
     9     7     8    2
    10     7     9    2
    11     7    10    1
    12    10    11    1
    13    11    12    1
    14    12    13    1
    15    13    16    1
    16    16    17    1
    17    17    18    1
    18    18    19    1
    19    13    14    1
    20    14    15    1
    21     4     5   ar
    22     5     6   ar
    23    22    24   am
    24    24    25    1
    25    25    26    1
    26    26    27   ar
    27    27    28   ar
    28    28    29   ar
    29    29    30   ar
    30    30    31   ar
    31    31    32    1
    32     6     1   ar
    33    32    24    1
    34    15    10    1
    35    31    26   ar
    36    19    16    1
    37    23    33    1
@<TRIPOS>MOLECULE
*****
 33 37 0 0 0
SMALL
GASTEIGER

@<TRIPOS>ATOM
      1 C           4.4407   -1.5231   27.4557 C.ar    1  UNL1       -0.0024
      2 C           3.1837   -0.9228   28.0121 C.ar    1  UNL1       -0.0013
      3 C           3.1193   -0.5216   29.4560 C.ar    1  UNL1        0.0181
      4 C           4.3120   -0.7207   30.3436 C.ar    1  UNL1        0.1056
      5 C           5.5691   -1.3210   29.7872 C.ar    1  UNL1        0.0181
      6 C           5.6334   -1.7222   28.3433 C.ar    1  UNL1       -0.0013
      7 S           4.2478   -0.3195   31.7875 S.O2    1  UNL1        0.0071
      8 O           3.5735   -1.6179   32.1182 O.2     1  UNL1       -0.1687
      9 O           4.9220    0.9789   31.4567 O.2     1  UNL1       -0.1687
     10 C           4.1835    0.0817   33.2314 C.3     1  UNL1        0.1366
     11 C           3.4684    1.3388   33.6294 C.3     1  UNL1        0.0413
     12 C           3.4041    1.7400   35.0733 C.3     1  UNL1        0.0740
     13 N           4.0549    0.8842   36.1192 N.3     1  UNL1       -0.2696
     14 C           4.7699   -0.3729   35.7213 C.3     1  UNL1        0.0740
     15 C           4.8343   -0.7742   34.2773 C.3     1  UNL1        0.0413
     16 C           3.9906    1.2854   37.5631 C.3     1  UNL1        0.1172
     17 C           3.0369    1.0321   38.6929 C.3     1  UNL1        0.1606
     18 O           3.8996    1.8527   39.6052 O.3     1  UNL1       -0.3507
     19 C           4.8533    2.1060   38.4754 C.3     1  UNL1        0.1606
     20 C           4.5050   -1.9243   26.0118 C.3     1  UNL1        0.1177
     21 O           4.5148   -2.8100   23.1456 O.2     1  UNL1       -0.2526
     22 C           3.7659   -1.5735   23.5459 C.2     1  UNL1        0.3047
     23 N           3.7610   -1.1307   24.9790 N.am    1  UNL1       -0.2847
     24 N           3.0219   -0.7799   22.5131 N.am    1  UNL1       -0.2560
     25 C           2.9366   -1.0978   21.0497 C.3     1  UNL1        0.1218
     26 C           2.0946   -0.0434   20.3945 C.ar    1  UNL1       -0.0016
     27 C           1.6679    0.1591   18.9709 C.ar    1  UNL1        0.0178
     28 C           0.8060    1.3312   18.6058 C.ar    1  UNL1        0.0986
     29 N           0.3708    2.3007   19.6643 N.ar    1  UNL1       -0.2426
     30 C           0.7975    2.0982   21.0880 C.ar    1  UNL1        0.0960
     31 C           1.6594    0.9262   21.4531 C.ar    1  UNL1        0.0146
     32 C           2.2325    0.4710   22.7624 C.3     1  UNL1        0.1233
     33 H           3.2695   -0.3192   25.2418 H       1  UNL1        0.1513
@<TRIPOS>BOND
     1    21    22    2
     2    22    23   am
     3    23    20    1
     4    20     1    1
     5     1     2   ar
     6     2     3   ar
     7     3     4   ar
     8     4     7    1
     9     7     8    2
    10     7     9    2
    11     7    10    1
    12    10    11    1
    13    11    12    1
    14    12    13    1
    15    13    16    1
    16    16    17    1
    17    17    18    1
    18    18    19    1
    19    13    14    1
    20    14    15    1
    21     4     5   ar
    22     5     6   ar
    23    22    24   am
    24    24    25    1
    25    25    26    1
    26    26    27   ar
    27    27    28   ar
    28    28    29   ar
    29    29    30   ar
    30    30    31   ar
    31    31    32    1
    32     6     1   ar
    33    32    24    1
    34    15    10    1
    35    31    26   ar
    36    19    16    1
    37    23    33    1
@<TRIPOS>MOLECULE
*****
 33 37 0 0 0
SMALL
GASTEIGER

@<TRIPOS>ATOM
      1 C           6.7641   -4.0766   27.8486 C.ar    1  UNL1       -0.0024
      2 C           6.8099   -4.8452   29.1359 C.ar    1  UNL1       -0.0013
      3 C           6.6048   -4.1349   30.4411 C.ar    1  UNL1        0.0181
      4 C           6.3539   -2.6562   30.4590 C.ar    1  UNL1        0.1056
      5 C           6.3081   -1.8876   29.1716 C.ar    1  UNL1        0.0181
      6 C           6.5132   -2.5979   27.8664 C.ar    1  UNL1       -0.0013
      7 S           6.1489   -1.9460   31.7642 S.O2    1  UNL1        0.0071
      8 O           5.9255   -0.6581   31.0283 O.2     1  UNL1       -0.1687
      9 O           6.3722   -3.2338   32.5000 O.2     1  UNL1       -0.1687
     10 C           5.9438   -1.2357   33.0693 C.3     1  UNL1        0.1366
     11 C           6.9331   -0.2046   33.5256 C.3     1  UNL1        0.0413
     12 C           6.7280    0.5056   34.8308 C.3     1  UNL1        0.0740
     13 N           5.5337    0.1848   35.6797 N.3     1  UNL1       -0.2696
     14 C           4.5444   -0.8463   35.2234 C.3     1  UNL1        0.0740
     15 C           4.7495   -1.5566   33.9182 C.3     1  UNL1        0.0413
     16 C           5.3286    0.8950   36.9849 C.3     1  UNL1        0.1172
     17 C           4.1850    1.0417   37.9443 C.3     1  UNL1        0.1606
     18 O           5.0386    1.8994   38.8308 O.3     1  UNL1       -0.3507
     19 C           6.1822    1.7527   37.8713 C.3     1  UNL1        0.1606
     20 C           6.9691   -4.7868   26.5433 C.3     1  UNL1        0.1177
     21 O           8.3788   -4.9712   23.9017 O.2     1  UNL1       -0.2526
     22 C           7.0065   -4.3706   23.9791 C.2     1  UNL1        0.3047
     23 N           6.3017   -4.2784   25.2999 N.am    1  UNL1       -0.2847
     24 N           6.3391   -3.8622   22.7357 N.am    1  UNL1       -0.2560
     25 C           6.9169   -3.8870   21.3517 C.3     1  UNL1        0.1218
     26 C           5.9116   -3.2799   20.4186 C.ar    1  UNL1       -0.0016
     27 C           5.9332   -3.0396   18.9382 C.ar    1  UNL1        0.0178
     28 C           4.7555   -2.3993   18.2651 C.ar    1  UNL1        0.0986
     29 N           3.5563   -1.9993   19.0724 N.ar    1  UNL1       -0.2426
     30 C           3.5346   -2.2396   20.5528 C.ar    1  UNL1        0.0960
     31 C           4.7123   -2.8799   21.2259 C.ar    1  UNL1        0.0146
     32 C           4.9765   -3.2398   22.6580 C.3     1  UNL1        0.1233
     33 H           5.4010   -3.8842   25.3508 H       1  UNL1        0.1513
@<TRIPOS>BOND
     1    21    22    2
     2    22    23   am
     3    23    20    1
     4    20     1    1
     5     1     2   ar
     6     2     3   ar
     7     3     4   ar
     8     4     7    1
     9     7     8    2
    10     7     9    2
    11     7    10    1
    12    10    11    1
    13    11    12    1
    14    12    13    1
    15    13    16    1
    16    16    17    1
    17    17    18    1
    18    18    19    1
    19    13    14    1
    20    14    15    1
    21     4     5   ar
    22     5     6   ar
    23    22    24   am
    24    24    25    1
    25    25    26    1
    26    26    27   ar
    27    27    28   ar
    28    28    29   ar
    29    29    30   ar
    30    30    31   ar
    31    31    32    1
    32     6     1   ar
    33    32    24    1
    34    15    10    1
    35    31    26   ar
    36    19    16    1
    37    23    33    1
@<TRIPOS>MOLECULE
*****
 33 37 0 0 0
SMALL
GASTEIGER

@<TRIPOS>ATOM
      1 C           4.8474   -1.4585   20.3996 C.ar    1  UNL1       -0.0024
      2 C           3.4951   -1.7619   20.9735 C.ar    1  UNL1       -0.0013
      3 C           2.3439   -0.8369   20.7106 C.ar    1  UNL1        0.0181
      4 C           2.5451    0.3917   19.8737 C.ar    1  UNL1        0.1056
      5 C           3.8974    0.6951   19.2999 C.ar    1  UNL1        0.0181
      6 C           5.0485   -0.2299   19.5628 C.ar    1  UNL1       -0.0013
      7 S           1.3940    1.3167   19.6108 S.O2    1  UNL1        0.0071
      8 O           1.8519    2.2046   20.7296 O.2     1  UNL1       -0.1687
      9 O           0.9360    0.4288   18.4919 O.2     1  UNL1       -0.1687
     10 C           0.2429    2.2418   19.3478 C.3     1  UNL1        0.1366
     11 C          -0.7825    2.4855   20.4152 C.3     1  UNL1        0.0413
     12 C          -1.9336    3.4105   20.1523 C.3     1  UNL1        0.0740
     13 N          -2.0594    4.0919   18.8219 N.3     1  UNL1       -0.2696
     14 C          -1.0341    3.8483   17.7545 C.3     1  UNL1        0.0740
     15 C           0.1171    2.9232   18.0174 C.3     1  UNL1        0.0413
     16 C          -3.2105    5.0170   18.5589 C.3     1  UNL1        0.1172
     17 C          -3.3472    6.4769   18.2425 C.3     1  UNL1        0.1606
     18 O          -4.8385    6.3253   18.1870 O.3     1  UNL1       -0.3507
     19 C          -4.7018    4.8655   18.5035 C.3     1  UNL1        0.1606
     20 C           5.9985   -2.3835   20.6626 C.3     1  UNL1        0.1177
     21 O           7.6905   -4.8365   21.0089 O.2     1  UNL1       -0.2526
     22 C           7.0315   -4.2058   22.1996 C.2     1  UNL1        0.3047
     23 N           6.1855   -2.9793   22.0265 N.am    1  UNL1       -0.2847
     24 N           7.2185   -4.8016   23.5634 N.am    1  UNL1       -0.2560
     25 C           8.0314   -6.0192   23.8898 C.3     1  UNL1        0.1218
     26 C           7.9407   -6.2545   25.3685 C.ar    1  UNL1       -0.0016
     27 C           8.5371   -7.3066   26.2558 C.ar    1  UNL1        0.0178
     28 C           8.2645   -7.2864   27.7307 C.ar    1  UNL1        0.0986
     29 N           7.3956   -6.2141   28.3182 N.ar    1  UNL1       -0.2426
     30 C           6.7992   -5.1620   27.4309 C.ar    1  UNL1        0.0960
     31 C           7.0717   -5.1822   25.9560 C.ar    1  UNL1        0.0146
     32 C           6.6254   -4.2843   24.8404 C.3     1  UNL1        0.1233
     33 H           5.7530   -2.5653   22.8080 H       1  UNL1        0.1513
@<TRIPOS>BOND
     1    21    22    2
     2    22    23   am
     3    23    20    1
     4    20     1    1
     5     1     2   ar
     6     2     3   ar
     7     3     4   ar
     8     4     7    1
     9     7     8    2
    10     7     9    2
    11     7    10    1
    12    10    11    1
    13    11    12    1
    14    12    13    1
    15    13    16    1
    16    16    17    1
    17    17    18    1
    18    18    19    1
    19    13    14    1
    20    14    15    1
    21     4     5   ar
    22     5     6   ar
    23    22    24   am
    24    24    25    1
    25    25    26    1
    26    26    27   ar
    27    27    28   ar
    28    28    29   ar
    29    29    30   ar
    30    30    31   ar
    31    31    32    1
    32     6     1   ar
    33    32    24    1
    34    15    10    1
    35    31    26   ar
    36    19    16    1
    37    23    33    1
@<TRIPOS>MOLECULE
*****
 33 37 0 0 0
SMALL
GASTEIGER

@<TRIPOS>ATOM
      1 C           4.7427   -2.2387   19.5174 C.ar    1  UNL1       -0.0024
      2 C           5.9678   -1.6577   20.1591 C.ar    1  UNL1       -0.0013
      3 C           6.5085   -2.2576   21.4232 C.ar    1  UNL1        0.0181
      4 C           5.8241   -3.4383   22.0456 C.ar    1  UNL1        0.1056
      5 C           4.5990   -4.0192   21.4039 C.ar    1  UNL1        0.0181
      6 C           4.0583   -3.4194   20.1399 C.ar    1  UNL1       -0.0013
      7 S           6.3648   -4.0382   23.3096 S.O2    1  UNL1        0.0071
      8 O           5.5148   -3.1026   24.1172 O.2     1  UNL1       -0.1687
      9 O           7.2148   -4.9737   22.5021 O.2     1  UNL1       -0.1687
     10 C           6.9055   -4.6380   24.5737 C.3     1  UNL1        0.1366
     11 C           7.6616   -5.9327   24.5259 C.3     1  UNL1        0.0413
     12 C           8.2023   -6.5325   25.7899 C.3     1  UNL1        0.0740
     13 N           7.9869   -5.8377   27.1018 N.3     1  UNL1       -0.2696
     14 C           7.2308   -4.5432   27.1496 C.3     1  UNL1        0.0740
     15 C           6.6901   -3.9433   25.8855 C.3     1  UNL1        0.0413
     16 C           8.5275   -6.4376   28.3658 C.3     1  UNL1        0.1172
     17 C           9.4313   -7.5897   28.6912 C.3     1  UNL1        0.1606
     18 O           9.2922   -7.2860   30.1535 O.3     1  UNL1       -0.3507
     19 C           8.3884   -6.1339   29.8282 C.3     1  UNL1        0.1606
     20 C           4.2020   -1.6388   18.2533 C.3     1  UNL1        0.1177
     21 O           5.0584    1.2313   18.0842 O.2     1  UNL1       -0.2526
     22 C           3.6058    0.8898   18.2360 C.2     1  UNL1        0.3047
     23 N           3.1776   -0.5452   18.3205 N.am    1  UNL1       -0.2847
     24 N           2.5813    1.9834   18.3032 N.am    1  UNL1       -0.2560
     25 C           2.8577    3.4560   18.2323 C.3     1  UNL1        0.1218
     26 C           1.5478    4.1792   18.3384 C.ar    1  UNL1       -0.0016
     27 C           1.2035    5.6391   18.3283 C.ar    1  UNL1        0.0178
     28 C          -0.2266    6.0733   18.4547 C.ar    1  UNL1        0.0986
     29 N          -1.3126    5.0476   18.5912 N.ar    1  UNL1       -0.2426
     30 C          -0.9684    3.5877   18.6012 C.ar    1  UNL1        0.0960
     31 C           0.4618    3.1535   18.4748 C.ar    1  UNL1        0.0146
     32 C           1.1006    1.7964   18.4530 C.3     1  UNL1        0.1233
     33 H           2.2241   -0.7694   18.4201 H       1  UNL1        0.1513
@<TRIPOS>BOND
     1    21    22    2
     2    22    23   am
     3    23    20    1
     4    20     1    1
     5     1     2   ar
     6     2     3   ar
     7     3     4   ar
     8     4     7    1
     9     7     8    2
    10     7     9    2
    11     7    10    1
    12    10    11    1
    13    11    12    1
    14    12    13    1
    15    13    16    1
    16    16    17    1
    17    17    18    1
    18    18    19    1
    19    13    14    1
    20    14    15    1
    21     4     5   ar
    22     5     6   ar
    23    22    24   am
    24    24    25    1
    25    25    26    1
    26    26    27   ar
    27    27    28   ar
    28    28    29   ar
    29    29    30   ar
    30    30    31   ar
    31    31    32    1
    32     6     1   ar
    33    32    24    1
    34    15    10    1
    35    31    26   ar
    36    19    16    1
    37    23    33    1
@<TRIPOS>MOLECULE
*****
 33 37 0 0 0
SMALL
GASTEIGER

@<TRIPOS>ATOM
      1 C           0.7075    1.7783   25.7568 C.ar    1  UNL1       -0.0024
      2 C          -0.4116    1.4984   26.7155 C.ar    1  UNL1       -0.0013
      3 C          -0.2194    1.7387   28.1836 C.ar    1  UNL1        0.0181
      4 C           1.0920    2.2590   28.6930 C.ar    1  UNL1        0.1056
      5 C           2.2112    2.5389   27.7342 C.ar    1  UNL1        0.0181
      6 C           2.0189    2.2986   26.2662 C.ar    1  UNL1       -0.0013
      7 S           1.2843    2.4993   30.1610 S.O2    1  UNL1        0.0071
      8 O           1.0116    3.9602   29.9576 O.2     1  UNL1       -0.1687
      9 O           1.5570    1.0384   30.3645 O.2     1  UNL1       -0.1687
     10 C           1.4766    2.7396   31.6291 C.3     1  UNL1        0.1366
     11 C           2.3090    1.7924   32.4415 C.3     1  UNL1        0.0413
     12 C           2.5013    2.0327   33.9095 C.3     1  UNL1        0.0740
     13 N           1.8612    3.2202   34.5653 N.3     1  UNL1       -0.2696
     14 C           1.0288    4.1675   33.7530 C.3     1  UNL1        0.0740
     15 C           0.8365    3.9272   32.2848 C.3     1  UNL1        0.0413
     16 C           2.0534    3.4606   36.0333 C.3     1  UNL1        0.1172
     17 C           1.7033    4.5689   36.9815 C.3     1  UNL1        0.1606
     18 O           2.3254    3.8005   38.1096 O.3     1  UNL1       -0.3507
     19 C           2.6755    2.6922   37.1615 C.3     1  UNL1        0.1606
     20 C           0.5153    1.5380   24.2887 C.3     1  UNL1        0.1177
     21 O           0.7753    1.7072   21.3048 O.2     1  UNL1       -0.2526
     22 C           1.5489    0.6730   22.0676 C.2     1  UNL1        0.3047
     23 N           1.4189    0.5884   23.5595 N.am    1  UNL1       -0.2847
     24 N           2.4526   -0.2766   21.3384 N.am    1  UNL1       -0.2560
     25 C           2.6831   -0.3122   19.8567 C.3     1  UNL1        0.1218
     26 C           3.6574   -1.4149   19.5654 C.ar    1  UNL1       -0.0016
     27 C           4.2542   -1.9143   18.2831 C.ar    1  UNL1        0.0178
     28 C           5.2225   -3.0596   18.3025 C.ar    1  UNL1        0.0986
     29 N           5.5941   -3.7056   19.6043 N.ar    1  UNL1       -0.2426
     30 C           4.9974   -3.2062   20.8867 C.ar    1  UNL1        0.0960
     31 C           4.0290   -2.0609   20.8672 C.ar    1  UNL1        0.0146
     32 C           3.2844   -1.3574   21.9630 C.3     1  UNL1        0.1233
     33 H           1.9267   -0.0904   24.0602 H       1  UNL1        0.1513
@<TRIPOS>BOND
     1    21    22    2
     2    22    23   am
     3    23    20    1
     4    20     1    1
     5     1     2   ar
     6     2     3   ar
     7     3     4   ar
     8     4     7    1
     9     7     8    2
    10     7     9    2
    11     7    10    1
    12    10    11    1
    13    11    12    1
    14    12    13    1
    15    13    16    1
    16    16    17    1
    17    17    18    1
    18    18    19    1
    19    13    14    1
    20    14    15    1
    21     4     5   ar
    22     5     6   ar
    23    22    24   am
    24    24    25    1
    25    25    26    1
    26    26    27   ar
    27    27    28   ar
    28    28    29   ar
    29    29    30   ar
    30    30    31   ar
    31    31    32    1
    32     6     1   ar
    33    32    24    1
    34    15    10    1
    35    31    26   ar
    36    19    16    1
    37    23    33    1
