@<TRIPOS>MOLECULE
*****
 21 23 0 0 0
SMALL
GASTEIGER

@<TRIPOS>ATOM
      1 C          -9.9988  -17.9936   21.7104 C.ar    1  UNL1        0.0252
      2 C         -11.1178  -18.4492   20.8215 C.ar    1  UNL1        0.0993
      3 N         -12.4244  -17.7127   20.8234 N.ar    1  UNL1       -0.2423
      4 C         -12.6121  -16.5205   21.7142 C.ar    1  UNL1        0.0989
      5 C         -11.4932  -16.0649   22.6031 C.ar    1  UNL1        0.0207
      6 C         -10.1865  -16.8014   22.6012 C.ar    1  UNL1        0.0035
      7 C          -9.0674  -16.3458   23.4902 C.ar    1  UNL1        0.0001
      8 C          -7.8916  -15.6216   22.9044 C.ar    1  UNL1        0.0000
      9 C          -6.7726  -15.1660   23.7933 C.ar    1  UNL1        0.0000
     10 C          -6.8293  -15.4346   25.2680 C.ar    1  UNL1        0.0000
     11 C          -8.0051  -16.1587   25.8538 C.ar    1  UNL1        0.0000
     12 C          -9.1242  -16.6144   24.9648 C.ar    1  UNL1        0.0000
     13 C          -6.4677  -19.4832   21.0957 C.ar    1  UNL1        0.0230
     14 C          -6.8947  -20.2439   22.3160 C.ar    1  UNL1        0.0040
     15 C          -8.2694  -19.7785   22.6948 C.ar    1  UNL1        0.0067
     16 C          -8.6920  -18.7302   21.7086 C.ar    1  UNL1        0.0307
     17 S          -7.5785  -18.5477   20.7204 S.2     1  UNL1       -0.0899
     18 N          -4.6860  -18.5520   19.4500 N.3     1  UNL1       -0.3170
     19 C          -5.1595  -19.6320   20.3770 C.3     1  UNL1        0.0987
     20 H          -3.7855  -18.8171   19.0510 H       1  UNL1        0.1192
     21 H          -4.5845  -17.6794   19.9683 H       1  UNL1        0.1192
@<TRIPOS>BOND
     1    18    19    1
     2    19    13    1
     3    13    14   ar
     4    14    15   ar
     5    15    16   ar
     6    16     1    1
     7     1     2   ar
     8     2     3   ar
     9     3     4   ar
    10     4     5   ar
    11     5     6   ar
    12     6     7    1
    13     7     8   ar
    14     8     9   ar
    15     9    10   ar
    16    10    11   ar
    17    11    12   ar
    18    16    17   ar
    19    17    13   ar
    20     6     1   ar
    21    12     7   ar
    22    18    20    1
    23    18    21    1
@<TRIPOS>MOLECULE
*****
 21 23 0 0 0
SMALL
GASTEIGER

@<TRIPOS>ATOM
      1 C         -10.3063  -16.8992   22.6567 C.ar    1  UNL1        0.0252
      2 C         -11.6024  -16.1874   22.9086 C.ar    1  UNL1        0.0993
      3 N         -12.8770  -16.7216   22.3256 N.ar    1  UNL1       -0.2423
      4 C         -12.8556  -17.9675   21.4907 C.ar    1  UNL1        0.0989
      5 C         -11.5595  -18.6793   21.2387 C.ar    1  UNL1        0.0207
      6 C         -10.2849  -18.1452   21.8217 C.ar    1  UNL1        0.0035
      7 C          -8.9887  -18.8570   21.5698 C.ar    1  UNL1        0.0001
      8 C          -8.3459  -18.7879   20.2163 C.ar    1  UNL1        0.0000
      9 C          -7.0498  -19.4997   19.9644 C.ar    1  UNL1        0.0000
     10 C          -6.3965  -20.2805   21.0660 C.ar    1  UNL1        0.0000
     11 C          -7.0393  -20.3496   22.4195 C.ar    1  UNL1        0.0000
     12 C          -8.3355  -19.6378   22.6714 C.ar    1  UNL1        0.0000
     13 C          -7.3116  -15.7179   24.8250 C.ar    1  UNL1        0.0230
     14 C          -6.8286  -15.3682   23.4486 C.ar    1  UNL1        0.0040
     15 C          -7.8916  -15.7682   22.4688 C.ar    1  UNL1        0.0067
     16 C          -9.0316  -16.3650   23.2397 C.ar    1  UNL1        0.0307
     17 S          -8.6731  -16.3339   24.6959 S.2     1  UNL1       -0.0899
     18 N          -5.5064  -14.4303   26.1791 N.3     1  UNL1       -0.3170
     19 C          -6.5642  -15.4913   26.1057 C.3     1  UNL1        0.0987
     20 H          -5.1049  -14.4148   27.1166 H       1  UNL1        0.1192
     21 H          -5.9211  -13.5218   25.9717 H       1  UNL1        0.1192
@<TRIPOS>BOND
     1    18    19    1
     2    19    13    1
     3    13    14   ar
     4    14    15   ar
     5    15    16   ar
     6    16     1    1
     7     1     2   ar
     8     2     3   ar
     9     3     4   ar
    10     4     5   ar
    11     5     6   ar
    12     6     7    1
    13     7     8   ar
    14     8     9   ar
    15     9    10   ar
    16    10    11   ar
    17    11    12   ar
    18    16    17   ar
    19    17    13   ar
    20     6     1   ar
    21    12     7   ar
    22    18    20    1
    23    18    21    1
@<TRIPOS>MOLECULE
*****
 21 23 0 0 0
SMALL
GASTEIGER

@<TRIPOS>ATOM
      1 C          -9.7671  -16.1384   21.7343 C.ar    1  UNL1        0.0252
      2 C          -9.9652  -15.0597   20.7111 C.ar    1  UNL1        0.0993
      3 N         -10.8351  -15.3110   19.5152 N.ar    1  UNL1       -0.2423
      4 C         -11.5069  -16.6410   19.3426 C.ar    1  UNL1        0.0989
      5 C         -11.3087  -17.7197   20.3658 C.ar    1  UNL1        0.0207
      6 C         -10.4389  -17.4685   21.5617 C.ar    1  UNL1        0.0035
      7 C         -10.2407  -18.5472   22.5850 C.ar    1  UNL1        0.0001
      8 C         -11.2191  -18.7012   23.7115 C.ar    1  UNL1        0.0000
      9 C         -11.0210  -19.7799   24.7348 C.ar    1  UNL1        0.0000
     10 C          -9.8445  -20.7047   24.6315 C.ar    1  UNL1        0.0000
     11 C          -8.8661  -20.5508   23.5050 C.ar    1  UNL1        0.0000
     12 C          -9.0643  -19.4720   22.4817 C.ar    1  UNL1        0.0000
     13 C          -6.9505  -15.5185   24.3320 C.ar    1  UNL1        0.0230
     14 C          -8.1668  -15.4827   25.2092 C.ar    1  UNL1        0.0040
     15 C          -9.3699  -15.7106   24.3428 C.ar    1  UNL1        0.0067
     16 C          -8.8972  -15.8872   22.9303 C.ar    1  UNL1        0.0307
     17 S          -7.4019  -15.7685   22.9236 S.2     1  UNL1       -0.0899
     18 N          -5.2203  -14.4103   25.9222 N.3     1  UNL1       -0.3170
     19 C          -5.5318  -15.3363   24.7840 C.3     1  UNL1        0.0987
     20 H          -4.2148  -14.4083   26.0934 H       1  UNL1        0.1192
     21 H          -5.7074  -14.7265   26.7607 H       1  UNL1        0.1192
@<TRIPOS>BOND
     1    18    19    1
     2    19    13    1
     3    13    14   ar
     4    14    15   ar
     5    15    16   ar
     6    16     1    1
     7     1     2   ar
     8     2     3   ar
     9     3     4   ar
    10     4     5   ar
    11     5     6   ar
    12     6     7    1
    13     7     8   ar
    14     8     9   ar
    15     9    10   ar
    16    10    11   ar
    17    11    12   ar
    18    16    17   ar
    19    17    13   ar
    20     6     1   ar
    21    12     7   ar
    22    18    20    1
    23    18    21    1
@<TRIPOS>MOLECULE
*****
 21 23 0 0 0
SMALL
GASTEIGER

@<TRIPOS>ATOM
      1 C          -8.2132  -17.8908   21.7211 C.ar    1  UNL1        0.0252
      2 C          -6.9664  -18.3446   21.0215 C.ar    1  UNL1        0.0993
      3 N          -7.0614  -19.2675   19.8429 N.ar    1  UNL1       -0.2423
      4 C          -8.4033  -19.7366   19.3638 C.ar    1  UNL1        0.0989
      5 C          -9.6501  -19.2827   20.0634 C.ar    1  UNL1        0.0207
      6 C          -9.5551  -18.3598   21.2420 C.ar    1  UNL1        0.0035
      7 C         -10.8019  -17.9060   21.9417 C.ar    1  UNL1        0.0001
      8 C         -11.4920  -18.8185   22.9118 C.ar    1  UNL1        0.0000
      9 C         -12.7388  -18.3646   23.6114 C.ar    1  UNL1        0.0000
     10 C         -13.2955  -16.9982   23.3410 C.ar    1  UNL1        0.0000
     11 C         -12.6054  -16.0857   22.3709 C.ar    1  UNL1        0.0000
     12 C         -11.3586  -16.5396   21.6712 C.ar    1  UNL1        0.0000
     13 C          -8.1572  -16.1126   25.1708 C.ar    1  UNL1        0.0230
     14 C          -7.7870  -14.9827   24.2563 C.ar    1  UNL1        0.0040
     15 C          -7.7629  -15.5113   22.8527 C.ar    1  UNL1        0.0067
     16 C          -8.1182  -16.9679   22.8998 C.ar    1  UNL1        0.0307
     17 S          -8.3619  -17.3395   24.3325 S.2     1  UNL1       -0.0899
     18 N          -7.7979  -14.8218   27.3967 N.3     1  UNL1       -0.3170
     19 C          -8.2979  -16.0301   26.6619 C.3     1  UNL1        0.0987
     20 H          -7.9739  -14.9340   28.3952 H       1  UNL1        0.1192
     21 H          -8.2842  -13.9919   27.0570 H       1  UNL1        0.1192
@<TRIPOS>BOND
     1    18    19    1
     2    19    13    1
     3    13    14   ar
     4    14    15   ar
     5    15    16   ar
     6    16     1    1
     7     1     2   ar
     8     2     3   ar
     9     3     4   ar
    10     4     5   ar
    11     5     6   ar
    12     6     7    1
    13     7     8   ar
    14     8     9   ar
    15     9    10   ar
    16    10    11   ar
    17    11    12   ar
    18    16    17   ar
    19    17    13   ar
    20     6     1   ar
    21    12     7   ar
    22    18    20    1
    23    18    21    1
@<TRIPOS>MOLECULE
*****
 21 23 0 0 0
SMALL
GASTEIGER

@<TRIPOS>ATOM
      1 C          -8.2452  -18.9638   21.5061 C.ar    1  UNL1        0.0252
      2 C          -6.9925  -19.7700   21.3314 C.ar    1  UNL1        0.0993
      3 N          -6.7939  -20.5875   20.0895 N.ar    1  UNL1       -0.2423
      4 C          -7.8481  -20.5987   19.0224 C.ar    1  UNL1        0.0989
      5 C          -9.1008  -19.7924   19.1972 C.ar    1  UNL1        0.0207
      6 C          -9.2994  -18.9750   20.4390 C.ar    1  UNL1        0.0035
      7 C         -10.5521  -18.1686   20.6138 C.ar    1  UNL1        0.0001
      8 C         -10.6830  -16.8319   19.9459 C.ar    1  UNL1        0.0000
      9 C         -11.9356  -16.0256   20.1206 C.ar    1  UNL1        0.0000
     10 C         -13.0575  -16.5559   20.9634 C.ar    1  UNL1        0.0000
     11 C         -12.9267  -17.8926   21.6313 C.ar    1  UNL1        0.0000
     12 C         -11.6739  -18.6990   21.4565 C.ar    1  UNL1        0.0000
     13 C          -8.2975  -16.3577   24.3821 C.ar    1  UNL1        0.0230
     14 C          -9.2017  -17.4188   24.9360 C.ar    1  UNL1        0.0040
     15 C          -9.2921  -18.5241   23.9260 C.ar    1  UNL1        0.0067
     16 C          -8.4439  -18.1462   22.7480 C.ar    1  UNL1        0.0307
     17 S          -7.8292  -16.8073   23.0299 S.2     1  UNL1       -0.0899
     18 N          -6.5756  -14.4642   24.8289 N.3     1  UNL1       -0.3170
     19 C          -7.9268  -15.0726   25.0613 C.3     1  UNL1        0.0987
     20 H          -6.4950  -13.6002   25.3651 H       1  UNL1        0.1192
     21 H          -6.4607  -14.2603   23.8362 H       1  UNL1        0.1192
@<TRIPOS>BOND
     1    18    19    1
     2    19    13    1
     3    13    14   ar
     4    14    15   ar
     5    15    16   ar
     6    16     1    1
     7     1     2   ar
     8     2     3   ar
     9     3     4   ar
    10     4     5   ar
    11     5     6   ar
    12     6     7    1
    13     7     8   ar
    14     8     9   ar
    15     9    10   ar
    16    10    11   ar
    17    11    12   ar
    18    16    17   ar
    19    17    13   ar
    20     6     1   ar
    21    12     7   ar
    22    18    20    1
    23    18    21    1
@<TRIPOS>MOLECULE
*****
 21 23 0 0 0
SMALL
GASTEIGER

@<TRIPOS>ATOM
      1 C          -9.6657  -16.0697   21.7441 C.ar    1  UNL1        0.0252
      2 C          -9.8233  -15.0087   20.6956 C.ar    1  UNL1        0.0993
      3 N         -10.8277  -15.1847   19.5956 N.ar    1  UNL1       -0.2423
      4 C         -11.6747  -16.4216   19.5442 C.ar    1  UNL1        0.0989
      5 C         -11.5171  -17.4826   20.5927 C.ar    1  UNL1        0.0207
      6 C         -10.5127  -17.3066   21.6927 C.ar    1  UNL1        0.0035
      7 C         -10.3551  -18.3676   22.7413 C.ar    1  UNL1        0.0001
      8 C          -9.3102  -19.4317   22.5805 C.ar    1  UNL1        0.0000
      9 C          -9.1526  -20.4927   23.6290 C.ar    1  UNL1        0.0000
     10 C         -10.0399  -20.4896   24.8385 C.ar    1  UNL1        0.0000
     11 C         -11.0848  -19.4255   24.9993 C.ar    1  UNL1        0.0000
     12 C         -11.2424  -18.3645   23.9507 C.ar    1  UNL1        0.0000
     13 C          -6.5693  -15.8459   24.0739 C.ar    1  UNL1        0.0230
     14 C          -7.6618  -15.4000   25.0002 C.ar    1  UNL1        0.0040
     15 C          -8.9546  -15.4296   24.2401 C.ar    1  UNL1        0.0067
     16 C          -8.6612  -15.8937   22.8442 C.ar    1  UNL1        0.0307
     17 S          -7.1870  -16.1510   22.7415 S.2     1  UNL1       -0.0899
     18 N          -4.1690  -16.6312   23.4640 N.3     1  UNL1       -0.3170
     19 C          -5.1145  -15.9656   24.4195 C.3     1  UNL1        0.0987
     20 H          -3.2277  -16.6243   23.8569 H       1  UNL1        0.1192
     21 H          -4.1710  -16.1272   22.5772 H       1  UNL1        0.1192
@<TRIPOS>BOND
     1    18    19    1
     2    19    13    1
     3    13    14   ar
     4    14    15   ar
     5    15    16   ar
     6    16     1    1
     7     1     2   ar
     8     2     3   ar
     9     3     4   ar
    10     4     5   ar
    11     5     6   ar
    12     6     7    1
    13     7     8   ar
    14     8     9   ar
    15     9    10   ar
    16    10    11   ar
    17    11    12   ar
    18    16    17   ar
    19    17    13   ar
    20     6     1   ar
    21    12     7   ar
    22    18    20    1
    23    18    21    1
@<TRIPOS>MOLECULE
*****
 21 23 0 0 0
SMALL
GASTEIGER

@<TRIPOS>ATOM
      1 C          -8.4710  -18.9489   20.6040 C.ar    1  UNL1        0.0252
      2 C          -9.0005  -19.7115   19.4259 C.ar    1  UNL1        0.0993
      3 N         -10.4193  -19.5143   18.9810 N.ar    1  UNL1       -0.2423
      4 C         -11.3087  -18.5543   19.7143 C.ar    1  UNL1        0.0989
      5 C         -10.7792  -17.7917   20.8923 C.ar    1  UNL1        0.0207
      6 C          -9.3603  -17.9890   21.3372 C.ar    1  UNL1        0.0035
      7 C          -8.8308  -17.2263   22.5154 C.ar    1  UNL1        0.0001
      8 C          -7.8653  -16.0976   22.3056 C.ar    1  UNL1        0.0000
      9 C          -7.3357  -15.3350   23.4837 C.ar    1  UNL1        0.0000
     10 C          -7.7716  -15.7010   24.8716 C.ar    1  UNL1        0.0000
     11 C          -8.7371  -16.8296   25.0813 C.ar    1  UNL1        0.0000
     12 C          -9.2666  -17.5923   23.9031 C.ar    1  UNL1        0.0000
     13 C          -4.6275  -19.2558   21.0504 C.ar    1  UNL1        0.0230
     14 C          -5.1099  -19.6437   22.4168 C.ar    1  UNL1        0.0040
     15 C          -6.6084  -19.5759   22.4158 C.ar    1  UNL1        0.0067
     16 C          -7.0521  -19.1462   21.0489 C.ar    1  UNL1        0.0307
     17 S          -5.8279  -18.9483   20.2050 S.2     1  UNL1       -0.0899
     18 N          -2.1626  -20.0458   21.2744 N.3     1  UNL1       -0.3170
     19 C          -3.1961  -19.1874   20.6072 C.3     1  UNL1        0.0987
     20 H          -1.2512  -19.8720   20.8506 H       1  UNL1        0.1192
     21 H          -2.4100  -21.0284   21.1577 H       1  UNL1        0.1192
@<TRIPOS>BOND
     1    18    19    1
     2    19    13    1
     3    13    14   ar
     4    14    15   ar
     5    15    16   ar
     6    16     1    1
     7     1     2   ar
     8     2     3   ar
     9     3     4   ar
    10     4     5   ar
    11     5     6   ar
    12     6     7    1
    13     7     8   ar
    14     8     9   ar
    15     9    10   ar
    16    10    11   ar
    17    11    12   ar
    18    16    17   ar
    19    17    13   ar
    20     6     1   ar
    21    12     7   ar
    22    18    20    1
    23    18    21    1
@<TRIPOS>MOLECULE
*****
 21 23 0 0 0
SMALL
GASTEIGER

@<TRIPOS>ATOM
      1 C         -14.6387   -6.4192   19.0480 C.ar    1  UNL1        0.0252
      2 C         -15.8874   -7.2101   19.3034 C.ar    1  UNL1        0.0993
      3 N         -16.0115   -8.6077   18.7733 N.ar    1  UNL1       -0.2423
      4 C         -14.8869   -9.2146   17.9878 C.ar    1  UNL1        0.0989
      5 C         -13.6382   -8.4237   17.7323 C.ar    1  UNL1        0.0207
      6 C         -13.5141   -7.0261   18.2624 C.ar    1  UNL1        0.0035
      7 C         -12.2654   -6.2351   18.0070 C.ar    1  UNL1        0.0001
      8 C         -11.0958   -6.3587   18.9381 C.ar    1  UNL1        0.0000
      9 C          -9.8471   -5.5678   18.6827 C.ar    1  UNL1        0.0000
     10 C          -9.7679   -4.6534   17.4963 C.ar    1  UNL1        0.0000
     11 C         -10.9375   -4.5298   16.5652 C.ar    1  UNL1        0.0000
     12 C         -12.1863   -5.3207   16.8206 C.ar    1  UNL1        0.0000
     13 C         -14.7751   -2.6236   19.8484 C.ar    1  UNL1        0.0230
     14 C         -13.8718   -3.1176   20.9393 C.ar    1  UNL1        0.0040
     15 C         -13.7108   -4.5996   20.7722 C.ar    1  UNL1        0.0067
     16 C         -14.5145   -5.0215   19.5781 C.ar    1  UNL1        0.0307
     17 S         -15.1723   -3.8003   19.0071 S.2     1  UNL1       -0.0899
     18 N         -16.3562   -0.6425   20.4186 N.3     1  UNL1       -0.3170
     19 C         -15.2056   -1.2025   19.6361 C.3     1  UNL1        0.0987
     20 H         -16.5098    0.3292   20.1492 H       1  UNL1        0.1192
     21 H         -16.1444   -0.6895   21.4153 H       1  UNL1        0.1192
@<TRIPOS>BOND
     1    18    19    1
     2    19    13    1
     3    13    14   ar
     4    14    15   ar
     5    15    16   ar
     6    16     1    1
     7     1     2   ar
     8     2     3   ar
     9     3     4   ar
    10     4     5   ar
    11     5     6   ar
    12     6     7    1
    13     7     8   ar
    14     8     9   ar
    15     9    10   ar
    16    10    11   ar
    17    11    12   ar
    18    16    17   ar
    19    17    13   ar
    20     6     1   ar
    21    12     7   ar
    22    18    20    1
    23    18    21    1
@<TRIPOS>MOLECULE
*****
 21 23 0 0 0
SMALL
GASTEIGER

@<TRIPOS>ATOM
      1 C         -14.3425   -7.4797   18.5591 C.ar    1  UNL1        0.0252
      2 C         -14.5045   -8.9612   18.3899 C.ar    1  UNL1        0.0993
      3 N         -15.7347   -9.6452   18.9083 N.ar    1  UNL1       -0.2423
      4 C         -16.8028   -8.8476   19.5959 C.ar    1  UNL1        0.0989
      5 C         -16.6409   -7.3661   19.7651 C.ar    1  UNL1        0.0207
      6 C         -15.4107   -6.6821   19.2467 C.ar    1  UNL1        0.0035
      7 C         -15.2487   -5.2004   19.4159 C.ar    1  UNL1        0.0001
      8 C         -15.8429   -4.2611   18.4086 C.ar    1  UNL1        0.0000
      9 C         -15.6809   -2.7796   18.5778 C.ar    1  UNL1        0.0000
     10 C         -14.9246   -2.2372   19.7542 C.ar    1  UNL1        0.0000
     11 C         -14.3304   -3.1765   20.7615 C.ar    1  UNL1        0.0000
     12 C         -14.4924   -4.6582   20.5923 C.ar    1  UNL1        0.0000
     13 C         -10.9200   -5.7602   17.9303 C.ar    1  UNL1        0.0230
     14 C         -11.5186   -5.7257   16.5553 C.ar    1  UNL1        0.0040
     15 C         -12.8735   -6.3656   16.6235 C.ar    1  UNL1        0.0067
     16 C         -13.1123   -6.7956   18.0406 C.ar    1  UNL1        0.0307
     17 S         -11.9050   -6.4214   18.8482 S.2     1  UNL1       -0.0899
     18 N          -9.4703   -4.0502   19.2434 N.3     1  UNL1       -0.3170
     19 C          -9.5729   -5.2270   18.3190 C.3     1  UNL1        0.0987
     20 H          -8.4877   -3.8244   19.3985 H       1  UNL1        0.1192
     21 H          -9.9115   -4.2782   20.1343 H       1  UNL1        0.1192
@<TRIPOS>BOND
     1    18    19    1
     2    19    13    1
     3    13    14   ar
     4    14    15   ar
     5    15    16   ar
     6    16     1    1
     7     1     2   ar
     8     2     3   ar
     9     3     4   ar
    10     4     5   ar
    11     5     6   ar
    12     6     7    1
    13     7     8   ar
    14     8     9   ar
    15     9    10   ar
    16    10    11   ar
    17    11    12   ar
    18    16    17   ar
    19    17    13   ar
    20     6     1   ar
    21    12     7   ar
    22    18    20    1
    23    18    21    1
