@<TRIPOS>MOLECULE
*****
 30 33 0 0 0
SMALL
GASTEIGER

@<TRIPOS>ATOM
      1 C           7.0505   -3.8428   20.8883 C.ar    1  UNL1        0.2600
      2 N           6.7357   -4.4500   22.2233 N.ar    1  UNL1       -0.1870
      3 C           7.9546   -5.1847   22.6973 C.ar    1  UNL1        0.2037
      4 N           9.0226   -5.0315   21.6552 N.ar    1  UNL1       -0.0556
      5 O           8.4639   -4.2022   20.5372 O.2     1  UNL1       -0.3324
      6 C           8.0829   -5.9400   23.9869 C.ar    1  UNL1        0.0421
      7 C           8.7552   -7.2807   24.0072 C.ar    1  UNL1        0.0033
      8 C           8.8835   -8.0359   25.2969 C.ar    1  UNL1        0.0016
      9 C           8.3394   -7.4504   26.5662 C.ar    1  UNL1        0.0188
     10 C           7.6671   -6.1097   26.5459 C.ar    1  UNL1        0.0795
     11 C           7.5388   -5.3545   25.2563 C.ar    1  UNL1        0.0412
     12 C           6.8312   -4.0634   25.5435 C.ar    1  UNL1        0.1217
     13 N           6.5222   -4.0207   27.0107 N.ar    1  UNL1       -0.1677
     14 N           7.0388   -5.2854   27.6302 N.ar    1  UNL1       -0.2505
     15 C           6.9437   -5.6600   29.0795 C.3     1  UNL1        0.1333
     16 C           7.2280   -4.6368   30.1389 C.3     1  UNL1        0.0680
     17 C           6.8278   -4.8981   31.5607 C.2     1  UNL1        0.0524
     18 O           6.7072   -6.3077   32.0590 O.co2   1  UNL1       -0.5491
     19 O           6.5481   -3.7497   32.4843 O.co2   1  UNL1       -0.5491
     20 C           4.2469   -1.3760   18.3774 C.ar    1  UNL1        0.1488
     21 C           3.6984   -2.3296   19.3970 C.ar    1  UNL1        0.0379
     22 C           4.6329   -3.1518   20.2340 C.ar    1  UNL1        0.0079
     23 C           6.1160   -3.0205   20.0513 C.ar    1  UNL1        0.0571
     24 C           6.6644   -2.0669   19.0316 C.ar    1  UNL1        0.0192
     25 C           5.7300   -1.2447   18.1946 C.ar    1  UNL1        0.0917
     26 CL          6.2785   -0.2911   17.1749 Cl      1  UNL1       -0.0791
     27 O           3.3124   -0.5538   17.5404 O.3     1  UNL1       -0.4783
     28 C           1.1982    0.6666   18.4297 C.3     1  UNL1        0.0472
     29 C           2.6659    0.6694   18.1198 C.3     1  UNL1        0.1662
     30 C           3.4870    1.8954   18.3894 C.3     1  UNL1        0.0472
@<TRIPOS>UNITY_ATOM_ATTR
19 1
charge -1
@<TRIPOS>BOND
     1    28    29    1
     2    29    30    1
     3    29    27    1
     4    27    20    1
     5    20    21   ar
     6    21    22   ar
     7    22    23   ar
     8    23     1    1
     9     1     2   ar
    10     2     3   ar
    11     3     6    1
    12     6     7   ar
    13     7     8   ar
    14     8     9   ar
    15     9    10   ar
    16    10    11   ar
    17    11    12   ar
    18    12    13   ar
    19    13    14   ar
    20    14    15    1
    21    15    16    1
    22    16    17    1
    23    17    18   ar
    24    17    19   ar
    25     3     4   ar
    26     4     5   ar
    27    23    24   ar
    28    24    25   ar
    29    25    26    1
    30    25    20   ar
    31     5     1   ar
    32    11     6   ar
    33    14    10   ar
@<TRIPOS>MOLECULE
*****
 30 33 0 0 0
SMALL
GASTEIGER

@<TRIPOS>ATOM
      1 C           0.1228    2.0212   19.7729 C.ar    1  UNL1        0.2600
      2 N          -1.1938    1.9045   20.4820 N.ar    1  UNL1       -0.1870
      3 C          -1.9511    3.1812   20.2665 C.ar    1  UNL1        0.2037
      4 N          -1.1025    4.0870   19.4242 N.ar    1  UNL1       -0.0556
      5 O           0.1792    3.3701   19.1191 O.2     1  UNL1       -0.3324
      6 C          -3.3172    3.4968   20.7998 C.ar    1  UNL1        0.0421
      7 C          -4.4859    3.5842   19.8636 C.ar    1  UNL1        0.0033
      8 C          -5.8519    3.8998   20.3969 C.ar    1  UNL1        0.0016
      9 C          -6.0492    4.1280   21.8662 C.ar    1  UNL1        0.0188
     10 C          -4.8805    4.0405   22.8024 C.ar    1  UNL1        0.0795
     11 C          -3.5145    3.7250   22.2691 C.ar    1  UNL1        0.0412
     12 C          -2.5588    3.7047   23.4252 C.ar    1  UNL1        0.1217
     13 N          -3.3343    4.0078   24.6729 N.ar    1  UNL1       -0.1677
     14 N          -4.7691    4.2153   24.2880 N.ar    1  UNL1       -0.2505
     15 C          -5.8950    4.5406   25.2243 C.3     1  UNL1        0.1333
     16 C          -6.6590    5.8212   25.0623 C.3     1  UNL1        0.0680
     17 C          -8.1527    5.7917   24.9289 C.2     1  UNL1        0.0524
     18 O          -8.7929    4.9774   23.8441 O.co2   1  UNL1       -0.5491
     19 O          -9.0063    6.5766   25.8804 O.co2   1  UNL1       -0.5491
     20 C           3.3388   -1.1231   19.6316 C.ar    1  UNL1        0.1488
     21 C           2.6239   -0.8390   20.9192 C.ar    1  UNL1        0.0379
     22 C           1.5519    0.2091   20.9663 C.ar    1  UNL1        0.0079
     23 C           1.1949    0.9731   19.7258 C.ar    1  UNL1        0.0571
     24 C           1.9099    0.6889   18.4381 C.ar    1  UNL1        0.0192
     25 C           2.9818   -0.3592   18.3909 C.ar    1  UNL1        0.0917
     26 CL          3.6968   -0.6434   17.1033 Cl      1  UNL1       -0.0791
     27 O           4.4109   -2.1713   19.5845 O.3     1  UNL1       -0.4783
     28 C           4.5573   -3.9198   21.5005 C.3     1  UNL1        0.0472
     29 C           4.1361   -3.5493   20.1094 C.3     1  UNL1        0.1662
     30 C           3.4400   -4.5568   19.2431 C.3     1  UNL1        0.0472
@<TRIPOS>UNITY_ATOM_ATTR
19 1
charge -1
@<TRIPOS>BOND
     1    28    29    1
     2    29    30    1
     3    29    27    1
     4    27    20    1
     5    20    21   ar
     6    21    22   ar
     7    22    23   ar
     8    23     1    1
     9     1     2   ar
    10     2     3   ar
    11     3     6    1
    12     6     7   ar
    13     7     8   ar
    14     8     9   ar
    15     9    10   ar
    16    10    11   ar
    17    11    12   ar
    18    12    13   ar
    19    13    14   ar
    20    14    15    1
    21    15    16    1
    22    16    17    1
    23    17    18   ar
    24    17    19   ar
    25     3     4   ar
    26     4     5   ar
    27    23    24   ar
    28    24    25   ar
    29    25    26    1
    30    25    20   ar
    31     5     1   ar
    32    11     6   ar
    33    14    10   ar
@<TRIPOS>MOLECULE
*****
 30 33 0 0 0
SMALL
GASTEIGER

@<TRIPOS>ATOM
      1 C           0.5458    1.5163   19.5503 C.ar    1  UNL1        0.2600
      2 N          -0.2998    1.6483   20.7821 N.ar    1  UNL1       -0.1870
      3 C          -1.1828    2.8488   20.6118 C.ar    1  UNL1        0.2037
      4 N          -0.8829    3.4588   19.2746 N.ar    1  UNL1       -0.0556
      5 O           0.1854    2.6353   18.6185 O.2     1  UNL1       -0.3324
      6 C          -2.1890    3.3513   21.6043 C.ar    1  UNL1        0.0421
      7 C          -1.7933    3.5526   23.0371 C.ar    1  UNL1        0.0033
      8 C          -2.7996    4.0549   24.0295 C.ar    1  UNL1        0.0016
      9 C          -4.2015    4.3560   23.5892 C.ar    1  UNL1        0.0188
     10 C          -4.5972    4.1547   22.1565 C.ar    1  UNL1        0.0795
     11 C          -3.5910    3.6524   21.1640 C.ar    1  UNL1        0.0412
     12 C          -4.2671    3.5519   19.8287 C.ar    1  UNL1        0.1217
     13 N          -5.6912    3.9922   19.9961 N.ar    1  UNL1       -0.1677
     14 N          -5.8952    4.3648   21.4347 N.ar    1  UNL1       -0.2505
     15 C          -7.1730    4.8604   22.0444 C.3     1  UNL1        0.1333
     16 C          -7.6957    4.2340   23.3032 C.3     1  UNL1        0.0680
     17 C          -8.4082    5.0758   24.3199 C.2     1  UNL1        0.0524
     18 O          -7.6250    5.8111   25.3666 O.co2   1  UNL1       -0.5491
     19 O          -9.9042    5.1823   24.2898 O.co2   1  UNL1       -0.5491
     20 C           3.6234   -1.6761   18.7843 C.ar    1  UNL1        0.1488
     21 C           2.7954   -1.7172   20.0343 C.ar    1  UNL1        0.0379
     22 C           1.7695   -0.6530   20.2896 C.ar    1  UNL1        0.0079
     23 C           1.5717    0.4522   19.2949 C.ar    1  UNL1        0.0571
     24 C           2.3998    0.4932   18.0449 C.ar    1  UNL1        0.0192
     25 C           3.4257   -0.5708   17.7895 C.ar    1  UNL1        0.0917
     26 CL          4.2538   -0.5298   16.5395 Cl      1  UNL1       -0.0791
     27 O           4.6493   -2.7402   18.5290 O.3     1  UNL1       -0.4783
     28 C           5.5961   -3.8201   20.6940 C.3     1  UNL1        0.0472
     29 C           4.7569   -3.9158   19.4544 C.3     1  UNL1        0.1662
     30 C           4.0253   -5.1870   19.1403 C.3     1  UNL1        0.0472
@<TRIPOS>UNITY_ATOM_ATTR
19 1
charge -1
@<TRIPOS>BOND
     1    28    29    1
     2    29    30    1
     3    29    27    1
     4    27    20    1
     5    20    21   ar
     6    21    22   ar
     7    22    23   ar
     8    23     1    1
     9     1     2   ar
    10     2     3   ar
    11     3     6    1
    12     6     7   ar
    13     7     8   ar
    14     8     9   ar
    15     9    10   ar
    16    10    11   ar
    17    11    12   ar
    18    12    13   ar
    19    13    14   ar
    20    14    15    1
    21    15    16    1
    22    16    17    1
    23    17    18   ar
    24    17    19   ar
    25     3     4   ar
    26     4     5   ar
    27    23    24   ar
    28    24    25   ar
    29    25    26    1
    30    25    20   ar
    31     5     1   ar
    32    11     6   ar
    33    14    10   ar
@<TRIPOS>MOLECULE
*****
 30 33 0 0 0
SMALL
GASTEIGER

@<TRIPOS>ATOM
      1 C           6.0517   -3.9718   22.0021 C.ar    1  UNL1        0.2600
      2 N           6.1383   -4.4547   23.4196 N.ar    1  UNL1       -0.1870
      3 C           7.4155   -5.2270   23.5689 C.ar    1  UNL1        0.2037
      4 N           8.1182   -5.2215   22.2437 N.ar    1  UNL1       -0.0556
      5 O           7.2753   -4.4457   21.2753 O.2     1  UNL1       -0.3324
      6 C           7.9042   -5.8888   24.8232 C.ar    1  UNL1        0.0421
      7 C           8.1042   -7.3750   24.8581 C.ar    1  UNL1        0.0033
      8 C           8.5929   -8.0367   26.1124 C.ar    1  UNL1        0.0016
      9 C           8.8816   -7.2122   27.3318 C.ar    1  UNL1        0.0188
     10 C           8.6816   -5.7260   27.2969 C.ar    1  UNL1        0.0795
     11 C           8.1929   -5.0643   26.0426 C.ar    1  UNL1        0.0412
     12 C           8.0906   -3.5910   26.3053 C.ar    1  UNL1        0.1217
     13 N           8.5161   -3.3422   27.7220 N.ar    1  UNL1       -0.1677
     14 N           8.8814   -4.6617   28.3348 N.ar    1  UNL1       -0.2505
     15 C           9.3620   -4.8788   29.7390 C.3     1  UNL1        0.1333
     16 C           8.6277   -4.2540   30.8881 C.3     1  UNL1        0.0680
     17 C           7.2817   -4.7786   31.2923 C.2     1  UNL1        0.0524
     18 O           6.4743   -4.0538   32.3280 O.co2   1  UNL1       -0.5491
     19 O           6.7431   -6.0280   30.6607 O.co2   1  UNL1       -0.5491
     20 C           2.7080   -1.5301   20.2394 C.ar    1  UNL1        0.1488
     21 C           3.3220   -2.6446   19.4452 C.ar    1  UNL1        0.0379
     22 C           4.4366   -3.4585   20.0328 C.ar    1  UNL1        0.0079
     23 C           4.9371   -3.1579   21.4145 C.ar    1  UNL1        0.0571
     24 C           4.3229   -2.0433   22.2086 C.ar    1  UNL1        0.0192
     25 C           3.2084   -1.2294   21.6212 C.ar    1  UNL1        0.0917
     26 CL          2.5943   -0.1149   22.4153 Cl      1  UNL1       -0.0791
     27 O           1.5934   -0.7162   19.6518 O.3     1  UNL1       -0.4783
     28 C           3.2870    0.6847   18.2664 C.3     1  UNL1        0.0472
     29 C           1.9052    0.4903   18.8168 C.3     1  UNL1        0.1662
     30 C           0.8353    1.5024   18.5323 C.3     1  UNL1        0.0472
@<TRIPOS>UNITY_ATOM_ATTR
19 1
charge -1
@<TRIPOS>BOND
     1    28    29    1
     2    29    30    1
     3    29    27    1
     4    27    20    1
     5    20    21   ar
     6    21    22   ar
     7    22    23   ar
     8    23     1    1
     9     1     2   ar
    10     2     3   ar
    11     3     6    1
    12     6     7   ar
    13     7     8   ar
    14     8     9   ar
    15     9    10   ar
    16    10    11   ar
    17    11    12   ar
    18    12    13   ar
    19    13    14   ar
    20    14    15    1
    21    15    16    1
    22    16    17    1
    23    17    18   ar
    24    17    19   ar
    25     3     4   ar
    26     4     5   ar
    27    23    24   ar
    28    24    25   ar
    29    25    26    1
    30    25    20   ar
    31     5     1   ar
    32    11     6   ar
    33    14    10   ar
@<TRIPOS>MOLECULE
*****
 30 33 0 0 0
SMALL
GASTEIGER

@<TRIPOS>ATOM
      1 C           6.5921   -3.9673   23.4492 C.ar    1  UNL1        0.2600
      2 N           6.2303   -4.2068   24.8851 N.ar    1  UNL1       -0.1870
      3 C           7.4303   -4.7841   25.5754 C.ar    1  UNL1        0.2037
      4 N           8.5338   -4.9015   24.5661 N.ar    1  UNL1       -0.0556
      5 O           8.0158   -4.3966   23.2521 O.2     1  UNL1       -0.3324
      6 C           7.5125   -5.1755   27.0211 C.ar    1  UNL1        0.0421
      7 C           8.0888   -6.5056   27.4065 C.ar    1  UNL1        0.0033
      8 C           8.1710   -6.8969   28.8522 C.ar    1  UNL1        0.0016
      9 C           7.6768   -5.9581   29.9125 C.ar    1  UNL1        0.0188
     10 C           7.1004   -4.6280   29.5272 C.ar    1  UNL1        0.0795
     11 C           7.0183   -4.2367   28.0815 C.ar    1  UNL1        0.0412
     12 C           6.4050   -2.8698   28.0053 C.ar    1  UNL1        0.1217
     13 N           6.1082   -2.4164   29.4040 N.ar    1  UNL1       -0.1677
     14 N           6.5380   -3.5030   30.3445 N.ar    1  UNL1       -0.2505
     15 C           6.4251   -3.4704   31.8399 C.3     1  UNL1        0.1333
     16 C           5.8062   -2.2851   32.5197 C.3     1  UNL1        0.0680
     17 C           4.3240   -2.2394   32.7455 C.2     1  UNL1        0.0524
     18 O           3.7052   -3.0660   33.8334 O.co2   1  UNL1       -0.5491
     19 O           3.4605   -1.3670   31.8833 O.co2   1  UNL1       -0.5491
     20 C           3.8823   -2.2604   20.2880 C.ar    1  UNL1        0.1488
     21 C           3.7301   -1.8319   21.7173 C.ar    1  UNL1        0.0379
     22 C           4.6334   -2.4008   22.7711 C.ar    1  UNL1        0.0079
     23 C           5.6888   -3.3983   22.3954 C.ar    1  UNL1        0.0571
     24 C           5.8409   -3.8268   20.9660 C.ar    1  UNL1        0.0192
     25 C           4.9378   -3.2579   19.9123 C.ar    1  UNL1        0.0917
     26 CL          5.0899   -3.6864   18.4829 Cl      1  UNL1       -0.0791
     27 O           2.9790   -1.6914   19.2342 O.3     1  UNL1       -0.4783
     28 C           3.5310    0.8332   18.9666 C.3     1  UNL1        0.0472
     29 C           3.4457   -0.5467   18.3847 C.3     1  UNL1        0.1662
     30 C           3.8271   -0.7818   16.9532 C.3     1  UNL1        0.0472
@<TRIPOS>UNITY_ATOM_ATTR
19 1
charge -1
@<TRIPOS>BOND
     1    28    29    1
     2    29    30    1
     3    29    27    1
     4    27    20    1
     5    20    21   ar
     6    21    22   ar
     7    22    23   ar
     8    23     1    1
     9     1     2   ar
    10     2     3   ar
    11     3     6    1
    12     6     7   ar
    13     7     8   ar
    14     8     9   ar
    15     9    10   ar
    16    10    11   ar
    17    11    12   ar
    18    12    13   ar
    19    13    14   ar
    20    14    15    1
    21    15    16    1
    22    16    17    1
    23    17    18   ar
    24    17    19   ar
    25     3     4   ar
    26     4     5   ar
    27    23    24   ar
    28    24    25   ar
    29    25    26    1
    30    25    20   ar
    31     5     1   ar
    32    11     6   ar
    33    14    10   ar
@<TRIPOS>MOLECULE
*****
 30 33 0 0 0
SMALL
GASTEIGER

@<TRIPOS>ATOM
      1 C           7.8486   -4.5667   21.5122 C.ar    1  UNL1        0.2600
      2 N           7.2990   -4.8985   22.8679 N.ar    1  UNL1       -0.1870
      3 C           8.3417   -5.6782   23.6127 C.ar    1  UNL1        0.2037
      4 N           9.5358   -5.8283   22.7173 N.ar    1  UNL1       -0.0556
      5 O           9.2311   -5.1414   21.4191 O.2     1  UNL1       -0.3324
      6 C           8.2131   -6.2138   25.0079 C.ar    1  UNL1        0.0421
      7 C           8.0350   -7.6861   25.2327 C.ar    1  UNL1        0.0033
      8 C           7.9064   -8.2216   26.6279 C.ar    1  UNL1        0.0016
      9 C           7.9557   -7.2849   27.7983 C.ar    1  UNL1        0.0188
     10 C           8.1337   -5.8125   27.5736 C.ar    1  UNL1        0.0795
     11 C           8.2624   -5.2770   26.1784 C.ar    1  UNL1        0.0412
     12 C           8.4270   -3.7886   26.2665 C.ar    1  UNL1        0.1217
     13 N           8.4001   -3.4043   27.7162 N.ar    1  UNL1       -0.1677
     14 N           8.2188   -4.6552   28.5240 N.ar    1  UNL1       -0.2505
     15 C           8.1370   -4.7347   30.0196 C.3     1  UNL1        0.1333
     16 C           6.8296   -4.4907   30.7133 C.3     1  UNL1        0.0680
     17 C           6.5418   -3.1499   31.3210 C.2     1  UNL1        0.0524
     18 O           7.3017   -1.9403   30.8634 O.co2   1  UNL1       -0.5491
     19 O           5.4940   -3.0186   32.3863 O.co2   1  UNL1       -0.5491
     20 C           5.7233   -2.2535   18.2902 C.ar    1  UNL1        0.1488
     21 C           7.1926   -2.0509   18.5138 C.ar    1  UNL1        0.0379
     22 C           7.9010   -2.8220   19.5879 C.ar    1  UNL1        0.0079
     23 C           7.1401   -3.7956   20.4382 C.ar    1  UNL1        0.0571
     24 C           5.6708   -3.9981   20.2145 C.ar    1  UNL1        0.0192
     25 C           4.9623   -3.2271   19.1405 C.ar    1  UNL1        0.0917
     26 CL          3.4930   -3.4297   18.9168 Cl      1  UNL1       -0.0791
     27 O           5.0149   -1.4824   17.2161 O.3     1  UNL1       -0.4783
     28 C           3.0112    0.0548   17.8267 C.3     1  UNL1        0.0472
     29 C           4.4673   -0.1171   17.5100 C.3     1  UNL1        0.1662
     30 C           5.3759    1.0762   17.4871 C.3     1  UNL1        0.0472
@<TRIPOS>UNITY_ATOM_ATTR
19 1
charge -1
@<TRIPOS>BOND
     1    28    29    1
     2    29    30    1
     3    29    27    1
     4    27    20    1
     5    20    21   ar
     6    21    22   ar
     7    22    23   ar
     8    23     1    1
     9     1     2   ar
    10     2     3   ar
    11     3     6    1
    12     6     7   ar
    13     7     8   ar
    14     8     9   ar
    15     9    10   ar
    16    10    11   ar
    17    11    12   ar
    18    12    13   ar
    19    13    14   ar
    20    14    15    1
    21    15    16    1
    22    16    17    1
    23    17    18   ar
    24    17    19   ar
    25     3     4   ar
    26     4     5   ar
    27    23    24   ar
    28    24    25   ar
    29    25    26    1
    30    25    20   ar
    31     5     1   ar
    32    11     6   ar
    33    14    10   ar
@<TRIPOS>MOLECULE
*****
 30 33 0 0 0
SMALL
GASTEIGER

@<TRIPOS>ATOM
      1 C           7.2157   -4.6743   23.8291 C.ar    1  UNL1        0.2600
      2 N           6.8017   -3.4583   23.0545 N.ar    1  UNL1       -0.1870
      3 C           7.1506   -3.6857   21.6135 C.ar    1  UNL1        0.2037
      4 N           7.7803   -5.0421   21.4975 N.ar    1  UNL1       -0.0556
      5 O           7.8206   -5.6532   22.8668 O.2     1  UNL1       -0.3324
      6 C           6.9118   -2.7251   20.4863 C.ar    1  UNL1        0.0421
      7 C           8.0730   -2.1643   19.7201 C.ar    1  UNL1        0.0033
      8 C           7.8341   -1.2039   18.5930 C.ar    1  UNL1        0.0016
      9 C           6.4341   -0.8042   18.2320 C.ar    1  UNL1        0.0188
     10 C           5.2730   -1.3651   18.9982 C.ar    1  UNL1        0.0795
     11 C           5.5118   -2.3255   20.1254 C.ar    1  UNL1        0.0412
     12 C           4.1792   -2.7109   20.6963 C.ar    1  UNL1        0.1217
     13 N           3.1169   -1.9886   19.9219 N.ar    1  UNL1       -0.1677
     14 N           3.7928   -1.1568   18.8725 N.ar    1  UNL1       -0.2505
     15 C           3.1088   -0.2721   17.8728 C.3     1  UNL1        0.1333
     16 C           2.5539    1.0541   18.3009 C.3     1  UNL1        0.0680
     17 C           1.1049    1.1775   18.6687 C.2     1  UNL1        0.0524
     18 O           0.2421    2.1972   17.9865 O.co2   1  UNL1       -0.5491
     19 O           0.5188    0.2810   19.7189 O.co2   1  UNL1       -0.5491
     20 C           6.7287   -5.2794   28.2615 C.ar    1  UNL1        0.1488
     21 C           7.1279   -6.4306   27.3868 C.ar    1  UNL1        0.0379
     22 C           7.2902   -6.2289   25.9093 C.ar    1  UNL1        0.0079
     23 C           7.0534   -4.8760   25.3066 C.ar    1  UNL1        0.0571
     24 C           6.6542   -3.7247   26.1813 C.ar    1  UNL1        0.0192
     25 C           6.4919   -3.9263   27.6588 C.ar    1  UNL1        0.0917
     26 CL          6.0927   -2.7750   28.5335 Cl      1  UNL1       -0.0791
     27 O           6.5664   -5.4811   29.7390 O.3     1  UNL1       -0.4783
     28 C           8.9125   -6.1228   30.6522 C.3     1  UNL1        0.0472
     29 C           7.7178   -5.2159   30.6631 C.3     1  UNL1        0.1662
     30 C           7.6744   -4.0438   31.5982 C.3     1  UNL1        0.0472
@<TRIPOS>UNITY_ATOM_ATTR
19 1
charge -1
@<TRIPOS>BOND
     1    28    29    1
     2    29    30    1
     3    29    27    1
     4    27    20    1
     5    20    21   ar
     6    21    22   ar
     7    22    23   ar
     8    23     1    1
     9     1     2   ar
    10     2     3   ar
    11     3     6    1
    12     6     7   ar
    13     7     8   ar
    14     8     9   ar
    15     9    10   ar
    16    10    11   ar
    17    11    12   ar
    18    12    13   ar
    19    13    14   ar
    20    14    15    1
    21    15    16    1
    22    16    17    1
    23    17    18   ar
    24    17    19   ar
    25     3     4   ar
    26     4     5   ar
    27    23    24   ar
    28    24    25   ar
    29    25    26    1
    30    25    20   ar
    31     5     1   ar
    32    11     6   ar
    33    14    10   ar
@<TRIPOS>MOLECULE
*****
 30 33 0 0 0
SMALL
GASTEIGER

@<TRIPOS>ATOM
      1 C           2.7264   -0.3692   28.1545 C.ar    1  UNL1        0.2600
      2 N           3.7248   -0.4578   29.2705 N.ar    1  UNL1       -0.1870
      3 C           2.9698   -0.4913   30.5662 C.ar    1  UNL1        0.2037
      4 N           1.5049   -0.4233   30.2510 N.ar    1  UNL1       -0.0556
      5 O           1.3544   -0.3479   28.7605 O.2     1  UNL1       -0.3324
      6 C           3.5737   -0.5775   31.9366 C.ar    1  UNL1        0.0421
      7 C           4.4575   -1.7352   32.2952 C.ar    1  UNL1        0.0033
      8 C           5.0614   -1.8214   33.6655 C.ar    1  UNL1        0.0016
      9 C           4.7815   -0.7500   34.6773 C.ar    1  UNL1        0.0188
     10 C           3.8977    0.4077   34.3187 C.ar    1  UNL1        0.0795
     11 C           3.2938    0.4939   32.9483 C.ar    1  UNL1        0.0412
     12 C           2.4682    1.7446   32.8834 C.ar    1  UNL1        0.1217
     13 N           2.5619    2.4314   34.2137 N.ar    1  UNL1       -0.1677
     14 N           3.4453    1.6051   35.1007 N.ar    1  UNL1       -0.2505
     15 C           3.8121    1.9208   36.5205 C.3     1  UNL1        0.1333
     16 C           3.3468    1.0271   37.6318 C.3     1  UNL1        0.0680
     17 C           2.3132    1.5145   38.6034 C.2     1  UNL1        0.0524
     18 O           2.6356    2.6420   39.5387 O.co2   1  UNL1       -0.5491
     19 O           0.9571    0.8745   38.6397 O.co2   1  UNL1       -0.5491
     20 C           3.6799   -0.1975   23.7601 C.ar    1  UNL1        0.1488
     21 C           2.8551    0.8847   24.3913 C.ar    1  UNL1        0.0379
     22 C           2.5373    0.8275   25.8562 C.ar    1  UNL1        0.0079
     23 C           3.0443   -0.3120   26.6897 C.ar    1  UNL1        0.0571
     24 C           3.8690   -1.3941   26.0583 C.ar    1  UNL1        0.0192
     25 C           4.1869   -1.3370   24.5936 C.ar    1  UNL1        0.0917
     26 CL          5.0116   -2.4192   23.9622 Cl      1  UNL1       -0.0791
     27 O           3.9977   -0.1402   22.2952 O.3     1  UNL1       -0.4783
     28 C           1.7239   -0.2833   21.0466 C.3     1  UNL1        0.0472
     29 C           3.0997   -0.8218   21.3057 C.3     1  UNL1        0.1662
     30 C           3.5776   -2.0417   20.5755 C.3     1  UNL1        0.0472
@<TRIPOS>UNITY_ATOM_ATTR
19 1
charge -1
@<TRIPOS>BOND
     1    28    29    1
     2    29    30    1
     3    29    27    1
     4    27    20    1
     5    20    21   ar
     6    21    22   ar
     7    22    23   ar
     8    23     1    1
     9     1     2   ar
    10     2     3   ar
    11     3     6    1
    12     6     7   ar
    13     7     8   ar
    14     8     9   ar
    15     9    10   ar
    16    10    11   ar
    17    11    12   ar
    18    12    13   ar
    19    13    14   ar
    20    14    15    1
    21    15    16    1
    22    16    17    1
    23    17    18   ar
    24    17    19   ar
    25     3     4   ar
    26     4     5   ar
    27    23    24   ar
    28    24    25   ar
    29    25    26    1
    30    25    20   ar
    31     5     1   ar
    32    11     6   ar
    33    14    10   ar
@<TRIPOS>MOLECULE
*****
 30 33 0 0 0
SMALL
GASTEIGER

@<TRIPOS>ATOM
      1 C           1.1074    2.2926   25.2853 C.ar    1  UNL1        0.2600
      2 N           1.0722    1.2177   24.2397 N.ar    1  UNL1       -0.1870
      3 C           1.3739    1.8507   22.9138 C.ar    1  UNL1        0.2037
      4 N           1.5955    3.3170   23.1399 N.ar    1  UNL1       -0.0556
      5 O           1.4308    3.5901   24.6055 O.2     1  UNL1       -0.3324
      6 C           1.4420    1.1420   21.5935 C.ar    1  UNL1        0.0421
      7 C           0.6423    1.6468   20.4292 C.ar    1  UNL1        0.0033
      8 C           0.7104    0.9381   19.1089 C.ar    1  UNL1        0.0016
      9 C           1.5783   -0.2754   18.9530 C.ar    1  UNL1        0.0188
     10 C           2.3779   -0.7802   20.1173 C.ar    1  UNL1        0.0795
     11 C           2.3098   -0.0715   21.4375 C.ar    1  UNL1        0.0412
     12 C           3.2044   -0.7959   22.3993 C.ar    1  UNL1        0.1217
     13 N           3.8254   -1.9524   21.6734 N.ar    1  UNL1       -0.1677
     14 N           3.3146   -1.9426   20.2631 N.ar    1  UNL1       -0.2505
     15 C           3.6769   -2.9232   19.1873 C.3     1  UNL1        0.1333
     16 C           4.7865   -2.6084   18.2283 C.3     1  UNL1        0.0680
     17 C           4.8070   -1.2910   17.5114 C.2     1  UNL1        0.0524
     18 O           3.9335   -1.0766   16.3110 O.co2   1  UNL1       -0.5491
     19 O           5.7011   -0.1879   17.9949 O.co2   1  UNL1       -0.5491
     20 C           0.3719    1.7249   29.6883 C.ar    1  UNL1        0.1488
     21 C           1.4803    2.6218   29.2227 C.ar    1  UNL1        0.0379
     22 C           1.7254    2.8111   27.7550 C.ar    1  UNL1        0.0079
     23 C           0.8622    2.1034   26.7530 C.ar    1  UNL1        0.0571
     24 C          -0.2462    1.2064   27.2187 C.ar    1  UNL1        0.0192
     25 C          -0.4914    1.0171   28.6863 C.ar    1  UNL1        0.0917
     26 CL         -1.5998    0.1201   29.1520 Cl      1  UNL1       -0.0791
     27 O           0.1267    1.5356   31.1560 O.3     1  UNL1       -0.4783
     28 C           2.0802    1.7951   32.8492 C.3     1  UNL1        0.0472
     29 C           0.8785    2.3644   32.1550 C.3     1  UNL1        0.1662
     30 C           0.4285    3.7625   32.4597 C.3     1  UNL1        0.0472
@<TRIPOS>UNITY_ATOM_ATTR
19 1
charge -1
@<TRIPOS>BOND
     1    28    29    1
     2    29    30    1
     3    29    27    1
     4    27    20    1
     5    20    21   ar
     6    21    22   ar
     7    22    23   ar
     8    23     1    1
     9     1     2   ar
    10     2     3   ar
    11     3     6    1
    12     6     7   ar
    13     7     8   ar
    14     8     9   ar
    15     9    10   ar
    16    10    11   ar
    17    11    12   ar
    18    12    13   ar
    19    13    14   ar
    20    14    15    1
    21    15    16    1
    22    16    17    1
    23    17    18   ar
    24    17    19   ar
    25     3     4   ar
    26     4     5   ar
    27    23    24   ar
    28    24    25   ar
    29    25    26    1
    30    25    20   ar
    31     5     1   ar
    32    11     6   ar
    33    14    10   ar
