@<TRIPOS>MOLECULE
*****
 37 41 0 0 0
SMALL
GASTEIGER

@<TRIPOS>ATOM
      1 C          -5.7994  -16.3242   23.7991 C.3     1  UNL1        0.1225
      2 O          -6.4339  -15.7360   25.0244 O.3     1  UNL1       -0.3559
      3 C          -7.8951  -15.9488   25.2879 C.3     1  UNL1        0.1441
      4 C          -8.7219  -16.7497   24.3261 C.3     1  UNL1        0.0589
      5 C          -8.0874  -17.3379   23.1008 C.3     1  UNL1        0.1466
      6 C          -8.9141  -18.1388   22.1390 C.ar    1  UNL1        0.0618
      7 C         -10.3754  -18.3515   22.4025 C.ar    1  UNL1        0.1407
      8 F         -11.3107  -17.9223   23.4939 F       1  UNL1       -0.2043
      9 C         -11.2021  -19.1524   21.4407 C.ar    1  UNL1        0.0319
     10 C         -10.5676  -19.7406   20.2154 C.ar    1  UNL1        0.0351
     11 C          -9.1064  -19.5278   19.9519 C.ar    1  UNL1        0.1737
     12 F          -8.4718  -20.1160   18.7265 F       1  UNL1       -0.2010
     13 C          -8.2796  -18.7269   20.9137 C.ar    1  UNL1        0.1655
     14 O          -6.8183  -18.5142   20.6501 O.3     1  UNL1       -0.4732
     15 C          -5.9916  -17.7133   21.6119 C.3     1  UNL1        0.2098
     16 C          -6.6261  -17.1251   22.8373 C.3     1  UNL1        0.0957
     17 S          -9.5486  -17.5506   23.3643 S.O2    1  UNL1        0.0094
     18 O          -9.7744  -18.2459   23.6821 O.2     1  UNL1       -0.1684
     19 O         -10.1896  -16.2738   22.9067 O.2     1  UNL1       -0.1684
     20 C         -11.0100  -17.7633   23.6277 C.ar    1  UNL1        0.1059
     21 C         -11.4499  -18.7907   24.6281 C.ar    1  UNL1        0.0192
     22 C         -12.9112  -19.0034   24.8916 C.ar    1  UNL1        0.0127
     23 C         -13.9326  -18.1886   24.1547 C.ar    1  UNL1        0.0578
     24 CL        -15.3938  -18.4012   24.4181 Cl      1  UNL1       -0.0822
     25 C         -13.4925  -17.1611   23.1543 C.ar    1  UNL1        0.0127
     26 C         -12.0313  -16.9485   22.8908 C.ar    1  UNL1        0.0192
     27 C          -4.3381  -16.1115   23.5355 C.3     1  UNL1        0.0550
     28 C          -3.4415  -17.2884   23.2884 C.3     1  UNL1        0.1533
     29 O          -2.6977  -18.9295   22.1689 O.2     1  UNL1       -0.1730
     30 S          -2.7577  -17.4450   21.9626 S.O2    1  UNL1       -0.0102
     31 O          -2.8177  -15.9605   21.7563 O.2     1  UNL1       -0.1730
     32 C          -2.0739  -17.6016   20.6367 C.3     1  UNL1        0.1461
     33 C          -2.7517  -17.7911   19.3121 C.3     1  UNL1        0.0420
     34 C          -1.6890  -17.9027   18.2593 C.3     1  UNL1        0.0704
     35 N          -0.3543  -17.7823   18.9334 N.3     1  UNL1       -0.2960
     36 C          -0.5923  -17.5961   20.4027 C.3     1  UNL1        0.0924
     37 H           0.1508  -16.9786   18.5600 H       1  UNL1        0.1233
@<TRIPOS>BOND
     1    29    30    2
     2    30    31    2
     3    30    28    1
     4    28    27    1
     5     1    27    1
     6     1     2    1
     7     2     3    1
     8     3     4    1
     9     4     5    1
    10     5    17    1
    11    17    18    2
    12    17    19    2
    13    17    20    1
    14    20    21   ar
    15    21    22   ar
    16    22    23   ar
    17    23    24    1
    18    23    25   ar
    19    25    26   ar
    20     5     6    1
    21     6     7   ar
    22     7     8    1
    23     7     9   ar
    24     9    10   ar
    25    10    11   ar
    26    11    12    1
    27    11    13   ar
    28    13    14    1
    29    14    15    1
    30    16    15    1
    31    32    30    1
    32    32    33    1
    33    33    34    1
    34    34    35    1
    35    35    36    1
    36    16     1    1
    37    36    32    1
    38    16     5    1
    39    26    20   ar
    40    13     6   ar
    41    35    37    1
@<TRIPOS>MOLECULE
*****
 37 41 0 0 0
SMALL
GASTEIGER

@<TRIPOS>ATOM
      1 C          -4.0684  -17.8542   23.2089 C.3     1  UNL1        0.1225
      2 O          -4.5243  -16.7982   24.1717 O.3     1  UNL1       -0.3559
      3 C          -5.9686  -16.3958   24.2147 C.3     1  UNL1        0.1441
      4 C          -6.9570  -17.0493   23.2949 C.3     1  UNL1        0.0589
      5 C          -6.5011  -18.1052   22.3321 C.3     1  UNL1        0.1466
      6 C          -7.4894  -18.7588   21.4123 C.ar    1  UNL1        0.0618
      7 C          -8.9338  -18.3563   21.4553 C.ar    1  UNL1        0.1407
      8 F          -9.7161  -17.3667   22.2670 F       1  UNL1       -0.2043
      9 C          -9.9221  -19.0098   20.5355 C.ar    1  UNL1        0.0319
     10 C          -9.4662  -20.0658   19.5727 C.ar    1  UNL1        0.0351
     11 C          -8.0219  -20.4682   19.5297 C.ar    1  UNL1        0.1737
     12 F          -7.5658  -21.5243   18.5669 F       1  UNL1       -0.2010
     13 C          -7.0335  -19.8147   20.4495 C.ar    1  UNL1        0.1655
     14 O          -5.5891  -20.2172   20.4065 O.3     1  UNL1       -0.4732
     15 C          -4.6007  -19.5637   21.3263 C.3     1  UNL1        0.2098
     16 C          -5.0567  -18.5077   22.2891 C.3     1  UNL1        0.0957
     17 S          -7.9454  -17.7028   22.3751 S.O2    1  UNL1        0.0094
     18 O          -8.4535  -18.1732   22.7700 O.2     1  UNL1       -0.1684
     19 O          -7.9895  -16.4247   21.5910 O.2     1  UNL1       -0.1684
     20 C          -9.3898  -17.3003   22.4180 C.ar    1  UNL1        0.1059
     21 C          -9.8994  -16.2353   21.4928 C.ar    1  UNL1        0.0192
     22 C         -11.3438  -15.8328   21.5358 C.ar    1  UNL1        0.0127
     23 C         -12.2785  -16.4953   22.5040 C.ar    1  UNL1        0.0578
     24 CL        -13.7228  -16.0928   22.5469 Cl      1  UNL1       -0.0822
     25 C         -11.7688  -17.5603   23.4292 C.ar    1  UNL1        0.0127
     26 C         -10.3245  -17.9628   23.3862 C.ar    1  UNL1        0.0192
     27 C          -2.6240  -18.2567   23.1659 C.3     1  UNL1        0.0550
     28 C          -1.6408  -17.4398   22.3810 C.3     1  UNL1        0.1533
     29 O          -2.4209  -16.1422   20.8952 O.2     1  UNL1       -0.1730
     30 S          -1.6855  -17.4494   20.8818 S.O2    1  UNL1       -0.0102
     31 O          -0.9500  -18.7567   20.8683 O.2     1  UNL1       -0.1730
     32 C          -1.7301  -17.4591   19.3824 C.3     1  UNL1        0.1461
     33 C          -2.8838  -17.0168   18.5319 C.3     1  UNL1        0.0420
     34 C          -2.4956  -17.1972   17.0942 C.3     1  UNL1        0.0704
     35 N          -1.1020  -17.7509   17.0563 N.3     1  UNL1       -0.2960
     36 C          -0.6289  -17.9128   18.4705 C.3     1  UNL1        0.0924
     37 H          -0.4875  -17.1078   16.5572 H       1  UNL1        0.1233
@<TRIPOS>BOND
     1    29    30    2
     2    30    31    2
     3    30    28    1
     4    28    27    1
     5     1    27    1
     6     1     2    1
     7     2     3    1
     8     3     4    1
     9     4     5    1
    10     5    17    1
    11    17    18    2
    12    17    19    2
    13    17    20    1
    14    20    21   ar
    15    21    22   ar
    16    22    23   ar
    17    23    24    1
    18    23    25   ar
    19    25    26   ar
    20     5     6    1
    21     6     7   ar
    22     7     8    1
    23     7     9   ar
    24     9    10   ar
    25    10    11   ar
    26    11    12    1
    27    11    13   ar
    28    13    14    1
    29    14    15    1
    30    16    15    1
    31    32    30    1
    32    32    33    1
    33    33    34    1
    34    34    35    1
    35    35    36    1
    36    16     1    1
    37    36    32    1
    38    16     5    1
    39    26    20   ar
    40    13     6   ar
    41    35    37    1
@<TRIPOS>MOLECULE
*****
 37 41 0 0 0
SMALL
GASTEIGER

@<TRIPOS>ATOM
      1 C           5.3888   -2.1782   25.2997 C.3     1  UNL1        0.1225
      2 O           4.7613   -0.8963   25.7610 O.3     1  UNL1       -0.3559
      3 C           3.9505   -0.0719   24.8056 C.3     1  UNL1        0.1441
      4 C           3.7671   -0.5294   23.3889 C.3     1  UNL1        0.0589
      5 C           4.3946   -1.8113   22.9276 C.3     1  UNL1        0.1466
      6 C           4.2112   -2.2688   21.5109 C.ar    1  UNL1        0.0618
      7 C           3.4004   -1.4444   20.5555 C.ar    1  UNL1        0.1407
      8 F           2.6526   -0.1492   20.6717 F       1  UNL1       -0.2043
      9 C           3.2170   -1.9019   19.1388 C.ar    1  UNL1        0.0319
     10 C           3.8444   -3.1839   18.6775 C.ar    1  UNL1        0.0351
     11 C           4.6553   -4.0083   19.6329 C.ar    1  UNL1        0.1737
     12 F           5.2828   -5.2903   19.1716 F       1  UNL1       -0.2010
     13 C           4.8386   -3.5508   21.0496 C.ar    1  UNL1        0.1655
     14 O           5.6495   -4.3753   22.0050 O.3     1  UNL1       -0.4732
     15 C           5.8329   -3.9178   23.4217 C.3     1  UNL1        0.2098
     16 C           5.2054   -2.6358   23.8830 C.3     1  UNL1        0.0957
     17 S           3.5837   -0.9869   21.9722 S.O2    1  UNL1        0.0094
     18 O           2.8133   -1.1701   21.8802 O.2     1  UNL1       -0.1684
     19 O           4.5622    0.0169   21.4382 O.2     1  UNL1       -0.1684
     20 C           2.7729   -0.1624   21.0168 C.ar    1  UNL1        0.1059
     21 C           3.4374    0.8995   20.1917 C.ar    1  UNL1        0.0192
     22 C           2.6266    1.7241   19.2363 C.ar    1  UNL1        0.0127
     23 C           1.1512    1.4866   19.1059 C.ar    1  UNL1        0.0578
     24 CL          0.3404    2.3110   18.1505 Cl      1  UNL1       -0.0822
     25 C           0.4867    0.4245   19.9310 C.ar    1  UNL1        0.0127
     26 C           1.2976   -0.3999   20.8864 C.ar    1  UNL1        0.0192
     27 C           6.1996   -3.0028   26.2551 C.3     1  UNL1        0.0550
     28 C           6.7086   -2.3925   27.5273 C.3     1  UNL1        0.1533
     29 O           6.5280   -4.4535   27.9954 O.2     1  UNL1       -0.1730
     30 S           6.7221   -3.1979   28.7926 S.O2    1  UNL1       -0.0102
     31 O           6.9162   -1.9422   29.5898 O.2     1  UNL1       -0.1730
     32 C           6.7355   -4.0033   30.0580 C.3     1  UNL1        0.1461
     33 C           7.0969   -5.4544   30.1756 C.3     1  UNL1        0.0420
     34 C           6.9747   -5.8470   31.6182 C.3     1  UNL1        0.0704
     35 N           6.5378   -4.6385   32.3921 N.3     1  UNL1       -0.2960
     36 C           6.3900   -3.4991   31.4278 C.3     1  UNL1        0.0924
     37 H           7.2380   -4.4070   33.0968 H       1  UNL1        0.1233
@<TRIPOS>BOND
     1    29    30    2
     2    30    31    2
     3    30    28    1
     4    28    27    1
     5     1    27    1
     6     1     2    1
     7     2     3    1
     8     3     4    1
     9     4     5    1
    10     5    17    1
    11    17    18    2
    12    17    19    2
    13    17    20    1
    14    20    21   ar
    15    21    22   ar
    16    22    23   ar
    17    23    24    1
    18    23    25   ar
    19    25    26   ar
    20     5     6    1
    21     6     7   ar
    22     7     8    1
    23     7     9   ar
    24     9    10   ar
    25    10    11   ar
    26    11    12    1
    27    11    13   ar
    28    13    14    1
    29    14    15    1
    30    16    15    1
    31    32    30    1
    32    32    33    1
    33    33    34    1
    34    34    35    1
    35    35    36    1
    36    16     1    1
    37    36    32    1
    38    16     5    1
    39    26    20   ar
    40    13     6   ar
    41    35    37    1
@<TRIPOS>MOLECULE
*****
 37 41 0 0 0
SMALL
GASTEIGER

@<TRIPOS>ATOM
      1 C           7.0427   -4.0475   21.2976 C.3     1  UNL1        0.1225
      2 O           6.0472   -4.3159   22.3870 O.3     1  UNL1       -0.3559
      3 C           4.8143   -3.4693   22.5015 C.3     1  UNL1        0.1441
      4 C           4.5769   -2.3543   21.5265 C.3     1  UNL1        0.0589
      5 C           5.5724   -2.0859   20.4371 C.3     1  UNL1        0.1466
      6 C           5.3350   -0.9710   19.4622 C.ar    1  UNL1        0.0618
      7 C           4.1021   -0.1244   19.5767 C.ar    1  UNL1        0.1407
      8 F           2.9307   -0.1107   20.5136 F       1  UNL1       -0.2043
      9 C           3.8648    0.9906   18.6017 C.ar    1  UNL1        0.0319
     10 C           4.8603    1.2589   17.5123 C.ar    1  UNL1        0.0351
     11 C           6.0932    0.4123   17.3978 C.ar    1  UNL1        0.1737
     12 F           7.0888    0.6807   16.3083 F       1  UNL1       -0.2010
     13 C           6.3306   -0.7026   18.3727 C.ar    1  UNL1        0.1655
     14 O           7.5635   -1.5493   18.2582 O.3     1  UNL1       -0.4732
     15 C           7.8009   -2.6642   19.2332 C.3     1  UNL1        0.2098
     16 C           6.8053   -2.9326   20.3226 C.3     1  UNL1        0.0957
     17 S           4.3395   -1.2393   20.5516 S.O2    1  UNL1        0.0094
     18 O           4.3898   -0.5585   20.9632 O.2     1  UNL1       -0.1684
     19 O           3.3009   -2.0055   19.7871 O.2     1  UNL1       -0.1684
     20 C           3.1065   -0.3927   20.6661 C.ar    1  UNL1        0.1059
     21 C           3.1372    0.8718   21.4723 C.ar    1  UNL1        0.0192
     22 C           1.9042    1.7184   21.5867 C.ar    1  UNL1        0.0127
     23 C           0.6406    1.3005   20.8950 C.ar    1  UNL1        0.0578
     24 CL         -0.5924    2.1470   21.0094 Cl      1  UNL1       -0.0822
     25 C           0.6100    0.0359   20.0887 C.ar    1  UNL1        0.0127
     26 C           1.8429   -0.8107   19.9743 C.ar    1  UNL1        0.0192
     27 C           8.2757   -4.8942   21.1830 C.3     1  UNL1        0.0550
     28 C           9.1519   -5.1090   22.3814 C.3     1  UNL1        0.1533
     29 O           8.7697   -4.4881   24.3734 O.2     1  UNL1       -0.1730
     30 S           8.5953   -5.7669   23.6092 S.O2    1  UNL1       -0.0102
     31 O           8.4209   -7.0457   22.8449 O.2     1  UNL1       -0.1730
     32 C           8.0387   -6.4248   24.8370 C.3     1  UNL1        0.1461
     33 C           8.3351   -7.8202   25.3007 C.3     1  UNL1        0.0420
     34 C           7.5675   -8.0607   26.5669 C.3     1  UNL1        0.0704
     35 N           6.7968   -6.8139   26.8856 N.3     1  UNL1       -0.2960
     36 C           7.0880   -5.8029   25.8164 C.3     1  UNL1        0.0924
     37 H           7.0864   -6.4505   27.7936 H       1  UNL1        0.1233
@<TRIPOS>BOND
     1    29    30    2
     2    30    31    2
     3    30    28    1
     4    28    27    1
     5     1    27    1
     6     1     2    1
     7     2     3    1
     8     3     4    1
     9     4     5    1
    10     5    17    1
    11    17    18    2
    12    17    19    2
    13    17    20    1
    14    20    21   ar
    15    21    22   ar
    16    22    23   ar
    17    23    24    1
    18    23    25   ar
    19    25    26   ar
    20     5     6    1
    21     6     7   ar
    22     7     8    1
    23     7     9   ar
    24     9    10   ar
    25    10    11   ar
    26    11    12    1
    27    11    13   ar
    28    13    14    1
    29    14    15    1
    30    16    15    1
    31    32    30    1
    32    32    33    1
    33    33    34    1
    34    34    35    1
    35    35    36    1
    36    16     1    1
    37    36    32    1
    38    16     5    1
    39    26    20   ar
    40    13     6   ar
    41    35    37    1
@<TRIPOS>MOLECULE
*****
 37 41 0 0 0
SMALL
GASTEIGER

@<TRIPOS>ATOM
      1 C           7.9895   -4.1564   25.1060 C.3     1  UNL1        0.1225
      2 O           8.6493   -4.7051   23.8758 O.3     1  UNL1       -0.3559
      3 C           8.1253   -4.3416   22.5181 C.3     1  UNL1        0.1441
      4 C           6.9414   -3.4294   22.3907 C.3     1  UNL1        0.0589
      5 C           6.2816   -2.8806   23.6209 C.3     1  UNL1        0.1466
      6 C           5.0977   -1.9684   23.4935 C.ar    1  UNL1        0.0618
      7 C           4.5737   -1.6048   22.1358 C.ar    1  UNL1        0.1407
      8 F           4.9753   -1.9590   20.7346 F       1  UNL1       -0.2043
      9 C           3.3898   -0.6926   22.0084 C.ar    1  UNL1        0.0319
     10 C           2.7300   -0.1438   23.2386 C.ar    1  UNL1        0.0351
     11 C           3.2540   -0.5074   24.5962 C.ar    1  UNL1        0.1737
     12 F           2.5941    0.0414   25.8266 F       1  UNL1       -0.2010
     13 C           4.4379   -1.4196   24.7237 C.ar    1  UNL1        0.1655
     14 O           4.9619   -1.7831   26.0814 O.3     1  UNL1       -0.4732
     15 C           6.1457   -2.6954   26.2088 C.3     1  UNL1        0.2098
     16 C           6.8056   -3.2442   24.9785 C.3     1  UNL1        0.0957
     17 S           5.7575   -2.5171   22.2633 S.O2    1  UNL1        0.0094
     18 O           6.0242   -1.8455   21.9265 O.2     1  UNL1       -0.1684
     19 O           4.8088   -3.6303   21.9304 O.2     1  UNL1       -0.1684
     20 C           5.2335   -2.1536   20.9056 C.ar    1  UNL1        0.1059
     21 C           4.1702   -2.9936   20.2625 C.ar    1  UNL1        0.0192
     22 C           3.6461   -2.6301   18.9048 C.ar    1  UNL1        0.0127
     23 C           4.1854   -1.4265   18.1902 C.ar    1  UNL1        0.0578
     24 CL          3.6614   -1.0630   16.8326 Cl      1  UNL1       -0.0822
     25 C           5.2487   -0.5865   18.8334 C.ar    1  UNL1        0.0127
     26 C           5.7728   -0.9500   20.1910 C.ar    1  UNL1        0.0192
     27 C           8.5135   -4.5199   26.4637 C.3     1  UNL1        0.0550
     28 C           7.7888   -5.5317   27.3010 C.3     1  UNL1        0.1533
     29 O           5.9667   -5.4519   28.3843 O.2     1  UNL1       -0.1730
     30 S           7.4085   -5.2019   28.7140 S.O2    1  UNL1       -0.0102
     31 O           8.8503   -4.9518   29.0437 O.2     1  UNL1       -0.1730
     32 C           7.0282   -4.8720   30.1270 C.3     1  UNL1        0.1461
     33 C           6.6543   -3.5150   30.6455 C.3     1  UNL1        0.0420
     34 C           6.3500   -3.6455   32.1086 C.3     1  UNL1        0.0704
     35 N           6.5360   -5.0831   32.4943 N.3     1  UNL1       -0.2960
     36 C           6.9551   -5.8411   31.2696 C.3     1  UNL1        0.0924
     37 H           5.6592   -5.4616   32.8524 H       1  UNL1        0.1233
@<TRIPOS>BOND
     1    29    30    2
     2    30    31    2
     3    30    28    1
     4    28    27    1
     5     1    27    1
     6     1     2    1
     7     2     3    1
     8     3     4    1
     9     4     5    1
    10     5    17    1
    11    17    18    2
    12    17    19    2
    13    17    20    1
    14    20    21   ar
    15    21    22   ar
    16    22    23   ar
    17    23    24    1
    18    23    25   ar
    19    25    26   ar
    20     5     6    1
    21     6     7   ar
    22     7     8    1
    23     7     9   ar
    24     9    10   ar
    25    10    11   ar
    26    11    12    1
    27    11    13   ar
    28    13    14    1
    29    14    15    1
    30    16    15    1
    31    32    30    1
    32    32    33    1
    33    33    34    1
    34    34    35    1
    35    35    36    1
    36    16     1    1
    37    36    32    1
    38    16     5    1
    39    26    20   ar
    40    13     6   ar
    41    35    37    1
@<TRIPOS>MOLECULE
*****
 37 41 0 0 0
SMALL
GASTEIGER

@<TRIPOS>ATOM
      1 C          -0.9866    3.5448   19.8453 C.3     1  UNL1        0.1225
      2 O          -0.5760    3.2437   18.4345 O.3     1  UNL1       -0.3559
      3 C           0.4958    2.2293   18.1656 C.3     1  UNL1        0.1441
      4 C           1.1570    1.5161   19.3077 C.3     1  UNL1        0.0589
      5 C           0.7463    1.8173   20.7185 C.3     1  UNL1        0.1466
      6 C           1.4074    1.1041   21.8606 C.ar    1  UNL1        0.0618
      7 C           2.4792    0.0897   21.5917 C.ar    1  UNL1        0.1407
      8 F           3.1199   -0.4438   20.3447 F       1  UNL1       -0.2043
      9 C           3.1404   -0.6235   22.7338 C.ar    1  UNL1        0.0319
     10 C           2.7297   -0.3223   24.1446 C.ar    1  UNL1        0.0351
     11 C           1.6579    0.6920   24.4135 C.ar    1  UNL1        0.1737
     12 F           1.2472    0.9932   25.8244 F       1  UNL1       -0.2010
     13 C           0.9968    1.4052   23.2714 C.ar    1  UNL1        0.1655
     14 O          -0.0751    2.4196   23.5404 O.3     1  UNL1       -0.4732
     15 C          -0.7362    3.1328   22.3983 C.3     1  UNL1        0.2098
     16 C          -0.3255    2.8316   20.9874 C.3     1  UNL1        0.0957
     17 S           1.8181    0.8029   20.4497 S.O2    1  UNL1        0.0094
     18 O           2.5778    1.0307   20.5304 O.2     1  UNL1       -0.1684
     19 O           1.0596   -0.4370   20.0789 O.2     1  UNL1       -0.1684
     20 C           2.8899   -0.2115   20.1808 C.ar    1  UNL1        0.1059
     21 C           4.3198    0.2238   20.0544 C.ar    1  UNL1        0.0192
     22 C           5.3916   -0.7907   19.7855 C.ar    1  UNL1        0.0127
     23 C           5.0335   -2.2403   19.6431 C.ar    1  UNL1        0.0578
     24 CL          6.1052   -3.2547   19.3742 Cl      1  UNL1       -0.0822
     25 C           3.6035   -2.6755   19.7696 C.ar    1  UNL1        0.0127
     26 C           2.5318   -1.6611   20.0384 C.ar    1  UNL1        0.0192
     27 C          -2.0585    4.5592   20.1142 C.3     1  UNL1        0.0550
     28 C          -3.4979    4.1385   20.1470 C.3     1  UNL1        0.1533
     29 O          -4.3272    2.6038   21.3540 O.2     1  UNL1       -0.1730
     30 S          -4.2379    4.0979   21.4512 S.O2    1  UNL1       -0.0102
     31 O          -4.1486    5.5921   21.5483 O.2     1  UNL1       -0.1730
     32 C          -4.9779    4.0574   22.7553 C.3     1  UNL1        0.1461
     33 C          -6.1383    4.9276   23.1380 C.3     1  UNL1        0.0420
     34 C          -6.5650    4.5475   24.5250 C.3     1  UNL1        0.0704
     35 N          -5.6683    3.4425   24.9994 N.3     1  UNL1       -0.2960
     36 C          -4.6875    3.1396   23.9057 C.3     1  UNL1        0.0924
     37 H          -6.2227    2.6119   25.2070 H       1  UNL1        0.1233
@<TRIPOS>BOND
     1    29    30    2
     2    30    31    2
     3    30    28    1
     4    28    27    1
     5     1    27    1
     6     1     2    1
     7     2     3    1
     8     3     4    1
     9     4     5    1
    10     5    17    1
    11    17    18    2
    12    17    19    2
    13    17    20    1
    14    20    21   ar
    15    21    22   ar
    16    22    23   ar
    17    23    24    1
    18    23    25   ar
    19    25    26   ar
    20     5     6    1
    21     6     7   ar
    22     7     8    1
    23     7     9   ar
    24     9    10   ar
    25    10    11   ar
    26    11    12    1
    27    11    13   ar
    28    13    14    1
    29    14    15    1
    30    16    15    1
    31    32    30    1
    32    32    33    1
    33    33    34    1
    34    34    35    1
    35    35    36    1
    36    16     1    1
    37    36    32    1
    38    16     5    1
    39    26    20   ar
    40    13     6   ar
    41    35    37    1
@<TRIPOS>MOLECULE
*****
 37 41 0 0 0
SMALL
GASTEIGER

@<TRIPOS>ATOM
      1 C          -0.5128    3.0019   20.6181 C.3     1  UNL1        0.1225
      2 O          -1.4001    3.4970   19.5147 O.3     1  UNL1       -0.3559
      3 C          -2.7471    4.0730   19.8369 C.3     1  UNL1        0.1441
      4 C          -3.2068    4.1538   21.2624 C.3     1  UNL1        0.0589
      5 C          -2.3195    3.6586   22.3658 C.3     1  UNL1        0.1466
      6 C          -2.7791    3.7394   23.7913 C.ar    1  UNL1        0.0618
      7 C          -4.1261    4.3154   24.1135 C.ar    1  UNL1        0.1407
      8 F          -5.2396    4.8876   23.2870 F       1  UNL1       -0.2043
      9 C          -4.5858    4.3962   25.5391 C.ar    1  UNL1        0.0319
     10 C          -3.6985    3.9010   26.6424 C.ar    1  UNL1        0.0351
     11 C          -2.3515    3.3251   26.3202 C.ar    1  UNL1        0.1737
     12 F          -1.4641    2.8299   27.4236 F       1  UNL1       -0.2010
     13 C          -1.8918    3.2443   24.8947 C.ar    1  UNL1        0.1655
     14 O          -0.5447    2.6683   24.5725 O.3     1  UNL1       -0.4732
     15 C          -0.0851    2.5875   23.1470 C.3     1  UNL1        0.2098
     16 C          -0.9725    3.0827   22.0436 C.3     1  UNL1        0.0957
     17 S          -3.6665    4.2346   22.6880 S.O2    1  UNL1        0.0094
     18 O          -3.7071    5.0073   22.8797 O.2     1  UNL1       -0.1684
     19 O          -4.6036    3.0732   22.5357 O.2     1  UNL1       -0.1684
     20 C          -5.0135    4.8105   23.0102 C.ar    1  UNL1        0.1059
     21 C          -5.1550    6.2777   23.2881 C.ar    1  UNL1        0.0192
     22 C          -6.5020    6.8536   23.6103 C.ar    1  UNL1        0.0127
     23 C          -7.7077    5.9623   23.6545 C.ar    1  UNL1        0.0578
     24 CL         -9.0547    6.5381   23.9767 Cl      1  UNL1       -0.0822
     25 C          -7.5662    4.4950   23.3766 C.ar    1  UNL1        0.0127
     26 C          -6.2192    3.9191   23.0544 C.ar    1  UNL1        0.0192
     27 C           0.8343    2.4259   20.2959 C.3     1  UNL1        0.0550
     28 C           1.1585    2.0177   18.8894 C.3     1  UNL1        0.1533
     29 O           3.1043    1.7583   18.0853 O.2     1  UNL1       -0.1730
     30 S           2.0539    0.8409   18.6375 S.O2    1  UNL1       -0.0102
     31 O           1.0034   -0.0765   19.1896 O.2     1  UNL1       -0.1730
     32 C           2.9492   -0.3359   18.3855 C.3     1  UNL1        0.1461
     33 C           3.2870   -1.4139   19.3724 C.3     1  UNL1        0.0420
     34 C           4.2105   -2.3857   18.6993 C.3     1  UNL1        0.0704
     35 N           4.4433   -1.9082   17.2965 N.3     1  UNL1       -0.2960
     36 C           3.6638   -0.6414   17.1026 C.3     1  UNL1        0.0924
     37 H           4.1259   -2.6150   16.6331 H       1  UNL1        0.1233
@<TRIPOS>BOND
     1    29    30    2
     2    30    31    2
     3    30    28    1
     4    28    27    1
     5     1    27    1
     6     1     2    1
     7     2     3    1
     8     3     4    1
     9     4     5    1
    10     5    17    1
    11    17    18    2
    12    17    19    2
    13    17    20    1
    14    20    21   ar
    15    21    22   ar
    16    22    23   ar
    17    23    24    1
    18    23    25   ar
    19    25    26   ar
    20     5     6    1
    21     6     7   ar
    22     7     8    1
    23     7     9   ar
    24     9    10   ar
    25    10    11   ar
    26    11    12    1
    27    11    13   ar
    28    13    14    1
    29    14    15    1
    30    16    15    1
    31    32    30    1
    32    32    33    1
    33    33    34    1
    34    34    35    1
    35    35    36    1
    36    16     1    1
    37    36    32    1
    38    16     5    1
    39    26    20   ar
    40    13     6   ar
    41    35    37    1
@<TRIPOS>MOLECULE
*****
 37 41 0 0 0
SMALL
GASTEIGER

@<TRIPOS>ATOM
      1 C           4.3852   -2.2120   18.8715 C.3     1  UNL1        0.1225
      2 O           4.5158   -1.7836   17.4400 O.3     1  UNL1       -0.3559
      3 C           3.8474   -0.5258   16.9697 C.3     1  UNL1        0.1441
      4 C           3.0485    0.3035   17.9309 C.3     1  UNL1        0.0589
      5 C           2.9180   -0.1249   19.3624 C.3     1  UNL1        0.1466
      6 C           2.1190    0.7044   20.3236 C.ar    1  UNL1        0.0618
      7 C           1.4507    1.9622   19.8533 C.ar    1  UNL1        0.1407
      8 F           1.3724    2.6695   18.5328 F       1  UNL1       -0.2043
      9 C           0.6518    2.7915   20.8145 C.ar    1  UNL1        0.0319
     10 C           0.5212    2.3631   22.2461 C.ar    1  UNL1        0.0351
     11 C           1.1895    1.1053   22.7164 C.ar    1  UNL1        0.1737
     12 F           1.0590    0.6768   24.1480 F       1  UNL1       -0.2010
     13 C           1.9885    0.2759   21.7552 C.ar    1  UNL1        0.1655
     14 O           2.6568   -0.9819   22.2255 O.3     1  UNL1       -0.4732
     15 C           3.4558   -1.8112   21.2643 C.3     1  UNL1        0.2098
     16 C           3.5863   -1.3827   19.8327 C.3     1  UNL1        0.0957
     17 S           2.2496    1.1328   18.8921 S.O2    1  UNL1        0.0094
     18 O           2.6195    1.8261   19.0264 O.2     1  UNL1       -0.1684
     19 O           0.9779    0.6527   18.2577 O.2     1  UNL1       -0.1684
     20 C           1.5812    2.3907   18.4217 C.ar    1  UNL1        0.1059
     21 C           0.1301    2.3721   18.0422 C.ar    1  UNL1        0.0192
     22 C          -0.5383    3.6299   17.5718 C.ar    1  UNL1        0.0127
     23 C           0.2444    4.9063   17.4810 C.ar    1  UNL1        0.0578
     24 CL         -0.4240    6.1640   17.0107 Cl      1  UNL1       -0.0822
     25 C           1.6955    4.9248   17.8606 C.ar    1  UNL1        0.0127
     26 C           2.3639    3.6670   18.3309 C.ar    1  UNL1        0.0192
     27 C           5.0536   -3.4699   19.3419 C.3     1  UNL1        0.0550
     28 C           6.3970   -3.4022   20.0058 C.3     1  UNL1        0.1533
     29 O           5.2488   -4.5128   21.4014 O.2     1  UNL1       -0.1730
     30 S           6.5322   -3.7387   21.4612 S.O2    1  UNL1       -0.0102
     31 O           7.8155   -2.9646   21.5210 O.2     1  UNL1       -0.1730
     32 C           6.6674   -4.0752   22.9168 C.3     1  UNL1        0.1461
     33 C           7.6637   -5.0247   23.5133 C.3     1  UNL1        0.0420
     34 C           7.4421   -5.0576   24.9965 C.3     1  UNL1        0.0704
     35 N           6.3088   -4.1285   25.3166 N.3     1  UNL1       -0.2960
     36 C           5.8300   -3.5214   24.0313 C.3     1  UNL1        0.0924
     37 H           6.6306   -3.3944   25.9474 H       1  UNL1        0.1233
@<TRIPOS>BOND
     1    29    30    2
     2    30    31    2
     3    30    28    1
     4    28    27    1
     5     1    27    1
     6     1     2    1
     7     2     3    1
     8     3     4    1
     9     4     5    1
    10     5    17    1
    11    17    18    2
    12    17    19    2
    13    17    20    1
    14    20    21   ar
    15    21    22   ar
    16    22    23   ar
    17    23    24    1
    18    23    25   ar
    19    25    26   ar
    20     5     6    1
    21     6     7   ar
    22     7     8    1
    23     7     9   ar
    24     9    10   ar
    25    10    11   ar
    26    11    12    1
    27    11    13   ar
    28    13    14    1
    29    14    15    1
    30    16    15    1
    31    32    30    1
    32    32    33    1
    33    33    34    1
    34    34    35    1
    35    35    36    1
    36    16     1    1
    37    36    32    1
    38    16     5    1
    39    26    20   ar
    40    13     6   ar
    41    35    37    1
@<TRIPOS>MOLECULE
*****
 37 41 0 0 0
SMALL
GASTEIGER

@<TRIPOS>ATOM
      1 C         -15.2283    1.4457   19.0993 C.3     1  UNL1        0.1225
      2 O         -13.8160    1.6372   18.6317 O.3     1  UNL1       -0.3559
      3 C         -12.9580    0.4446   18.3293 C.3     1  UNL1        0.1441
      4 C         -13.5122   -0.9394   18.4944 C.3     1  UNL1        0.0589
      5 C         -14.9246   -1.1309   18.9620 C.3     1  UNL1        0.1466
      6 C         -15.4788   -2.5149   19.1271 C.ar    1  UNL1        0.0618
      7 C         -14.6208   -3.7074   18.8247 C.ar    1  UNL1        0.1407
      8 F         -13.2079   -3.8817   18.3518 F       1  UNL1       -0.2043
      9 C         -15.1751   -5.0915   18.9898 C.ar    1  UNL1        0.0319
     10 C         -16.5874   -5.2829   19.4574 C.ar    1  UNL1        0.0351
     11 C         -17.4454   -4.0903   19.7598 C.ar    1  UNL1        0.1737
     12 F         -18.8578   -4.2818   20.2274 F       1  UNL1       -0.2010
     13 C         -16.8911   -2.7063   19.5947 C.ar    1  UNL1        0.1655
     14 O         -17.7493   -1.5137   19.8972 O.3     1  UNL1       -0.4732
     15 C         -17.1950   -0.1297   19.7320 C.3     1  UNL1        0.2098
     16 C         -15.7826    0.0617   19.2644 C.3     1  UNL1        0.0957
     17 S         -14.0665   -2.3234   18.6596 S.O2    1  UNL1        0.0094
     18 O         -14.1106   -2.6409   17.9296 O.2     1  UNL1       -0.1684
     19 O         -13.3249   -2.5710   19.9398 O.2     1  UNL1       -0.1684
     20 C         -13.2084   -3.5161   18.3571 C.ar    1  UNL1        0.1059
     21 C         -12.3767   -4.1357   19.4407 C.ar    1  UNL1        0.0192
     22 C         -11.5186   -5.3284   19.1383 C.ar    1  UNL1        0.0127
     23 C         -11.4923   -5.9013   17.7523 C.ar    1  UNL1        0.0578
     24 CL        -10.6343   -7.0938   17.4499 Cl      1  UNL1       -0.0822
     25 C         -12.3241   -5.2815   16.6687 C.ar    1  UNL1        0.0127
     26 C         -13.1821   -4.0890   16.9711 C.ar    1  UNL1        0.0192
     27 C         -16.0864    2.6383   19.4018 C.3     1  UNL1        0.0550
     28 C         -15.4688    3.8824   19.9681 C.3     1  UNL1        0.1533
     29 O         -14.1383    4.7342   21.3838 O.2     1  UNL1       -0.1730
     30 S         -15.5121    4.1354   21.4460 S.O2    1  UNL1       -0.0102
     31 O         -16.8860    3.5366   21.5082 O.2     1  UNL1       -0.1730
     32 C         -15.5555    4.3884   22.9239 C.3     1  UNL1        0.1461
     33 C         -14.4661    5.0140   23.7436 C.3     1  UNL1        0.0420
     34 C         -14.9332    5.0725   25.1679 C.3     1  UNL1        0.0704
     35 N         -16.3112    4.4830   25.2283 N.3     1  UNL1       -0.2960
     36 C         -16.6958    4.0602   23.8415 C.3     1  UNL1        0.0924
     37 H         -16.9711    5.1801   25.5732 H       1  UNL1        0.1233
@<TRIPOS>BOND
     1    29    30    2
     2    30    31    2
     3    30    28    1
     4    28    27    1
     5     1    27    1
     6     1     2    1
     7     2     3    1
     8     3     4    1
     9     4     5    1
    10     5    17    1
    11    17    18    2
    12    17    19    2
    13    17    20    1
    14    20    21   ar
    15    21    22   ar
    16    22    23   ar
    17    23    24    1
    18    23    25   ar
    19    25    26   ar
    20     5     6    1
    21     6     7   ar
    22     7     8    1
    23     7     9   ar
    24     9    10   ar
    25    10    11   ar
    26    11    12    1
    27    11    13   ar
    28    13    14    1
    29    14    15    1
    30    16    15    1
    31    32    30    1
    32    32    33    1
    33    33    34    1
    34    34    35    1
    35    35    36    1
    36    16     1    1
    37    36    32    1
    38    16     5    1
    39    26    20   ar
    40    13     6   ar
    41    35    37    1
