@<TRIPOS>MOLECULE
*****
 37 40 0 0 0
SMALL
GASTEIGER

@<TRIPOS>ATOM
      1 C          -9.8111  -17.2198   24.1429 C.3     1  UNL1        0.0468
      2 C         -10.2264  -18.4189   25.8149 C.3     1  UNL1        0.0069
      3 C          -9.1074  -16.6395   23.8303 C.3     1  UNL1        0.0500
      4 C          -8.9653  -16.1041   23.0409 C.3     1  UNL1        0.1694
      5 C          -9.1358  -15.4889   21.8045 C.3     1  UNL1        0.0435
      6 C          -8.4237  -14.5497   20.8768 C.3     1  UNL1        0.0040
      7 C          -9.6771  -16.0014   22.1599 C.3     1  UNL1        0.0038
      8 C          -7.6967  -15.8416   23.8378 C.3     1  UNL1        0.0001
      9 C         -10.2331  -16.5346   22.5366 C.3     1  UNL1        0.0001
     10 C         -10.8659  -16.6837   22.1706 C.3     1  UNL1        0.0005
     11 C         -11.5578  -16.8354   21.7509 C.3     1  UNL1        0.0093
     12 C         -12.6400  -16.8528   20.7124 C.3     1  UNL1        0.0082
     13 C         -12.2140  -15.9608   19.5842 C.3     1  UNL1        0.0645
     14 C         -10.8686  -15.3921   19.9254 C.2     1  UNL1        0.1504
     15 O         -10.0691  -14.4486   19.0765 O.2     1  UNL1       -0.2961
     16 C         -10.4630  -15.9327   21.2645 C.3     1  UNL1        0.0610
     17 C         -11.1671  -17.3282   22.9923 C.3     1  UNL1        0.0276
     18 C         -13.0896  -18.3970   22.9497 C.3     1  UNL1        0.0025
     19 C         -10.6643  -17.5051   23.7958 C.3     1  UNL1        0.1141
     20 O         -11.7088  -18.8827   25.1565 O.3     1  UNL1       -0.3841
     21 H         -11.1663  -19.0295   25.9471 H       1  UNL1        0.2103
     22 C          -8.3081  -16.6450   27.0163 C.2     1  UNL1       -0.0048
     23 C          -8.6306  -17.5317   25.8502 C.2     1  UNL1       -0.0243
     24 O          -7.0428  -15.0353   23.0835 O.3     1  UNL1       -0.4516
     25 C          -5.8723  -15.6259   23.8121 C.2     1  UNL1        0.3283
     26 O          -5.1529  -14.8205   24.8532 O.2     1  UNL1       -0.2491
     27 C          -5.4211  -17.0219   23.4998 C.3     1  UNL1        0.1715
     28 S          -3.9584  -17.3542   23.4963 S.3     1  UNL1       -0.1003
     29 C          -3.2936  -17.8001   22.2277 C.ar    1  UNL1        0.0461
     30 C          -3.8426  -18.9685   21.4639 C.ar    1  UNL1        0.1051
     31 N          -3.1778  -19.4143   20.1953 N.ar    1  UNL1       -0.2405
     32 C          -1.9640  -18.6918   19.6906 C.ar    1  UNL1        0.1129
     33 C          -1.4150  -17.5234   20.4544 C.ar    1  UNL1        0.0615
     34 N          -0.2013  -16.8008   19.9497 N.pl3   1  UNL1       -0.3558
     35 C          -2.0798  -17.0775   21.7230 C.ar    1  UNL1        0.0234
     36 H           0.2351  -17.0934   19.1171 H       1  UNL1        0.1424
     37 H           0.1590  -16.0340   20.4511 H       1  UNL1        0.1424
@<TRIPOS>BOND
     1    22    23    2
     2    23     1    1
     3     1     2    1
     4     1     3    1
     5     3     4    1
     6     4    24    1
     7    24    25    1
     8    25    26    2
     9    25    27    1
    10    27    28    1
    11    28    29    1
    12    29    30   ar
    13    30    31   ar
    14    31    32   ar
    15    32    33   ar
    16    33    34    1
    17    33    35   ar
    18     4     5    1
    19     5     6    1
    20     5     7    1
    21     7     8    1
    22     7     9    1
    23     9    10    1
    24    11    10    1
    25    11    12    1
    26    12    13    1
    27    13    14    1
    28    14    15    2
    29    16    14    1
    30    11    17    1
    31    17    18    1
    32    17    19    1
    33    19    20    1
    34    19     1    1
    35    35    29   ar
    36    16     5    1
    37    16    11    1
    38    34    36    1
    39    34    37    1
    40    20    21    1
@<TRIPOS>MOLECULE
*****
 37 40 0 0 0
SMALL
GASTEIGER

@<TRIPOS>ATOM
      1 C          -9.6347  -17.1973   24.3233 C.3     1  UNL1        0.0468
      2 C         -10.0568  -18.4257   25.9721 C.3     1  UNL1        0.0069
      3 C          -8.9448  -16.5871   24.0382 C.3     1  UNL1        0.0500
      4 C          -8.7982  -16.0399   23.2578 C.3     1  UNL1        0.1694
      5 C          -8.9522  -15.4218   22.0207 C.3     1  UNL1        0.0435
      6 C          -8.2479  -14.4474   21.1237 C.3     1  UNL1        0.0040
      7 C          -9.4841  -15.9582   22.3544 C.3     1  UNL1        0.0038
      8 C          -7.5680  -15.7340   24.0982 C.3     1  UNL1        0.0001
      9 C         -10.0306  -16.5161   22.7086 C.3     1  UNL1        0.0001
     10 C         -10.6445  -16.6870   22.3208 C.3     1  UNL1        0.0005
     11 C         -11.3156  -16.8626   21.8773 C.3     1  UNL1        0.0093
     12 C         -12.3615  -16.9141   20.8033 C.3     1  UNL1        0.0082
     13 C         -11.9345  -15.9966   19.6961 C.3     1  UNL1        0.0645
     14 C         -10.6247  -15.3780   20.0858 C.2     1  UNL1        0.1504
     15 O          -9.8360  -14.3966   19.2706 O.2     1  UNL1       -0.2961
     16 C         -10.2422  -15.9132   21.4339 C.3     1  UNL1        0.0610
     17 C         -10.9467  -17.3498   23.1275 C.3     1  UNL1        0.0276
     18 C         -12.8227  -18.4934   23.0136 C.3     1  UNL1        0.0025
     19 C         -10.4640  -17.5132   23.9460 C.3     1  UNL1        0.1141
     20 O         -11.4970  -18.9423   25.2616 O.3     1  UNL1       -0.3841
     21 H         -10.9754  -19.0741   26.0687 H       1  UNL1        0.2103
     22 C          -8.3250  -16.6271   27.2907 C.2     1  UNL1       -0.0048
     23 C          -8.4995  -17.4764   26.0667 C.2     1  UNL1       -0.0243
     24 O          -6.9222  -14.8963   23.3717 O.3     1  UNL1       -0.4516
     25 C          -5.7392  -15.4662   24.0966 C.2     1  UNL1        0.3283
     26 O          -5.6690  -15.3909   25.5931 O.2     1  UNL1       -0.2491
     27 C          -4.6264  -16.1114   23.3252 C.3     1  UNL1        0.1715
     28 S          -4.4116  -17.5932   23.4160 S.3     1  UNL1       -0.1003
     29 C          -5.0313  -18.5047   22.3985 C.ar    1  UNL1        0.0461
     30 C          -4.1659  -19.4271   21.5922 C.ar    1  UNL1        0.1051
     31 N          -4.7856  -20.3386   20.5747 N.ar    1  UNL1       -0.2405
     32 C          -6.2706  -20.3275   20.3636 C.ar    1  UNL1        0.1129
     33 C          -7.1360  -19.4051   21.1699 C.ar    1  UNL1        0.0615
     34 N          -8.6210  -19.3940   20.9588 N.pl3   1  UNL1       -0.3558
     35 C          -6.5163  -18.4936   22.1874 C.ar    1  UNL1        0.0234
     36 H          -9.0278  -19.9922   20.2910 H       1  UNL1        0.1424
     37 H          -9.1890  -18.7886   21.4881 H       1  UNL1        0.1424
@<TRIPOS>BOND
     1    22    23    2
     2    23     1    1
     3     1     2    1
     4     1     3    1
     5     3     4    1
     6     4    24    1
     7    24    25    1
     8    25    26    2
     9    25    27    1
    10    27    28    1
    11    28    29    1
    12    29    30   ar
    13    30    31   ar
    14    31    32   ar
    15    32    33   ar
    16    33    34    1
    17    33    35   ar
    18     4     5    1
    19     5     6    1
    20     5     7    1
    21     7     8    1
    22     7     9    1
    23     9    10    1
    24    11    10    1
    25    11    12    1
    26    12    13    1
    27    13    14    1
    28    14    15    2
    29    16    14    1
    30    11    17    1
    31    17    18    1
    32    17    19    1
    33    19    20    1
    34    19     1    1
    35    35    29   ar
    36    16     5    1
    37    16    11    1
    38    34    36    1
    39    34    37    1
    40    20    21    1
@<TRIPOS>MOLECULE
*****
 37 40 0 0 0
SMALL
GASTEIGER

@<TRIPOS>ATOM
      1 C         -11.0831   -3.8680   18.1015 C.3     1  UNL1        0.0468
      2 C          -9.3017   -4.4536   17.1585 C.3     1  UNL1        0.0069
      3 C         -11.7773   -4.2660   18.6395 C.3     1  UNL1        0.0500
      4 C         -12.5872   -3.9458   19.0535 C.3     1  UNL1        0.1694
      5 C         -13.6292   -3.1256   19.4750 C.3     1  UNL1        0.0435
      6 C         -14.8954   -3.1911   20.2765 C.3     1  UNL1        0.0040
      7 C         -12.9893   -2.8828   19.0128 C.3     1  UNL1        0.0038
      8 C         -12.5838   -5.4138   19.4512 C.3     1  UNL1        0.0001
      9 C         -12.3213   -2.6398   18.5332 C.3     1  UNL1        0.0001
     10 C         -12.2940   -1.9250   18.3216 C.3     1  UNL1        0.0005
     11 C         -12.2821   -1.1325   18.0983 C.3     1  UNL1        0.0093
     12 C         -12.6158    0.3177   17.9099 C.3     1  UNL1        0.0082
     13 C         -13.9020    0.5947   18.6304 C.3     1  UNL1        0.0645
     14 C         -14.3631   -0.6843   19.2641 C.2     1  UNL1        0.1504
     15 O         -15.6069   -0.8641   20.0829 O.2     1  UNL1       -0.2961
     16 C         -13.3619   -1.7518   18.9353 C.3     1  UNL1        0.0610
     17 C         -11.3625   -2.1340   17.8020 C.3     1  UNL1        0.0276
     18 C         -10.2932   -0.5519   16.7093 C.3     1  UNL1        0.0025
     19 C         -10.9113   -2.9848   17.7546 C.3     1  UNL1        0.1141
     20 O          -9.0542   -2.8887   16.5790 O.3     1  UNL1       -0.3841
     21 H          -8.6379   -3.7646   16.5600 H       1  UNL1        0.2103
     22 C          -9.6099   -6.6181   19.1563 C.2     1  UNL1       -0.0048
     23 C         -10.1893   -5.7668   18.0655 C.2     1  UNL1       -0.0243
     24 O         -13.6564   -5.5278   20.1462 O.3     1  UNL1       -0.4516
     25 C         -14.5107   -6.5091   19.3997 C.2     1  UNL1        0.3283
     26 O         -15.9759   -6.6114   19.7042 O.2     1  UNL1       -0.2491
     27 C         -13.8999   -7.3880   18.3489 C.3     1  UNL1        0.1715
     28 S         -14.7165   -7.8246   17.1688 S.3     1  UNL1       -0.1003
     29 C         -15.9541   -8.6466   17.3760 C.ar    1  UNL1        0.0461
     30 C         -17.2599   -8.1966   16.7908 C.ar    1  UNL1        0.1051
     31 N         -18.4974   -9.0185   16.9980 N.ar    1  UNL1       -0.2405
     32 C         -18.4292  -10.2903   17.7903 C.ar    1  UNL1        0.1129
     33 C         -17.1234  -10.7403   18.3754 C.ar    1  UNL1        0.0615
     34 N         -17.0551  -12.0122   19.1677 N.pl3   1  UNL1       -0.3558
     35 C         -15.8858   -9.9184   18.1683 C.ar    1  UNL1        0.0234
     36 H         -17.8674  -12.5516   19.3037 H       1  UNL1        0.1424
     37 H         -16.1981  -12.3075   19.5518 H       1  UNL1        0.1424
@<TRIPOS>BOND
     1    22    23    2
     2    23     1    1
     3     1     2    1
     4     1     3    1
     5     3     4    1
     6     4    24    1
     7    24    25    1
     8    25    26    2
     9    25    27    1
    10    27    28    1
    11    28    29    1
    12    29    30   ar
    13    30    31   ar
    14    31    32   ar
    15    32    33   ar
    16    33    34    1
    17    33    35   ar
    18     4     5    1
    19     5     6    1
    20     5     7    1
    21     7     8    1
    22     7     9    1
    23     9    10    1
    24    11    10    1
    25    11    12    1
    26    12    13    1
    27    13    14    1
    28    14    15    2
    29    16    14    1
    30    11    17    1
    31    17    18    1
    32    17    19    1
    33    19    20    1
    34    19     1    1
    35    35    29   ar
    36    16     5    1
    37    16    11    1
    38    34    36    1
    39    34    37    1
    40    20    21    1
@<TRIPOS>MOLECULE
*****
 37 40 0 0 0
SMALL
GASTEIGER

@<TRIPOS>ATOM
      1 C          -9.7205  -18.1084   21.0100 C.3     1  UNL1        0.0468
      2 C         -11.4195  -18.6072   19.8829 C.3     1  UNL1        0.0069
      3 C          -8.7733  -18.2888   21.0026 C.3     1  UNL1        0.0500
      4 C          -8.0255  -18.0297   21.5535 C.3     1  UNL1        0.1694
      5 C          -7.2492  -17.4521   22.5535 C.3     1  UNL1        0.0435
      6 C          -5.8222  -17.3858   23.0110 C.3     1  UNL1        0.0040
      7 C          -8.0658  -17.3601   22.4718 C.3     1  UNL1        0.0038
      8 C          -7.3608  -18.9085   20.5051 C.3     1  UNL1        0.0001
      9 C          -8.9136  -17.2703   22.3791 C.3     1  UNL1        0.0001
     10 C          -9.2692  -16.8448   22.8781 C.3     1  UNL1        0.0005
     11 C          -9.6432  -16.3716   23.4386 C.3     1  UNL1        0.0093
     12 C          -9.9353  -15.4759   24.6058 C.3     1  UNL1        0.0082
     13 C          -8.6423  -15.2030   25.3156 C.3     1  UNL1        0.0645
     14 C          -7.5511  -15.9300   24.5870 C.2     1  UNL1        0.1504
     15 O          -6.0967  -15.9340   24.9540 O.2     1  UNL1       -0.2961
     16 C          -8.1697  -16.6522   23.4269 C.3     1  UNL1        0.0610
     17 C         -10.2018  -17.0475   22.3580 C.3     1  UNL1        0.0276
     18 C         -12.1021  -16.1898   23.0607 C.3     1  UNL1        0.0025
     19 C         -10.3122  -17.5942   21.5715 C.3     1  UNL1        0.1141
     20 O         -12.4052  -17.6913   20.9006 O.3     1  UNL1       -0.3841
     21 H         -12.4657  -18.2502   20.1101 H       1  UNL1        0.2103
     22 C          -8.9173  -20.3635   18.7484 C.2     1  UNL1       -0.0048
     23 C          -9.8421  -19.3192   19.2997 C.2     1  UNL1       -0.0243
     24 O          -6.1253  -18.8874   20.8509 O.3     1  UNL1       -0.4516
     25 C          -5.8479  -20.3496   21.0374 C.2     1  UNL1        0.3283
     26 O          -6.3768  -21.0652   22.2449 O.2     1  UNL1       -0.2491
     27 C          -5.0416  -21.0962   20.0165 C.3     1  UNL1        0.1715
     28 S          -3.6199  -20.7004   19.7478 S.3     1  UNL1       -0.1003
     29 C          -3.0995  -19.3863   20.2502 C.ar    1  UNL1        0.0461
     30 C          -2.9595  -18.2261   19.3098 C.ar    1  UNL1        0.1051
     31 N          -2.4391  -16.9120   19.8122 N.ar    1  UNL1       -0.2405
     32 C          -2.0587  -16.7582   21.2550 C.ar    1  UNL1        0.1129
     33 C          -2.1986  -17.9184   22.1954 C.ar    1  UNL1        0.0615
     34 N          -1.8182  -17.7646   23.6382 N.pl3   1  UNL1       -0.3558
     35 C          -2.7190  -19.2325   21.6930 C.ar    1  UNL1        0.0234
     36 H          -1.4766  -16.9022   23.9680 H       1  UNL1        0.1424
     37 H          -1.9100  -18.5261   24.2554 H       1  UNL1        0.1424
@<TRIPOS>BOND
     1    22    23    2
     2    23     1    1
     3     1     2    1
     4     1     3    1
     5     3     4    1
     6     4    24    1
     7    24    25    1
     8    25    26    2
     9    25    27    1
    10    27    28    1
    11    28    29    1
    12    29    30   ar
    13    30    31   ar
    14    31    32   ar
    15    32    33   ar
    16    33    34    1
    17    33    35   ar
    18     4     5    1
    19     5     6    1
    20     5     7    1
    21     7     8    1
    22     7     9    1
    23     9    10    1
    24    11    10    1
    25    11    12    1
    26    12    13    1
    27    13    14    1
    28    14    15    2
    29    16    14    1
    30    11    17    1
    31    17    18    1
    32    17    19    1
    33    19    20    1
    34    19     1    1
    35    35    29   ar
    36    16     5    1
    37    16    11    1
    38    34    36    1
    39    34    37    1
    40    20    21    1
@<TRIPOS>MOLECULE
*****
 37 40 0 0 0
SMALL
GASTEIGER

@<TRIPOS>ATOM
      1 C           4.3894   -2.3935   22.2485 C.3     1  UNL1        0.0468
      2 C           5.7574   -3.5904   23.2981 C.3     1  UNL1        0.0069
      3 C           4.0902   -2.2696   21.3403 C.3     1  UNL1        0.0500
      4 C           3.4481   -1.6959   20.9062 C.3     1  UNL1        0.1694
      5 C           2.4695   -0.7345   20.6731 C.3     1  UNL1        0.0435
      6 C           1.6770   -0.1472   19.5430 C.3     1  UNL1        0.0040
      7 C           2.7917   -0.9166   21.4113 C.3     1  UNL1        0.0038
      8 C           3.9984   -2.5005   19.7388 C.3     1  UNL1        0.0001
      9 C           3.1320   -1.1124   22.1737 C.3     1  UNL1        0.0001
     10 C           2.8827   -0.7348   22.7669 C.3     1  UNL1        0.0005
     11 C           2.5944   -0.3072   23.4088 C.3     1  UNL1        0.0093
     12 C           1.8376    0.6502   24.2808 C.3     1  UNL1        0.0082
     13 C           0.9044    1.4346   23.4069 C.3     1  UNL1        0.0645
     14 C           1.0844    0.9620   21.9947 C.2     1  UNL1        0.1504
     15 O           0.3491    1.4757   20.7925 O.2     1  UNL1       -0.2961
     16 C           2.1290   -0.1146   21.9959 C.3     1  UNL1        0.0610
     17 C           3.5617   -1.3076   23.3931 C.3     1  UNL1        0.0276
     18 C           3.6608   -0.9684   25.5646 C.3     1  UNL1        0.0025
     19 C           4.1705   -1.9949   23.0989 C.3     1  UNL1        0.1141
     20 O           5.3328   -2.8562   24.7564 O.3     1  UNL1       -0.3841
     21 H           5.9284   -3.5402   24.4125 H       1  UNL1        0.2103
     22 C           6.9579   -3.7802   20.7235 C.2     1  UNL1       -0.0048
     23 C           5.6751   -3.8719   21.4956 C.2     1  UNL1       -0.0243
     24 O           3.3490   -2.0351   18.7347 O.3     1  UNL1       -0.4516
     25 C           4.5276   -1.7018   17.8689 C.2     1  UNL1        0.3283
     26 O           5.6034   -2.7221   17.6415 O.2     1  UNL1       -0.2491
     27 C           4.6305   -0.3484   17.2306 C.3     1  UNL1        0.1715
     28 S           5.5872    0.6686   17.7788 S.3     1  UNL1       -0.1003
     29 C           5.5933    0.9779   19.2466 C.ar    1  UNL1        0.0461
     30 C           4.6878    2.0418   19.7926 C.ar    1  UNL1        0.1051
     31 N           4.6939    2.3511   21.2604 N.ar    1  UNL1       -0.2405
     32 C           5.6057    1.5965   22.1820 C.ar    1  UNL1        0.1129
     33 C           6.5112    0.5327   21.6360 C.ar    1  UNL1        0.0615
     34 N           7.4230   -0.2219   22.5576 N.pl3   1  UNL1       -0.3558
     35 C           6.5051    0.2234   20.1682 C.ar    1  UNL1        0.0234
     36 H           7.4270   -0.0189   23.5210 H       1  UNL1        0.1424
     37 H           8.0173   -0.9201   22.1992 H       1  UNL1        0.1424
@<TRIPOS>BOND
     1    22    23    2
     2    23     1    1
     3     1     2    1
     4     1     3    1
     5     3     4    1
     6     4    24    1
     7    24    25    1
     8    25    26    2
     9    25    27    1
    10    27    28    1
    11    28    29    1
    12    29    30   ar
    13    30    31   ar
    14    31    32   ar
    15    32    33   ar
    16    33    34    1
    17    33    35   ar
    18     4     5    1
    19     5     6    1
    20     5     7    1
    21     7     8    1
    22     7     9    1
    23     9    10    1
    24    11    10    1
    25    11    12    1
    26    12    13    1
    27    13    14    1
    28    14    15    2
    29    16    14    1
    30    11    17    1
    31    17    18    1
    32    17    19    1
    33    19    20    1
    34    19     1    1
    35    35    29   ar
    36    16     5    1
    37    16    11    1
    38    34    36    1
    39    34    37    1
    40    20    21    1
@<TRIPOS>MOLECULE
*****
 37 40 0 0 0
SMALL
GASTEIGER

@<TRIPOS>ATOM
      1 C           2.1386   -0.3874   21.2267 C.3     1  UNL1        0.0468
      2 C           0.6007    1.0101   20.9311 C.3     1  UNL1        0.0069
      3 C           2.6516   -1.0145   20.7040 C.3     1  UNL1        0.0500
      4 C           3.3582   -1.6428   20.8934 C.3     1  UNL1        0.1694
      5 C           4.3236   -2.3973   21.5529 C.3     1  UNL1        0.0435
      6 C           5.3503   -3.4541   21.2723 C.3     1  UNL1        0.0040
      7 C           3.8336   -1.8355   21.9084 C.3     1  UNL1        0.0038
      8 C           3.1532   -1.8335   19.3985 C.3     1  UNL1        0.0001
      9 C           3.3206   -1.2505   22.2688 C.3     1  UNL1        0.0001
     10 C           3.3967   -1.1336   23.0016 C.3     1  UNL1        0.0005
     11 C           3.4962   -1.0193   23.8109 C.3     1  UNL1        0.0093
     12 C           3.9689   -1.1043   25.2319 C.3     1  UNL1        0.0082
     13 C           5.0592   -2.1325   25.2969 C.3     1  UNL1        0.0645
     14 C           5.2602   -2.6829   23.9160 C.2     1  UNL1        0.1504
     15 O           6.2529   -3.7363   23.5227 O.2     1  UNL1       -0.2961
     16 C           4.2942   -1.9948   22.9977 C.3     1  UNL1        0.0610
     17 C           2.6059   -0.3900   22.9460 C.3     1  UNL1        0.0276
     18 C           1.9492    0.7038   24.7384 C.3     1  UNL1        0.0025
     19 C           2.1197   -0.1287   22.1555 C.3     1  UNL1        0.1141
     20 O           0.6138    1.4214   22.5672 O.3     1  UNL1       -0.3841
     21 H           0.1526    1.6505   21.7452 H       1  UNL1        0.2103
     22 C           1.5661    0.9223   18.2598 C.2     1  UNL1       -0.0048
     23 C           1.1459    0.1022   19.4433 C.2     1  UNL1       -0.0243
     24 O           4.0149   -2.7366   19.1011 O.3     1  UNL1       -0.4516
     25 C           4.7599   -2.0185   18.0151 C.2     1  UNL1        0.3283
     26 O           4.0126   -1.4322   16.8542 O.2     1  UNL1       -0.2491
     27 C           6.2522   -1.8867   18.0901 C.3     1  UNL1        0.1715
     28 S           6.8725   -0.5607   18.4173 S.3     1  UNL1       -0.1003
     29 C           6.3089    0.2779   19.5260 C.ar    1  UNL1        0.0461
     30 C           5.2251    1.2737   19.2364 C.ar    1  UNL1        0.1051
     31 N           4.6615    2.1123   20.3450 N.ar    1  UNL1       -0.2405
     32 C           5.1815    1.9551   21.7431 C.ar    1  UNL1        0.1129
     33 C           6.2652    0.9592   22.0327 C.ar    1  UNL1        0.0615
     34 N           6.7853    0.8020   23.4309 N.pl3   1  UNL1       -0.3558
     35 C           6.8289    0.1206   20.9241 C.ar    1  UNL1        0.0234
     36 H           6.4153    1.3523   24.1585 H       1  UNL1        0.1424
     37 H           7.4966    0.1483   23.6209 H       1  UNL1        0.1424
@<TRIPOS>BOND
     1    22    23    2
     2    23     1    1
     3     1     2    1
     4     1     3    1
     5     3     4    1
     6     4    24    1
     7    24    25    1
     8    25    26    2
     9    25    27    1
    10    27    28    1
    11    28    29    1
    12    29    30   ar
    13    30    31   ar
    14    31    32   ar
    15    32    33   ar
    16    33    34    1
    17    33    35   ar
    18     4     5    1
    19     5     6    1
    20     5     7    1
    21     7     8    1
    22     7     9    1
    23     9    10    1
    24    11    10    1
    25    11    12    1
    26    12    13    1
    27    13    14    1
    28    14    15    2
    29    16    14    1
    30    11    17    1
    31    17    18    1
    32    17    19    1
    33    19    20    1
    34    19     1    1
    35    35    29   ar
    36    16     5    1
    37    16    11    1
    38    34    36    1
    39    34    37    1
    40    20    21    1
@<TRIPOS>MOLECULE
*****
 37 40 0 0 0
SMALL
GASTEIGER

@<TRIPOS>ATOM
      1 C          -9.0592  -16.6637   22.9884 C.3     1  UNL1        0.0468
      2 C         -10.0271  -15.2666   24.2201 C.3     1  UNL1        0.0069
      3 C          -8.1801  -17.0464   22.8866 C.3     1  UNL1        0.0500
      4 C          -7.7833  -17.6955   22.2941 C.3     1  UNL1        0.1694
      5 C          -7.6002  -18.6360   21.2851 C.3     1  UNL1        0.0435
      6 C          -6.5260  -19.5046   20.7006 C.3     1  UNL1        0.0040
      7 C          -8.3111  -18.2513   21.4539 C.3     1  UNL1        0.0038
      8 C          -6.6092  -17.3139   23.1823 C.3     1  UNL1        0.0001
      9 C          -9.0449  -17.8468   21.6364 C.3     1  UNL1        0.0001
     10 C          -9.6400  -18.0123   21.2181 C.3     1  UNL1        0.0005
     11 C         -10.2850  -18.2087   20.7454 C.3     1  UNL1        0.0093
     12 C         -11.1783  -18.8166   19.7051 C.3     1  UNL1        0.0082
     13 C         -10.3627  -19.7876   18.9039 C.3     1  UNL1        0.0645
     14 C          -8.9653  -19.7798   19.4490 C.2     1  UNL1        0.1504
     15 O          -7.8175  -20.6032   18.9446 O.2     1  UNL1       -0.2961
     16 C          -8.9172  -18.8039   20.5872 C.3     1  UNL1        0.0610
     17 C         -10.2240  -17.3069   21.8035 C.3     1  UNL1        0.0276
     18 C         -12.3552  -16.9677   21.3751 C.3     1  UNL1        0.0025
     19 C          -9.9059  -16.7717   22.5397 C.3     1  UNL1        0.1141
     20 O         -11.4815  -15.4977   23.3970 O.3     1  UNL1       -0.3841
     21 H         -11.1151  -14.9804   24.1312 H       1  UNL1        0.2103
     22 C          -7.9671  -15.9091   26.0023 C.2     1  UNL1       -0.0048
     23 C          -8.2581  -15.5482   24.5757 C.2     1  UNL1       -0.0243
     24 O          -5.6523  -18.0346   22.7225 O.3     1  UNL1       -0.4516
     25 C          -4.8310  -16.9475   23.3499 C.2     1  UNL1        0.3283
     26 O          -5.2676  -15.5170   23.2357 O.2     1  UNL1       -0.2491
     27 C          -3.5733  -17.2908   24.0915 C.3     1  UNL1        0.1715
     28 S          -2.3509  -17.7213   23.3362 S.3     1  UNL1       -0.1003
     29 C          -2.4872  -18.3218   21.9684 C.ar    1  UNL1        0.0461
     30 C          -2.9272  -19.7477   21.8158 C.ar    1  UNL1        0.1051
     31 N          -3.0635  -20.3482   20.4480 N.ar    1  UNL1       -0.2405
     32 C          -2.7598  -19.5228   19.2329 C.ar    1  UNL1        0.1129
     33 C          -2.3198  -18.0970   19.3854 C.ar    1  UNL1        0.0615
     34 N          -2.0161  -17.2716   18.1703 N.pl3   1  UNL1       -0.3558
     35 C          -2.1835  -17.4964   20.7532 C.ar    1  UNL1        0.0234
     36 H          -2.1056  -17.6657   17.2726 H       1  UNL1        0.1424
     37 H          -1.7273  -16.3358   18.2705 H       1  UNL1        0.1424
@<TRIPOS>BOND
     1    22    23    2
     2    23     1    1
     3     1     2    1
     4     1     3    1
     5     3     4    1
     6     4    24    1
     7    24    25    1
     8    25    26    2
     9    25    27    1
    10    27    28    1
    11    28    29    1
    12    29    30   ar
    13    30    31   ar
    14    31    32   ar
    15    32    33   ar
    16    33    34    1
    17    33    35   ar
    18     4     5    1
    19     5     6    1
    20     5     7    1
    21     7     8    1
    22     7     9    1
    23     9    10    1
    24    11    10    1
    25    11    12    1
    26    12    13    1
    27    13    14    1
    28    14    15    2
    29    16    14    1
    30    11    17    1
    31    17    18    1
    32    17    19    1
    33    19    20    1
    34    19     1    1
    35    35    29   ar
    36    16     5    1
    37    16    11    1
    38    34    36    1
    39    34    37    1
    40    20    21    1
@<TRIPOS>MOLECULE
*****
 37 40 0 0 0
SMALL
GASTEIGER

@<TRIPOS>ATOM
      1 C           3.6189   -2.0445   21.3466 C.3     1  UNL1        0.0468
      2 C           2.6871   -1.7592   19.4875 C.3     1  UNL1        0.0069
      3 C           4.2879   -2.6196   21.7357 C.3     1  UNL1        0.0500
      4 C           4.6851   -2.7093   22.6098 C.3     1  UNL1        0.1694
      5 C           4.9968   -2.5222   23.9530 C.3     1  UNL1        0.0435
      6 C           5.8944   -3.0819   25.0165 C.3     1  UNL1        0.0040
      7 C           4.4407   -2.0840   23.5278 C.3     1  UNL1        0.0038
      8 C           5.3999   -3.7956   21.8210 C.3     1  UNL1        0.0001
      9 C           3.8653   -1.6343   23.0783 C.3     1  UNL1        0.0001
     10 C           3.4975   -1.0936   23.4373 C.3     1  UNL1        0.0005
     11 C           3.1022   -0.5017   23.8512 C.3     1  UNL1        0.0093
     12 C           2.6220    0.4381   24.9171 C.3     1  UNL1        0.0082
     13 C           3.3659    0.1241   26.1813 C.3     1  UNL1        0.0645
     14 C           4.3059   -1.0096   25.8966 C.2     1  UNL1        0.1504
     15 O           5.2441   -1.6450   26.8795 O.2     1  UNL1       -0.2961
     16 C           4.1429   -1.3964   24.4566 C.3     1  UNL1        0.0610
     17 C           2.9628   -0.8725   22.5172 C.3     1  UNL1        0.0276
     18 C           1.4590    0.7314   22.4365 C.3     1  UNL1        0.0025
     19 C           3.0700   -1.3207   21.6703 C.3     1  UNL1        0.1141
     20 O           1.7535   -0.4998   20.1105 O.3     1  UNL1       -0.3841
     21 H           1.8968   -0.9807   19.2804 H       1  UNL1        0.2103
     22 C           3.6071   -4.4966   19.1482 C.2     1  UNL1       -0.0048
     23 C           3.9354   -3.0905   19.5545 C.2     1  UNL1       -0.0243
     24 O           6.1889   -4.3131   22.6906 O.3     1  UNL1       -0.4516
     25 C           7.4638   -4.1858   21.9107 C.2     1  UNL1        0.3283
     26 O           7.8364   -5.2356   20.9062 O.2     1  UNL1       -0.2491
     27 C           8.3661   -3.0089   22.1353 C.3     1  UNL1        0.1715
     28 S           8.8534   -2.2038   20.9672 S.3     1  UNL1       -0.1003
     29 C           7.8739   -1.6624   19.9685 C.ar    1  UNL1        0.0461
     30 C           7.8019   -2.2540   18.5920 C.ar    1  UNL1        0.1051
     31 N           6.8223   -1.7127   17.5933 N.ar    1  UNL1       -0.2405
     32 C           5.9148   -0.5796   17.9711 C.ar    1  UNL1        0.1129
     33 C           5.9868    0.0120   19.3476 C.ar    1  UNL1        0.0615
     34 N           5.0794    1.1451   19.7254 N.pl3   1  UNL1       -0.3558
     35 C           6.9664   -0.5293   20.3463 C.ar    1  UNL1        0.0234
     36 H           4.4364    1.5004   19.0699 H       1  UNL1        0.1424
     37 H           5.1267    1.5334   20.6289 H       1  UNL1        0.1424
@<TRIPOS>BOND
     1    22    23    2
     2    23     1    1
     3     1     2    1
     4     1     3    1
     5     3     4    1
     6     4    24    1
     7    24    25    1
     8    25    26    2
     9    25    27    1
    10    27    28    1
    11    28    29    1
    12    29    30   ar
    13    30    31   ar
    14    31    32   ar
    15    32    33   ar
    16    33    34    1
    17    33    35   ar
    18     4     5    1
    19     5     6    1
    20     5     7    1
    21     7     8    1
    22     7     9    1
    23     9    10    1
    24    11    10    1
    25    11    12    1
    26    12    13    1
    27    13    14    1
    28    14    15    2
    29    16    14    1
    30    11    17    1
    31    17    18    1
    32    17    19    1
    33    19    20    1
    34    19     1    1
    35    35    29   ar
    36    16     5    1
    37    16    11    1
    38    34    36    1
    39    34    37    1
    40    20    21    1
@<TRIPOS>MOLECULE
*****
 37 40 0 0 0
SMALL
GASTEIGER

@<TRIPOS>ATOM
      1 C          -6.3403  -17.6450   22.9471 C.3     1  UNL1        0.0468
      2 C          -6.7906  -16.0588   24.2460 C.3     1  UNL1        0.0069
      3 C          -6.8124  -18.3038   22.4249 C.3     1  UNL1        0.0500
      4 C          -6.5519  -19.0214   21.8358 C.3     1  UNL1        0.1694
      5 C          -5.7946  -19.9181   21.0883 C.3     1  UNL1        0.0435
      6 C          -5.9728  -21.0769   20.1527 C.3     1  UNL1        0.0040
      7 C          -5.4878  -19.3188   21.5665 C.3     1  UNL1        0.0038
      8 C          -8.0696  -19.1140   21.8005 C.3     1  UNL1        0.0001
      9 C          -5.1782  -18.6939   22.0655 C.3     1  UNL1        0.0001
     10 C          -4.4367  -18.6224   22.1041 C.3     1  UNL1        0.0005
     11 C          -3.6162  -18.5599   22.1332 C.3     1  UNL1        0.0093
     12 C          -2.1457  -18.7697   21.9244 C.3     1  UNL1        0.0082
     13 C          -1.9714  -19.9243   20.9829 C.3     1  UNL1        0.0645
     14 C          -3.3341  -20.4281   20.6099 C.2     1  UNL1        0.1504
     15 O          -3.6286  -21.5740   19.6878 O.2     1  UNL1       -0.2961
     16 C          -4.3507  -19.5848   21.3208 C.3     1  UNL1        0.0610
     17 C          -4.5717  -17.7867   22.7858 C.3     1  UNL1        0.0276
     18 C          -2.8424  -16.7086   23.6152 C.3     1  UNL1        0.0025
     19 C          -5.4121  -17.4307   23.0966 C.3     1  UNL1        0.1141
     20 O          -5.1508  -15.7311   24.4689 O.3     1  UNL1       -0.3841
     21 H          -6.0202  -15.4087   24.7534 H       1  UNL1        0.2103
     22 C          -9.2531  -16.1106   22.8618 C.2     1  UNL1       -0.0048
     23 C          -8.2259  -16.9537   23.5575 C.2     1  UNL1       -0.0243
     24 O          -8.2811  -20.0995   21.0064 O.3     1  UNL1       -0.4516
     25 C          -9.0195  -19.5387   19.8273 C.2     1  UNL1        0.3283
     26 O          -8.2583  -18.9561   18.6736 O.2     1  UNL1       -0.2491
     27 C         -10.5190  -19.5605   19.8020 C.3     1  UNL1        0.1715
     28 S         -11.2955  -18.4021   20.3545 S.3     1  UNL1       -0.1003
     29 C         -11.7862  -18.4357   21.7716 C.ar    1  UNL1        0.0461
     30 C         -13.0403  -17.7043   22.1486 C.ar    1  UNL1        0.1051
     31 N         -13.5310  -17.7380   23.5657 N.ar    1  UNL1       -0.2405
     32 C         -12.7675  -18.5030   24.6057 C.ar    1  UNL1        0.1129
     33 C         -11.5133  -19.2344   24.2288 C.ar    1  UNL1        0.0615
     34 N         -10.7498  -19.9995   25.2689 N.pl3   1  UNL1       -0.3558
     35 C         -11.0226  -19.2008   22.8117 C.ar    1  UNL1        0.0234
     36 H         -11.0719  -20.0216   26.1990 H       1  UNL1        0.1424
     37 H          -9.9267  -20.4795   25.0215 H       1  UNL1        0.1424
@<TRIPOS>BOND
     1    22    23    2
     2    23     1    1
     3     1     2    1
     4     1     3    1
     5     3     4    1
     6     4    24    1
     7    24    25    1
     8    25    26    2
     9    25    27    1
    10    27    28    1
    11    28    29    1
    12    29    30   ar
    13    30    31   ar
    14    31    32   ar
    15    32    33   ar
    16    33    34    1
    17    33    35   ar
    18     4     5    1
    19     5     6    1
    20     5     7    1
    21     7     8    1
    22     7     9    1
    23     9    10    1
    24    11    10    1
    25    11    12    1
    26    12    13    1
    27    13    14    1
    28    14    15    2
    29    16    14    1
    30    11    17    1
    31    17    18    1
    32    17    19    1
    33    19    20    1
    34    19     1    1
    35    35    29   ar
    36    16     5    1
    37    16    11    1
    38    34    36    1
    39    34    37    1
    40    20    21    1
