@<TRIPOS>MOLECULE
*****
 31 34 0 0 0
SMALL
GASTEIGER

@<TRIPOS>ATOM
      1 C          -9.1497  -19.8599   22.2712 C.ar    1  UNL1        0.0376
      2 C         -10.3731  -20.0483   21.4239 C.ar    1  UNL1        0.0143
      3 C         -10.2371  -19.1738   20.2127 C.ar    1  UNL1        0.0198
      4 C          -8.9298  -18.4451   20.3115 C.ar    1  UNL1        0.0761
      5 N          -8.2577  -18.8691   21.5837 N.ar    1  UNL1       -0.3238
      6 C          -6.9272  -18.3870   22.0811 C.3     1  UNL1        0.1297
      7 C          -6.9714  -17.2558   23.0652 C.ar    1  UNL1       -0.0016
      8 C          -8.3818  -16.8336   23.3520 C.ar    1  UNL1       -0.0024
      9 C          -8.6487  -15.7136   24.3134 C.ar    1  UNL1       -0.0003
     10 C          -7.5050  -15.0158   24.9881 C.ar    1  UNL1       -0.0003
     11 C          -6.0945  -15.4381   24.7014 C.ar    1  UNL1       -0.0045
     12 C          -5.8277  -16.5580   23.7399 C.ar    1  UNL1       -0.0237
     13 C          -4.3575  -16.8192   23.5971 C.3     1  UNL1        0.0308
     14 C          -3.6678  -17.8425   22.7444 C.3     1  UNL1        0.0308
     15 C          -4.2781  -18.8575   21.8239 C.ar    1  UNL1       -0.0237
     16 C          -3.2269  -19.6933   21.1557 C.ar    1  UNL1       -0.0045
     17 C          -3.6263  -20.7714   20.1922 C.ar    1  UNL1       -0.0003
     18 C          -5.0768  -21.0137   19.8970 C.ar    1  UNL1       -0.0003
     19 C          -6.1280  -20.1780   20.5652 C.ar    1  UNL1       -0.0024
     20 C          -5.7287  -19.0999   21.5286 C.ar    1  UNL1       -0.0016
     21 C          -8.8679  -20.5427   23.5767 C.3     1  UNL1        0.0438
     22 C          -9.9142  -20.5676   24.6513 C.3     1  UNL1        0.0062
     23 C         -10.3215  -19.2941   25.3311 C.3     1  UNL1        0.0004
     24 C         -11.2545  -18.3420   24.6433 C.3     1  UNL1        0.0000
     25 C         -12.7263  -18.6291   24.6069 C.3     1  UNL1        0.0000
     26 C         -13.5842  -18.0145   23.5409 C.3     1  UNL1        0.0000
     27 C         -12.9695  -17.5710   22.2466 C.3     1  UNL1        0.0000
     28 C         -12.4759  -16.1627   22.0943 C.3     1  UNL1        0.0000
     29 C         -11.0911  -15.9048   21.5789 C.3     1  UNL1        0.0000
     30 C         -11.9310  -15.7352   19.1262 C.3     1  UNL1        0.0000
     31 C         -10.8907  -15.4421   20.1663 C.3     1  UNL1        0.0000
@<TRIPOS>BOND
     1    30    31    1
     2    31    29    1
     3    29    28    1
     4    28    27    1
     5    27    26    1
     6    26    25    1
     7    25    24    1
     8    24    23    1
     9    23    22    1
    10    22    21    1
    11    21     1    1
    12     1     2   ar
    13     2     3   ar
    14     3     4   ar
    15     4     5   ar
    16     5     6    1
    17     6     7    1
    18     7     8   ar
    19     8     9   ar
    20     9    10   ar
    21    10    11   ar
    22    11    12   ar
    23    12    13    1
    24    13    14    1
    25    14    15    1
    26    15    16   ar
    27    16    17   ar
    28    17    18   ar
    29    18    19   ar
    30    19    20   ar
    31     5     1   ar
    32    20     6    1
    33    12     7   ar
    34    20    15   ar
@<TRIPOS>MOLECULE
*****
 31 34 0 0 0
SMALL
GASTEIGER

@<TRIPOS>ATOM
      1 C          -9.1732  -19.8268   22.2739 C.ar    1  UNL1        0.0376
      2 C         -10.3664  -20.0403   21.3903 C.ar    1  UNL1        0.0143
      3 C         -10.1988  -19.1840   20.1702 C.ar    1  UNL1        0.0198
      4 C          -8.9022  -18.4412   20.2997 C.ar    1  UNL1        0.0761
      5 N          -8.2682  -18.8385   21.5999 N.ar    1  UNL1       -0.3238
      6 C          -6.9592  -18.3358   22.1325 C.3     1  UNL1        0.1297
      7 C          -5.7345  -19.0194   21.6006 C.ar    1  UNL1       -0.0016
      8 C          -6.0906  -20.0950   20.6177 C.ar    1  UNL1       -0.0024
      9 C          -5.0082  -20.9032   19.9655 C.ar    1  UNL1       -0.0003
     10 C          -3.5698  -20.6358   20.2964 C.ar    1  UNL1       -0.0003
     11 C          -3.2138  -19.5602   21.2793 C.ar    1  UNL1       -0.0045
     12 C          -4.2961  -18.7520   21.9315 C.ar    1  UNL1       -0.0237
     13 C          -3.7272  -17.7349   22.8759 C.3     1  UNL1        0.0308
     14 C          -4.4560  -16.7341   23.7227 C.3     1  UNL1        0.0308
     15 C          -5.9339  -16.5031   23.8342 C.ar    1  UNL1       -0.0237
     16 C          -6.2446  -15.3986   24.8003 C.ar    1  UNL1       -0.0045
     17 C          -7.6693  -15.0068   25.0588 C.ar    1  UNL1       -0.0003
     18 C          -8.7833  -15.7196   24.3511 C.ar    1  UNL1       -0.0003
     19 C          -8.4726  -16.8242   23.3850 C.ar    1  UNL1       -0.0024
     20 C          -7.0480  -17.2159   23.1265 C.ar    1  UNL1       -0.0016
     21 C          -8.9281  -20.4859   23.5988 C.3     1  UNL1        0.0438
     22 C         -10.0010  -20.4846   24.6471 C.3     1  UNL1        0.0062
     23 C         -10.3075  -19.2269   25.4050 C.3     1  UNL1        0.0004
     24 C         -11.3558  -18.2819   24.8971 C.3     1  UNL1        0.0000
     25 C         -12.7652  -18.7580   24.7054 C.3     1  UNL1        0.0000
     26 C         -13.6608  -18.0717   23.7169 C.3     1  UNL1        0.0000
     27 C         -13.0753  -17.4273   22.4956 C.3     1  UNL1        0.0000
     28 C         -11.9780  -16.4141   22.6352 C.3     1  UNL1        0.0000
     29 C         -11.3298  -15.8371   21.4118 C.3     1  UNL1        0.0000
     30 C         -11.4891  -15.3742   18.8603 C.3     1  UNL1        0.0000
     31 C         -11.8189  -16.2279   20.0488 C.3     1  UNL1        0.0000
@<TRIPOS>BOND
     1    30    31    1
     2    31    29    1
     3    29    28    1
     4    28    27    1
     5    27    26    1
     6    26    25    1
     7    25    24    1
     8    24    23    1
     9    23    22    1
    10    22    21    1
    11    21     1    1
    12     1     2   ar
    13     2     3   ar
    14     3     4   ar
    15     4     5   ar
    16     5     6    1
    17     6     7    1
    18     7     8   ar
    19     8     9   ar
    20     9    10   ar
    21    10    11   ar
    22    11    12   ar
    23    12    13    1
    24    13    14    1
    25    14    15    1
    26    15    16   ar
    27    16    17   ar
    28    17    18   ar
    29    18    19   ar
    30    19    20   ar
    31     5     1   ar
    32    20     6    1
    33    12     7   ar
    34    20    15   ar
@<TRIPOS>MOLECULE
*****
 31 34 0 0 0
SMALL
GASTEIGER

@<TRIPOS>ATOM
      1 C          -7.8649  -16.4004   24.2275 C.ar    1  UNL1        0.0376
      2 C          -7.8252  -16.2962   25.7233 C.ar    1  UNL1        0.0143
      3 C          -8.7938  -17.2954   26.2834 C.ar    1  UNL1        0.0198
      4 C          -9.4320  -18.0170   25.1337 C.ar    1  UNL1        0.0761
      5 N          -8.8579  -17.4639   23.8630 N.ar    1  UNL1       -0.3238
      6 C          -9.2143  -17.8981   22.4721 C.3     1  UNL1        0.1297
      7 C         -10.4878  -17.3300   21.9193 C.ar    1  UNL1       -0.0016
      8 C         -11.1557  -16.4194   22.9065 C.ar    1  UNL1       -0.0024
      9 C         -12.4473  -15.7452   22.5502 C.ar    1  UNL1       -0.0003
     10 C         -13.0711  -15.9817   21.2067 C.ar    1  UNL1       -0.0003
     11 C         -12.4032  -16.8923   20.2195 C.ar    1  UNL1       -0.0045
     12 C         -11.1115  -17.5665   20.5758 C.ar    1  UNL1       -0.0237
     13 C         -10.6158  -18.4293   19.4534 C.3     1  UNL1        0.0308
     14 C          -9.3740  -19.2688   19.3971 C.3     1  UNL1        0.0308
     15 C          -8.3211  -19.4528   20.4496 C.ar    1  UNL1       -0.0237
     16 C          -7.2395  -20.3829   19.9860 C.ar    1  UNL1       -0.0045
     17 C          -6.0868  -20.7030   20.8909 C.ar    1  UNL1       -0.0003
     18 C          -6.0157  -20.0930   22.2593 C.ar    1  UNL1       -0.0003
     19 C          -7.0973  -19.1629   22.7230 C.ar    1  UNL1       -0.0024
     20 C          -8.2500  -18.8428   21.8181 C.ar    1  UNL1       -0.0016
     21 C          -7.0538  -15.5843   23.2651 C.3     1  UNL1        0.0438
     22 C          -5.6019  -15.3256   23.5391 C.3     1  UNL1        0.0062
     23 C          -4.7292  -16.4281   24.0616 C.3     1  UNL1        0.0004
     24 C          -4.0124  -17.3344   23.1051 C.3     1  UNL1        0.0000
     25 C          -2.5670  -17.0938   22.7844 C.3     1  UNL1        0.0000
     26 C          -2.1914  -16.2069   21.6344 C.3     1  UNL1        0.0000
     27 C          -0.9957  -16.5379   20.7913 C.3     1  UNL1        0.0000
     28 C          -1.0902  -17.6059   19.7422 C.3     1  UNL1        0.0000
     29 C          -2.4117  -17.9153   19.1037 C.3     1  UNL1        0.0000
     30 C          -2.6888  -19.9685   20.6715 C.3     1  UNL1        0.0000
     31 C          -3.2064  -19.1021   19.5617 C.3     1  UNL1        0.0000
@<TRIPOS>BOND
     1    30    31    1
     2    31    29    1
     3    29    28    1
     4    28    27    1
     5    27    26    1
     6    26    25    1
     7    25    24    1
     8    24    23    1
     9    23    22    1
    10    22    21    1
    11    21     1    1
    12     1     2   ar
    13     2     3   ar
    14     3     4   ar
    15     4     5   ar
    16     5     6    1
    17     6     7    1
    18     7     8   ar
    19     8     9   ar
    20     9    10   ar
    21    10    11   ar
    22    11    12   ar
    23    12    13    1
    24    13    14    1
    25    14    15    1
    26    15    16   ar
    27    16    17   ar
    28    17    18   ar
    29    18    19   ar
    30    19    20   ar
    31     5     1   ar
    32    20     6    1
    33    12     7   ar
    34    20    15   ar
@<TRIPOS>MOLECULE
*****
 31 34 0 0 0
SMALL
GASTEIGER

@<TRIPOS>ATOM
      1 C          -8.1317  -16.3928   24.3649 C.ar    1  UNL1        0.0376
      2 C          -8.1256  -16.3683   25.8647 C.ar    1  UNL1        0.0143
      3 C          -8.9948  -17.4903   26.3501 C.ar    1  UNL1        0.0198
      4 C          -9.5381  -18.2082   25.1504 C.ar    1  UNL1        0.0761
      5 N          -9.0047  -17.5299   23.9234 N.ar    1  UNL1       -0.3238
      6 C          -9.2935  -17.9202   22.5042 C.3     1  UNL1        0.1297
      7 C          -8.2858  -18.8257   21.8603 C.ar    1  UNL1       -0.0016
      8 C          -7.1675  -19.1592   22.8027 C.ar    1  UNL1       -0.0024
      9 C          -6.0510  -20.0550   22.3546 C.ar    1  UNL1       -0.0003
     10 C          -6.0528  -20.6173   20.9640 C.ar    1  UNL1       -0.0003
     11 C          -7.1710  -20.2839   20.0215 C.ar    1  UNL1       -0.0045
     12 C          -8.2876  -19.3881   20.4697 C.ar    1  UNL1       -0.0237
     13 C          -9.2975  -19.1837   19.3796 C.3     1  UNL1        0.0308
     14 C         -10.5550  -18.3667   19.4107 C.3     1  UNL1        0.0308
     15 C         -11.1133  -17.5521   20.5398 C.ar    1  UNL1       -0.0237
     16 C         -12.4001  -16.8864   20.1513 C.ar    1  UNL1       -0.0045
     17 C         -13.1255  -16.0219   21.1396 C.ar    1  UNL1       -0.0003
     18 C         -12.5641  -15.8232   22.5162 C.ar    1  UNL1       -0.0003
     19 C         -11.2773  -16.4889   22.9047 C.ar    1  UNL1       -0.0024
     20 C         -10.5519  -17.3534   21.9166 C.ar    1  UNL1       -0.0016
     21 C          -7.3943  -15.4463   23.4647 C.3     1  UNL1        0.0438
     22 C          -5.9509  -15.1332   23.7265 C.3     1  UNL1        0.0062
     23 C          -5.0033  -16.2304   24.1117 C.3     1  UNL1        0.0004
     24 C          -4.1699  -16.9042   23.0622 C.3     1  UNL1        0.0000
     25 C          -3.2463  -18.0233   23.4424 C.3     1  UNL1        0.0000
     26 C          -2.1915  -18.4847   22.4809 C.3     1  UNL1        0.0000
     27 C          -2.4483  -19.6695   21.5976 C.3     1  UNL1        0.0000
     28 C          -2.9755  -19.4687   20.2077 C.3     1  UNL1        0.0000
     29 C          -2.8244  -18.1374   19.5333 C.3     1  UNL1        0.0000
     30 C          -0.2605  -17.7193   19.5702 C.3     1  UNL1        0.0000
     31 C          -1.5525  -17.8017   18.8126 C.3     1  UNL1        0.0000
@<TRIPOS>BOND
     1    30    31    1
     2    31    29    1
     3    29    28    1
     4    28    27    1
     5    27    26    1
     6    26    25    1
     7    25    24    1
     8    24    23    1
     9    23    22    1
    10    22    21    1
    11    21     1    1
    12     1     2   ar
    13     2     3   ar
    14     3     4   ar
    15     4     5   ar
    16     5     6    1
    17     6     7    1
    18     7     8   ar
    19     8     9   ar
    20     9    10   ar
    21    10    11   ar
    22    11    12   ar
    23    12    13    1
    24    13    14    1
    25    14    15    1
    26    15    16   ar
    27    16    17   ar
    28    17    18   ar
    29    18    19   ar
    30    19    20   ar
    31     5     1   ar
    32    20     6    1
    33    12     7   ar
    34    20    15   ar
@<TRIPOS>MOLECULE
*****
 31 34 0 0 0
SMALL
GASTEIGER

@<TRIPOS>ATOM
      1 C         -10.0373  -15.7320   20.8895 C.ar    1  UNL1        0.0376
      2 C         -10.5585  -15.0572   19.6554 C.ar    1  UNL1        0.0143
      3 C         -11.4187  -16.0402   18.9180 C.ar    1  UNL1        0.0198
      4 C         -11.4292  -17.3224   19.6962 C.ar    1  UNL1        0.0761
      5 N         -10.5754  -17.1319   20.9148 N.ar    1  UNL1       -0.3238
      6 C         -10.3068  -18.1607   21.9728 C.3     1  UNL1        0.1297
      7 C          -9.0157  -18.9122   21.8370 C.ar    1  UNL1       -0.0016
      8 C          -8.2428  -18.4606   20.6335 C.ar    1  UNL1       -0.0024
      9 C          -6.9179  -19.0874   20.3145 C.ar    1  UNL1       -0.0003
     10 C          -6.3660  -20.1658   21.1991 C.ar    1  UNL1       -0.0003
     11 C          -7.1389  -20.6173   22.4026 C.ar    1  UNL1       -0.0045
     12 C          -8.4637  -19.9905   22.7216 C.ar    1  UNL1       -0.0237
     13 C          -9.0666  -20.5837   23.9604 C.3     1  UNL1        0.0308
     14 C         -10.3703  -20.2452   24.6207 C.3     1  UNL1        0.0308
     15 C         -11.3931  -19.2297   24.2051 C.ar    1  UNL1       -0.0237
     16 C         -12.5596  -19.2094   25.1478 C.ar    1  UNL1       -0.0045
     17 C         -13.6980  -18.2614   24.9121 C.ar    1  UNL1       -0.0003
     18 C         -13.6697  -17.3337   23.7337 C.ar    1  UNL1       -0.0003
     19 C         -12.5032  -17.3540   22.7910 C.ar    1  UNL1       -0.0024
     20 C         -11.3648  -18.3020   23.0267 C.ar    1  UNL1       -0.0016
     21 C          -9.1362  -15.1150   21.9178 C.3     1  UNL1        0.0438
     22 C          -8.5667  -15.9591   23.0193 C.3     1  UNL1        0.0062
     23 C          -9.1114  -15.8417   24.4121 C.3     1  UNL1        0.0004
     24 C          -8.9347  -16.9706   25.3840 C.3     1  UNL1        0.0000
     25 C          -8.5297  -16.6848   26.7996 C.3     1  UNL1        0.0000
     26 C          -8.0489  -15.3159   27.1804 C.3     1  UNL1        0.0000
     27 C          -6.5780  -15.0344   27.2656 C.3     1  UNL1        0.0000
     28 C          -5.6263  -15.7302   26.3381 C.3     1  UNL1        0.0000
     29 C          -5.5290  -15.3023   24.9038 C.3     1  UNL1        0.0000
     30 C          -5.2742  -17.3203   23.2874 C.3     1  UNL1        0.0000
     31 C          -4.7003  -16.0969   23.9386 C.3     1  UNL1        0.0000
@<TRIPOS>BOND
     1    30    31    1
     2    31    29    1
     3    29    28    1
     4    28    27    1
     5    27    26    1
     6    26    25    1
     7    25    24    1
     8    24    23    1
     9    23    22    1
    10    22    21    1
    11    21     1    1
    12     1     2   ar
    13     2     3   ar
    14     3     4   ar
    15     4     5   ar
    16     5     6    1
    17     6     7    1
    18     7     8   ar
    19     8     9   ar
    20     9    10   ar
    21    10    11   ar
    22    11    12   ar
    23    12    13    1
    24    13    14    1
    25    14    15    1
    26    15    16   ar
    27    16    17   ar
    28    17    18   ar
    29    18    19   ar
    30    19    20   ar
    31     5     1   ar
    32    20     6    1
    33    12     7   ar
    34    20    15   ar
@<TRIPOS>MOLECULE
*****
 31 34 0 0 0
SMALL
GASTEIGER

@<TRIPOS>ATOM
      1 C         -10.0111  -15.7329   20.9033 C.ar    1  UNL1        0.0376
      2 C         -10.5339  -15.0647   19.6663 C.ar    1  UNL1        0.0143
      3 C         -11.3977  -16.0506   18.9369 C.ar    1  UNL1        0.0198
      4 C         -11.4087  -17.3280   19.7231 C.ar    1  UNL1        0.0761
      5 N         -10.5517  -17.1316   20.9385 N.ar    1  UNL1       -0.3238
      6 C         -10.2826  -18.1544   22.0022 C.3     1  UNL1        0.1297
      7 C         -11.3440  -18.2956   23.0527 C.ar    1  UNL1       -0.0016
      8 C         -12.4855  -17.3537   22.8084 C.ar    1  UNL1       -0.0024
      9 C         -13.6556  -17.3342   23.7467 C.ar    1  UNL1       -0.0003
     10 C         -13.6842  -18.2566   24.9292 C.ar    1  UNL1       -0.0003
     11 C         -12.5427  -19.1985   25.1735 C.ar    1  UNL1       -0.0045
     12 C         -11.3726  -19.2180   24.2352 C.ar    1  UNL1       -0.0237
     13 C         -10.3468  -20.2270   24.6592 C.3     1  UNL1        0.0308
     14 C          -9.0393  -20.5630   24.0055 C.3     1  UNL1        0.0308
     15 C          -8.4344  -19.9727   22.7662 C.ar    1  UNL1       -0.0237
     16 C          -7.1056  -20.5951   22.4550 C.ar    1  UNL1       -0.0045
     17 C          -6.3301  -20.1457   21.2522 C.ar    1  UNL1       -0.0003
     18 C          -6.8834  -19.0738   20.3607 C.ar    1  UNL1       -0.0003
     19 C          -8.2122  -18.4514   20.6719 C.ar    1  UNL1       -0.0024
     20 C          -8.9877  -18.9008   21.8746 C.ar    1  UNL1       -0.0016
     21 C          -9.1064  -15.1113   21.9257 C.3     1  UNL1        0.0438
     22 C          -8.5539  -15.9447   23.0439 C.3     1  UNL1        0.0062
     23 C          -9.0872  -15.7801   24.4362 C.3     1  UNL1        0.0004
     24 C          -8.7330  -16.7787   25.4979 C.3     1  UNL1        0.0000
     25 C          -8.4909  -16.3222   26.9060 C.3     1  UNL1        0.0000
     26 C          -7.0886  -16.1147   27.3965 C.3     1  UNL1        0.0000
     27 C          -6.1704  -15.1780   26.6689 C.3     1  UNL1        0.0000
     28 C          -5.1089  -15.7234   25.7601 C.3     1  UNL1        0.0000
     29 C          -5.2586  -15.5997   24.2728 C.3     1  UNL1        0.0000
     30 C          -3.8885  -17.7661   23.8494 C.3     1  UNL1        0.0000
     31 C          -4.8878  -16.7491   23.3834 C.3     1  UNL1        0.0000
@<TRIPOS>BOND
     1    30    31    1
     2    31    29    1
     3    29    28    1
     4    28    27    1
     5    27    26    1
     6    26    25    1
     7    25    24    1
     8    24    23    1
     9    23    22    1
    10    22    21    1
    11    21     1    1
    12     1     2   ar
    13     2     3   ar
    14     3     4   ar
    15     4     5   ar
    16     5     6    1
    17     6     7    1
    18     7     8   ar
    19     8     9   ar
    20     9    10   ar
    21    10    11   ar
    22    11    12   ar
    23    12    13    1
    24    13    14    1
    25    14    15    1
    26    15    16   ar
    27    16    17   ar
    28    17    18   ar
    29    18    19   ar
    30    19    20   ar
    31     5     1   ar
    32    20     6    1
    33    12     7   ar
    34    20    15   ar
@<TRIPOS>MOLECULE
*****
 31 34 0 0 0
SMALL
GASTEIGER

@<TRIPOS>ATOM
      1 C          -9.7159  -15.6624   20.9845 C.ar    1  UNL1        0.0376
      2 C         -10.2452  -14.8991   19.8066 C.ar    1  UNL1        0.0143
      3 C         -11.2610  -15.7596   19.1153 C.ar    1  UNL1        0.0198
      4 C         -11.3594  -17.0545   19.8658 C.ar    1  UNL1        0.0761
      5 N         -10.4045  -16.9945   21.0211 N.ar    1  UNL1       -0.3238
      6 C         -10.1779  -18.0766   22.0349 C.3     1  UNL1        0.1297
      7 C          -8.8950  -18.8412   21.8950 C.ar    1  UNL1       -0.0016
      8 C          -8.0854  -18.3453   20.7337 C.ar    1  UNL1       -0.0024
      9 C          -6.7623  -18.9773   20.4177 C.ar    1  UNL1       -0.0003
     10 C          -6.2488  -20.1051   21.2629 C.ar    1  UNL1       -0.0003
     11 C          -7.0585  -20.6010   22.4242 C.ar    1  UNL1       -0.0045
     12 C          -8.3816  -19.9690   22.7402 C.ar    1  UNL1       -0.0237
     13 C          -9.0242  -20.6107   23.9340 C.3     1  UNL1        0.0308
     14 C         -10.3390  -20.2832   24.5776 C.3     1  UNL1        0.0308
     15 C         -11.3359  -19.2329   24.1861 C.ar    1  UNL1       -0.0237
     16 C         -12.5254  -19.2388   25.0998 C.ar    1  UNL1       -0.0045
     17 C         -13.6434  -18.2626   24.8819 C.ar    1  UNL1       -0.0003
     18 C         -13.5717  -17.2806   23.7504 C.ar    1  UNL1       -0.0003
     19 C         -12.3821  -17.2747   22.8367 C.ar    1  UNL1       -0.0024
     20 C         -11.2642  -18.2508   23.0545 C.ar    1  UNL1       -0.0016
     21 C          -8.6799  -15.1784   21.9553 C.3     1  UNL1        0.0438
     22 C          -8.7060  -15.6522   23.3782 C.3     1  UNL1        0.0062
     23 C          -7.4570  -16.1876   24.0134 C.3     1  UNL1        0.0004
     24 C          -6.1255  -15.5865   23.6731 C.3     1  UNL1        0.0000
     25 C          -4.8646  -16.3477   23.9566 C.3     1  UNL1        0.0000
     26 C          -4.5511  -17.5943   23.1834 C.3     1  UNL1        0.0000
     27 C          -3.1279  -17.9346   22.8540 C.3     1  UNL1        0.0000
     28 C          -2.8113  -19.2012   22.1153 C.3     1  UNL1        0.0000
     29 C          -2.2086  -19.1386   20.7432 C.3     1  UNL1        0.0000
     30 C          -2.6657  -17.4920   18.7863 C.3     1  UNL1        0.0000
     31 C          -3.0461  -18.7099   19.5751 C.3     1  UNL1        0.0000
@<TRIPOS>BOND
     1    30    31    1
     2    31    29    1
     3    29    28    1
     4    28    27    1
     5    27    26    1
     6    26    25    1
     7    25    24    1
     8    24    23    1
     9    23    22    1
    10    22    21    1
    11    21     1    1
    12     1     2   ar
    13     2     3   ar
    14     3     4   ar
    15     4     5   ar
    16     5     6    1
    17     6     7    1
    18     7     8   ar
    19     8     9   ar
    20     9    10   ar
    21    10    11   ar
    22    11    12   ar
    23    12    13    1
    24    13    14    1
    25    14    15    1
    26    15    16   ar
    27    16    17   ar
    28    17    18   ar
    29    18    19   ar
    30    19    20   ar
    31     5     1   ar
    32    20     6    1
    33    12     7   ar
    34    20    15   ar
@<TRIPOS>MOLECULE
*****
 31 34 0 0 0
SMALL
GASTEIGER

@<TRIPOS>ATOM
      1 C         -10.1399  -15.7398   20.8666 C.ar    1  UNL1        0.0376
      2 C         -10.6555  -15.1064   19.6084 C.ar    1  UNL1        0.0143
      3 C         -11.4216  -16.1466   18.8462 C.ar    1  UNL1        0.0198
      4 C         -11.3795  -17.4228   19.6332 C.ar    1  UNL1        0.0761
      5 N         -10.5874  -17.1714   20.8820 N.ar    1  UNL1       -0.3238
      6 C         -10.2942  -18.1753   21.9572 C.3     1  UNL1        0.1297
      7 C         -11.3444  -18.3174   23.0187 C.ar    1  UNL1       -0.0016
      8 C         -12.5018  -17.3959   22.7714 C.ar    1  UNL1       -0.0024
      9 C         -13.6642  -17.3807   23.7194 C.ar    1  UNL1       -0.0003
     10 C         -13.6692  -18.2870   24.9146 C.ar    1  UNL1       -0.0003
     11 C         -12.5118  -19.2085   25.1619 C.ar    1  UNL1       -0.0045
     12 C         -11.3494  -19.2237   24.2140 C.ar    1  UNL1       -0.0237
     13 C         -10.3053  -20.2116   24.6429 C.3     1  UNL1        0.0308
     14 C          -8.9984  -20.5373   23.9826 C.3     1  UNL1        0.0308
     15 C          -8.4129  -19.9554   22.7302 C.ar    1  UNL1       -0.0237
     16 C          -7.0776  -20.5624   22.4162 C.ar    1  UNL1       -0.0045
     17 C          -6.3190  -20.1183   21.2007 C.ar    1  UNL1       -0.0003
     18 C          -6.8957  -19.0671   20.2993 C.ar    1  UNL1       -0.0003
     19 C          -8.2309  -18.4601   20.6134 C.ar    1  UNL1       -0.0024
     20 C          -8.9895  -18.9042   21.8288 C.ar    1  UNL1       -0.0016
     21 C          -9.3207  -15.0606   21.9238 C.3     1  UNL1        0.0438
     22 C          -7.9450  -15.5644   22.2456 C.3     1  UNL1        0.0062
     23 C          -7.6049  -15.9727   23.6484 C.3     1  UNL1        0.0004
     24 C          -6.3754  -15.4261   24.3113 C.3     1  UNL1        0.0000
     25 C          -5.0189  -15.9077   23.8896 C.3     1  UNL1        0.0000
     26 C          -4.8358  -17.3230   23.4272 C.3     1  UNL1        0.0000
     27 C          -3.4618  -17.9219   23.3715 C.3     1  UNL1        0.0000
     28 C          -2.7251  -17.9887   22.0665 C.3     1  UNL1        0.0000
     29 C          -2.8261  -19.2160   21.2101 C.3     1  UNL1        0.0000
     30 C          -2.6847  -17.7407   19.0761 C.3     1  UNL1        0.0000
     31 C          -2.7706  -19.0947   19.7161 C.3     1  UNL1        0.0000
@<TRIPOS>BOND
     1    30    31    1
     2    31    29    1
     3    29    28    1
     4    28    27    1
     5    27    26    1
     6    26    25    1
     7    25    24    1
     8    24    23    1
     9    23    22    1
    10    22    21    1
    11    21     1    1
    12     1     2   ar
    13     2     3   ar
    14     3     4   ar
    15     4     5   ar
    16     5     6    1
    17     6     7    1
    18     7     8   ar
    19     8     9   ar
    20     9    10   ar
    21    10    11   ar
    22    11    12   ar
    23    12    13    1
    24    13    14    1
    25    14    15    1
    26    15    16   ar
    27    16    17   ar
    28    17    18   ar
    29    18    19   ar
    30    19    20   ar
    31     5     1   ar
    32    20     6    1
    33    12     7   ar
    34    20    15   ar
@<TRIPOS>MOLECULE
*****
 31 34 0 0 0
SMALL
GASTEIGER

@<TRIPOS>ATOM
      1 C           5.2581   -2.7262   19.3535 C.ar    1  UNL1        0.0376
      2 C           5.2416   -3.8152   18.3220 C.ar    1  UNL1        0.0143
      3 C           4.3056   -4.8876   18.7953 C.ar    1  UNL1        0.0198
      4 C           3.7438   -4.4615   20.1191 C.ar    1  UNL1        0.0761
      5 N           4.3325   -3.1257   20.4642 N.ar    1  UNL1       -0.3238
      6 C           4.0459   -2.3291   21.7025 C.3     1  UNL1        0.1297
      7 C           4.8851   -2.6633   22.9000 C.ar    1  UNL1       -0.0016
      8 C           5.8639   -3.7582   22.5950 C.ar    1  UNL1       -0.0024
      9 C           6.8014   -4.2443   23.6602 C.ar    1  UNL1       -0.0003
     10 C           6.7599   -3.6356   25.0306 C.ar    1  UNL1       -0.0003
     11 C           5.7811   -2.5408   25.3356 C.ar    1  UNL1       -0.0045
     12 C           4.8437   -2.0546   24.2703 C.ar    1  UNL1       -0.0237
     13 C           3.9528   -0.9614   24.7815 C.3     1  UNL1        0.0308
     14 C           2.8833   -0.2069   24.0487 C.3     1  UNL1        0.0308
     15 C           2.4407   -0.3593   22.6236 C.ar    1  UNL1       -0.0237
     16 C           1.3343    0.5965   22.2883 C.ar    1  UNL1       -0.0045
     17 C           0.7452    0.6078   20.9088 C.ar    1  UNL1       -0.0003
     18 C           1.2626   -0.3367   19.8647 C.ar    1  UNL1       -0.0003
     19 C           2.3690   -1.2924   20.2000 C.ar    1  UNL1       -0.0024
     20 C           2.9580   -1.3037   21.5794 C.ar    1  UNL1       -0.0016
     21 C           6.0597   -1.4602   19.2860 C.3     1  UNL1        0.0438
     22 C           5.9601   -0.5727   18.0809 C.3     1  UNL1        0.0062
     23 C           4.6179   -0.0987   17.6074 C.3     1  UNL1        0.0004
     24 C           4.0702    1.2101   18.0943 C.3     1  UNL1        0.0000
     25 C           4.7968    1.9777   19.1586 C.3     1  UNL1        0.0000
     26 C           4.2052    2.0994   20.5317 C.3     1  UNL1        0.0000
     27 C           5.0984    2.0903   21.7367 C.3     1  UNL1        0.0000
     28 C           5.9645    0.8986   22.0193 C.3     1  UNL1        0.0000
     29 C           6.8131    0.8645   23.2556 C.3     1  UNL1        0.0000
     30 C           8.2827   -1.0039   22.2070 C.3     1  UNL1        0.0000
     31 C           7.9169   -0.1435   23.3800 C.3     1  UNL1        0.0000
@<TRIPOS>BOND
     1    30    31    1
     2    31    29    1
     3    29    28    1
     4    28    27    1
     5    27    26    1
     6    26    25    1
     7    25    24    1
     8    24    23    1
     9    23    22    1
    10    22    21    1
    11    21     1    1
    12     1     2   ar
    13     2     3   ar
    14     3     4   ar
    15     4     5   ar
    16     5     6    1
    17     6     7    1
    18     7     8   ar
    19     8     9   ar
    20     9    10   ar
    21    10    11   ar
    22    11    12   ar
    23    12    13    1
    24    13    14    1
    25    14    15    1
    26    15    16   ar
    27    16    17   ar
    28    17    18   ar
    29    18    19   ar
    30    19    20   ar
    31     5     1   ar
    32    20     6    1
    33    12     7   ar
    34    20    15   ar
