@<TRIPOS>MOLECULE
*****
 24 27 0 0 0
SMALL
GASTEIGER

@<TRIPOS>ATOM
      1 C          -7.4795  -19.5181   21.8757 C.3     1  UNL1        0.0564
      2 C          -6.4041  -18.5924   22.3622 C.3     1  UNL1        0.1119
      3 C          -4.9282  -18.7753   22.1663 C.ar    1  UNL1       -0.0002
      4 C          -4.1317  -19.8468   21.4827 C.ar    1  UNL1       -0.0024
      5 C          -2.6347  -19.7602   21.4457 C.ar    1  UNL1       -0.0003
      6 C          -1.9342  -18.6021   22.0924 C.ar    1  UNL1        0.0000
      7 C          -2.7308  -17.5306   22.7759 C.ar    1  UNL1        0.0012
      8 C          -4.2278  -17.6172   22.8129 C.ar    1  UNL1        0.0152
      9 C          -5.2707  -16.7185   23.4084 C.ar    1  UNL1        0.0804
     10 C          -5.4824  -15.4473   24.1761 C.ar    1  UNL1        0.1177
     11 N          -6.9583  -15.2644   24.3719 N.ar    1  UNL1       -0.2223
     12 C          -7.6588  -16.4225   23.7253 C.ar    1  UNL1        0.1788
     13 N          -6.6158  -17.3212   23.1298 N.ar    1  UNL1       -0.3069
     14 O          -8.7238  -18.6351   19.7728 O.3     1  UNL1       -0.3844
     15 C          -8.7169  -18.9603   21.2371 C.3     1  UNL1        0.1127
     16 H          -7.8566  -18.8432   19.3913 H       1  UNL1        0.2103
     17 C          -9.9474  -18.7278   22.0628 C.3     1  UNL1        0.0274
     18 C         -11.0881  -17.9321   21.5011 C.3     1  UNL1        0.0080
     19 C         -12.3186  -17.6996   22.3269 C.3     1  UNL1        0.0666
     20 C         -12.4084  -18.2628   23.7142 C.3     1  UNL1        0.2639
     21 F         -12.9610  -18.5889   25.0701 F       1  UNL1       -0.2043
     22 F         -13.7411  -17.5803   23.6234 F       1  UNL1       -0.2043
     23 C         -11.2676  -19.0585   24.2759 C.3     1  UNL1        0.0666
     24 C         -10.0371  -19.2910   23.4502 C.3     1  UNL1        0.0080
@<TRIPOS>BOND
     1    14    15    1
     2    15     1    1
     3     1     2    1
     4     2     3    1
     5     3     4   ar
     6     4     5   ar
     7     5     6   ar
     8     6     7   ar
     9     7     8   ar
    10     8     9    1
    11     9    10   ar
    12    10    11   ar
    13    11    12   ar
    14    12    13   ar
    15    15    17    1
    16    17    18    1
    17    18    19    1
    18    19    20    1
    19    20    21    1
    20    20    22    1
    21    20    23    1
    22    23    24    1
    23    13     2    1
    24    24    17    1
    25     8     3   ar
    26    13     9   ar
    27    14    16    1
@<TRIPOS>MOLECULE
*****
 24 27 0 0 0
SMALL
GASTEIGER

@<TRIPOS>ATOM
      1 C          -3.7821  -16.9052   23.6166 C.3     1  UNL1        0.0564
      2 C          -3.5818  -17.6764   22.3457 C.3     1  UNL1        0.1119
      3 C          -4.4565  -18.7851   21.8400 C.ar    1  UNL1       -0.0002
      4 C          -5.6980  -19.4171   22.3959 C.ar    1  UNL1       -0.0024
      5 C          -6.3699  -20.5323   21.6510 C.ar    1  UNL1       -0.0003
      6 C          -5.8003  -21.0154   20.3502 C.ar    1  UNL1        0.0000
      7 C          -4.5588  -20.3833   19.7943 C.ar    1  UNL1        0.0012
      8 C          -3.8869  -19.2682   20.5392 C.ar    1  UNL1        0.0152
      9 C          -2.6601  -18.4581   20.2410 C.ar    1  UNL1        0.0804
     10 C          -1.5499  -18.2560   19.2527 C.ar    1  UNL1        0.1177
     11 N          -0.6753  -17.1473   19.7585 N.ar    1  UNL1       -0.2223
     12 C          -1.2449  -16.6642   21.0593 C.ar    1  UNL1        0.1788
     13 N          -2.4716  -17.4743   21.3575 N.ar    1  UNL1       -0.3069
     14 O          -4.3578  -14.5623   22.6524 O.3     1  UNL1       -0.3844
     15 C          -4.6389  -15.6738   23.6196 C.3     1  UNL1        0.1127
     16 H          -3.5952  -14.7983   22.1013 H       1  UNL1        0.2103
     17 C          -5.7766  -15.5541   24.5898 C.3     1  UNL1        0.0274
     18 C          -5.5159  -15.6347   26.0648 C.3     1  UNL1        0.0080
     19 C          -6.6537  -15.5149   27.0350 C.3     1  UNL1        0.0666
     20 C          -8.0519  -15.3146   26.5302 C.3     1  UNL1        0.2639
     21 F          -9.5390  -15.1186   26.5387 F       1  UNL1       -0.2043
     22 F          -8.3078  -15.3271   28.0082 F       1  UNL1       -0.2043
     23 C          -8.3125  -15.2340   25.0552 C.3     1  UNL1        0.0666
     24 C          -7.1748  -15.3538   24.0850 C.3     1  UNL1        0.0080
@<TRIPOS>BOND
     1    14    15    1
     2    15     1    1
     3     1     2    1
     4     2     3    1
     5     3     4   ar
     6     4     5   ar
     7     5     6   ar
     8     6     7   ar
     9     7     8   ar
    10     8     9    1
    11     9    10   ar
    12    10    11   ar
    13    11    12   ar
    14    12    13   ar
    15    15    17    1
    16    17    18    1
    17    18    19    1
    18    19    20    1
    19    20    21    1
    20    20    22    1
    21    20    23    1
    22    23    24    1
    23    13     2    1
    24    24    17    1
    25     8     3   ar
    26    13     9   ar
    27    14    16    1
@<TRIPOS>MOLECULE
*****
 24 27 0 0 0
SMALL
GASTEIGER

@<TRIPOS>ATOM
      1 C          -7.0367  -19.9611   21.3300 C.3     1  UNL1        0.0564
      2 C          -5.8997  -19.1360   21.8557 C.3     1  UNL1        0.1119
      3 C          -6.0226  -17.8938   22.6876 C.ar    1  UNL1       -0.0002
      4 C          -7.2155  -17.1500   23.2106 C.ar    1  UNL1       -0.0024
      5 C          -7.0249  -15.9107   24.0337 C.ar    1  UNL1       -0.0003
      6 C          -5.6413  -15.4151   24.3339 C.ar    1  UNL1        0.0000
      7 C          -4.4483  -16.1589   23.8109 C.ar    1  UNL1        0.0012
      8 C          -4.6390  -17.3983   22.9878 C.ar    1  UNL1        0.0152
      9 C          -3.6610  -18.3342   22.3414 C.ar    1  UNL1        0.0804
     10 C          -2.2014  -18.6063   22.1274 C.ar    1  UNL1        0.1177
     11 N          -2.0787  -19.8484   21.2955 N.ar    1  UNL1       -0.2223
     12 C          -3.4623  -20.3440   20.9953 C.ar    1  UNL1        0.1788
     13 N          -4.4402  -19.4081   21.6417 N.ar    1  UNL1       -0.3069
     14 O          -7.7607  -19.0271   19.0162 O.3     1  UNL1       -0.3844
     15 C          -8.0763  -19.3317   20.4506 C.3     1  UNL1        0.1127
     16 H          -6.8498  -19.2973   18.8211 H       1  UNL1        0.2103
     17 C          -9.4315  -19.0069   21.0057 C.3     1  UNL1        0.0274
     18 C          -9.7682  -19.3688   22.4219 C.3     1  UNL1        0.0080
     19 C         -11.1233  -19.0441   22.9770 C.3     1  UNL1        0.0666
     20 C         -12.1417  -18.3574   22.1159 C.3     1  UNL1        0.2639
     21 F         -13.4327  -17.7195   21.6960 F       1  UNL1       -0.2043
     22 F         -12.9269  -18.4978   23.3863 F       1  UNL1       -0.2043
     23 C         -11.8050  -17.9955   20.6997 C.3     1  UNL1        0.0666
     24 C         -10.4498  -18.3203   20.1446 C.3     1  UNL1        0.0080
@<TRIPOS>BOND
     1    14    15    1
     2    15     1    1
     3     1     2    1
     4     2     3    1
     5     3     4   ar
     6     4     5   ar
     7     5     6   ar
     8     6     7   ar
     9     7     8   ar
    10     8     9    1
    11     9    10   ar
    12    10    11   ar
    13    11    12   ar
    14    12    13   ar
    15    15    17    1
    16    17    18    1
    17    18    19    1
    18    19    20    1
    19    20    21    1
    20    20    22    1
    21    20    23    1
    22    23    24    1
    23    13     2    1
    24    24    17    1
    25     8     3   ar
    26    13     9   ar
    27    14    16    1
@<TRIPOS>MOLECULE
*****
 24 27 0 0 0
SMALL
GASTEIGER

@<TRIPOS>ATOM
      1 C          -7.3653  -18.6620   20.9476 C.3     1  UNL1        0.0564
      2 C          -8.2785  -17.9760   21.9199 C.3     1  UNL1        0.1119
      3 C          -7.8570  -17.0538   23.0253 C.ar    1  UNL1       -0.0002
      4 C          -6.5086  -16.5690   23.4686 C.ar    1  UNL1       -0.0024
      5 C          -6.3947  -15.6300   24.6327 C.ar    1  UNL1       -0.0003
      6 C          -7.6292  -15.1758   25.3535 C.ar    1  UNL1        0.0000
      7 C          -8.9777  -15.6606   24.9102 C.ar    1  UNL1        0.0012
      8 C          -9.0916  -16.5996   23.7461 C.ar    1  UNL1        0.0152
      9 C         -10.2761  -17.2411   23.0861 C.ar    1  UNL1        0.0804
     10 C         -11.7712  -17.3568   23.1238 C.ar    1  UNL1        0.1177
     11 N         -12.1926  -18.2790   22.0183 N.ar    1  UNL1       -0.2223
     12 C         -10.9581  -18.7332   21.2975 C.ar    1  UNL1        0.1788
     13 N          -9.7736  -18.0917   21.9575 N.ar    1  UNL1       -0.3069
     14 O          -6.5836  -20.7519   22.2785 O.3     1  UNL1       -0.3844
     15 C          -6.2607  -19.5438   21.4501 C.3     1  UNL1        0.1127
     16 H          -7.5444  -20.8168   22.3949 H       1  UNL1        0.2103
     17 C          -4.8334  -19.2175   21.1242 C.3     1  UNL1        0.0274
     18 C          -3.8463  -18.9842   22.2293 C.3     1  UNL1        0.0080
     19 C          -2.4190  -18.6579   21.9034 C.3     1  UNL1        0.0666
     20 C          -1.9788  -18.5650   20.4724 C.3     1  UNL1        0.2639
     21 F          -1.0883  -18.3671   19.2817 F       1  UNL1       -0.2043
     22 F          -0.6824  -18.2629   21.1640 F       1  UNL1       -0.2043
     23 C          -2.9658  -18.7983   19.3674 C.3     1  UNL1        0.0666
     24 C          -4.3932  -19.1246   19.6933 C.3     1  UNL1        0.0080
@<TRIPOS>BOND
     1    14    15    1
     2    15     1    1
     3     1     2    1
     4     2     3    1
     5     3     4   ar
     6     4     5   ar
     7     5     6   ar
     8     6     7   ar
     9     7     8   ar
    10     8     9    1
    11     9    10   ar
    12    10    11   ar
    13    11    12   ar
    14    12    13   ar
    15    15    17    1
    16    17    18    1
    17    18    19    1
    18    19    20    1
    19    20    21    1
    20    20    22    1
    21    20    23    1
    22    23    24    1
    23    13     2    1
    24    24    17    1
    25     8     3   ar
    26    13     9   ar
    27    14    16    1
@<TRIPOS>MOLECULE
*****
 24 27 0 0 0
SMALL
GASTEIGER

@<TRIPOS>ATOM
      1 C          -7.3724  -18.7581   20.9028 C.3     1  UNL1        0.0564
      2 C          -8.1875  -17.8765   21.8020 C.3     1  UNL1        0.1119
      3 C          -9.6818  -17.7461   21.7904 C.ar    1  UNL1       -0.0002
      4 C         -10.7397  -18.3982   20.9505 C.ar    1  UNL1       -0.0024
      5 C         -12.1850  -18.0637   21.1721 C.ar    1  UNL1       -0.0003
      6 C         -12.5724  -17.0772   22.2335 C.ar    1  UNL1        0.0000
      7 C         -11.5145  -16.4251   23.0734 C.ar    1  UNL1        0.0012
      8 C         -10.0691  -16.7595   22.8518 C.ar    1  UNL1        0.0152
      9 C          -8.8143  -16.2802   23.5194 C.ar    1  UNL1        0.0804
     10 C          -8.2781  -15.3742   24.5880 C.ar    1  UNL1        0.1177
     11 N          -6.7838  -15.5047   24.5995 N.ar    1  UNL1       -0.2223
     12 C          -6.3964  -16.4913   23.5380 C.ar    1  UNL1        0.1788
     13 N          -7.6513  -16.9705   22.8705 N.ar    1  UNL1       -0.3069
     14 O          -6.5574  -20.7363   22.3768 O.3     1  UNL1       -0.3844
     15 C          -6.2535  -19.5797   21.4713 C.3     1  UNL1        0.1127
     16 H          -7.5175  -20.8143   22.4905 H       1  UNL1        0.2103
     17 C          -4.8308  -19.2446   21.1343 C.3     1  UNL1        0.0274
     18 C          -3.8325  -19.0227   22.2316 C.3     1  UNL1        0.0080
     19 C          -2.4098  -18.6876   21.8947 C.3     1  UNL1        0.0666
     20 C          -1.9854  -18.5745   20.4604 C.3     1  UNL1        0.2639
     21 F          -1.1085  -18.3582   19.2628 F       1  UNL1       -0.2043
     22 F          -0.6825  -18.2774   21.1418 F       1  UNL1       -0.2043
     23 C          -2.9837  -18.7964   19.3631 C.3     1  UNL1        0.0666
     24 C          -4.4064  -19.1315   19.7001 C.3     1  UNL1        0.0080
@<TRIPOS>BOND
     1    14    15    1
     2    15     1    1
     3     1     2    1
     4     2     3    1
     5     3     4   ar
     6     4     5   ar
     7     5     6   ar
     8     6     7   ar
     9     7     8   ar
    10     8     9    1
    11     9    10   ar
    12    10    11   ar
    13    11    12   ar
    14    12    13   ar
    15    15    17    1
    16    17    18    1
    17    18    19    1
    18    19    20    1
    19    20    21    1
    20    20    22    1
    21    20    23    1
    22    23    24    1
    23    13     2    1
    24    24    17    1
    25     8     3   ar
    26    13     9   ar
    27    14    16    1
@<TRIPOS>MOLECULE
*****
 24 27 0 0 0
SMALL
GASTEIGER

@<TRIPOS>ATOM
      1 C          -4.6251  -17.0199   23.6873 C.3     1  UNL1        0.0564
      2 C          -4.0839  -17.7331   22.4839 C.3     1  UNL1        0.1119
      3 C          -4.6832  -18.9446   21.8334 C.ar    1  UNL1       -0.0002
      4 C          -5.9050  -19.7542   22.1525 C.ar    1  UNL1       -0.0024
      5 C          -6.2616  -20.9394   21.3053 C.ar    1  UNL1       -0.0003
      6 C          -5.3964  -21.3152   20.1390 C.ar    1  UNL1        0.0000
      7 C          -4.1746  -20.5056   19.8199 C.ar    1  UNL1        0.0012
      8 C          -3.8180  -19.3204   20.6671 C.ar    1  UNL1        0.0152
      9 C          -2.6840  -18.3411   20.5968 C.ar    1  UNL1        0.0804
     10 C          -1.4484  -17.9681   19.8324 C.ar    1  UNL1        0.1177
     11 N          -0.8490  -16.7565   20.4829 N.ar    1  UNL1       -0.2223
     12 C          -1.7142  -16.3808   21.6492 C.ar    1  UNL1        0.1788
     13 N          -2.8483  -17.3601   21.7196 N.ar    1  UNL1       -0.3069
     14 O          -5.3893  -14.5484   23.4457 O.3     1  UNL1       -0.3844
     15 C          -5.7219  -16.0087   23.5296 C.3     1  UNL1        0.1127
     16 H          -4.4284  -14.4315   23.5091 H       1  UNL1        0.2103
     17 C          -7.1512  -16.4578   23.4559 C.3     1  UNL1        0.0274
     18 C          -7.9971  -16.4737   24.6944 C.3     1  UNL1        0.0080
     19 C          -9.4264  -16.9228   24.6207 C.3     1  UNL1        0.0666
     20 C         -10.0096  -17.3560   23.3084 C.3     1  UNL1        0.2639
     21 F         -11.0071  -17.8549   22.3052 F       1  UNL1       -0.2043
     22 F         -11.2021  -17.5452   24.1986 F       1  UNL1       -0.2043
     23 C          -9.1637  -17.3401   22.0698 C.3     1  UNL1        0.0666
     24 C          -7.7344  -16.8910   22.1436 C.3     1  UNL1        0.0080
@<TRIPOS>BOND
     1    14    15    1
     2    15     1    1
     3     1     2    1
     4     2     3    1
     5     3     4   ar
     6     4     5   ar
     7     5     6   ar
     8     6     7   ar
     9     7     8   ar
    10     8     9    1
    11     9    10   ar
    12    10    11   ar
    13    11    12   ar
    14    12    13   ar
    15    15    17    1
    16    17    18    1
    17    18    19    1
    18    19    20    1
    19    20    21    1
    20    20    22    1
    21    20    23    1
    22    23    24    1
    23    13     2    1
    24    24    17    1
    25     8     3   ar
    26    13     9   ar
    27    14    16    1
@<TRIPOS>MOLECULE
*****
 24 27 0 0 0
SMALL
GASTEIGER

@<TRIPOS>ATOM
      1 C          -8.4126  -17.5386   21.8348 C.3     1  UNL1        0.0564
      2 C          -9.9009  -17.3518   21.8510 C.3     1  UNL1        0.1119
      3 C         -10.8410  -17.8534   22.9067 C.ar    1  UNL1       -0.0002
      4 C         -10.6106  -18.6315   24.1682 C.ar    1  UNL1       -0.0024
      5 C         -11.7707  -18.9984   25.0455 C.ar    1  UNL1       -0.0003
      6 C         -13.1611  -18.5871   24.6613 C.ar    1  UNL1        0.0000
      7 C         -13.3915  -17.8090   23.3998 C.ar    1  UNL1        0.0012
      8 C         -12.2314  -17.4421   22.5225 C.ar    1  UNL1        0.0152
      9 C         -12.1506  -16.6863   21.2293 C.ar    1  UNL1        0.0804
     10 C         -12.9600  -15.9650   20.1926 C.ar    1  UNL1        0.1177
     11 N         -12.0198  -15.4634   19.1369 N.ar    1  UNL1       -0.2223
     12 C         -10.6294  -15.8747   19.5212 C.ar    1  UNL1        0.1788
     13 N         -10.7102  -16.6305   20.8143 N.ar    1  UNL1       -0.3069
     14 O          -8.6822  -19.6334   20.3217 O.3     1  UNL1       -0.3844
     15 C          -7.8133  -18.7261   21.1413 C.3     1  UNL1        0.1127
     16 H          -9.5973  -19.3124   20.3448 H       1  UNL1        0.2103
     17 C          -6.3451  -19.0062   21.2675 C.3     1  UNL1        0.0274
     18 C          -5.5675  -18.4300   22.4134 C.3     1  UNL1        0.0080
     19 C          -4.0993  -18.7100   22.5396 C.3     1  UNL1        0.0666
     20 C          -3.4088  -19.5663   21.5198 C.3     1  UNL1        0.2639
     21 F          -2.3163  -20.3124   20.8127 F       1  UNL1       -0.2043
     22 F          -2.2517  -19.2492   22.4202 F       1  UNL1       -0.2043
     23 C          -4.1863  -20.1425   20.3738 C.3     1  UNL1        0.0666
     24 C          -5.6546  -19.8624   20.2477 C.3     1  UNL1        0.0080
@<TRIPOS>BOND
     1    14    15    1
     2    15     1    1
     3     1     2    1
     4     2     3    1
     5     3     4   ar
     6     4     5   ar
     7     5     6   ar
     8     6     7   ar
     9     7     8   ar
    10     8     9    1
    11     9    10   ar
    12    10    11   ar
    13    11    12   ar
    14    12    13   ar
    15    15    17    1
    16    17    18    1
    17    18    19    1
    18    19    20    1
    19    20    21    1
    20    20    22    1
    21    20    23    1
    22    23    24    1
    23    13     2    1
    24    24    17    1
    25     8     3   ar
    26    13     9   ar
    27    14    16    1
@<TRIPOS>MOLECULE
*****
 24 27 0 0 0
SMALL
GASTEIGER

@<TRIPOS>ATOM
      1 C          -5.7426  -18.6306   22.1036 C.3     1  UNL1        0.0564
      2 C          -6.9265  -17.9499   22.7241 C.3     1  UNL1        0.1119
      3 C          -8.3451  -18.4356   22.6817 C.ar    1  UNL1       -0.0002
      4 C          -8.9727  -19.6481   22.0606 C.ar    1  UNL1       -0.0024
      5 C         -10.4502  -19.8748   22.1850 C.ar    1  UNL1       -0.0003
      6 C         -11.3001  -18.8890   22.9306 C.ar    1  UNL1        0.0000
      7 C         -10.6725  -17.6765   23.5517 C.ar    1  UNL1        0.0012
      8 C          -9.1950  -17.4498   23.4273 C.ar    1  UNL1        0.0152
      9 C          -8.3017  -16.3548   23.9304 C.ar    1  UNL1        0.0804
     10 C          -8.2749  -15.0688   24.7022 C.ar    1  UNL1        0.1177
     11 N          -6.8563  -14.5832   24.7445 N.ar    1  UNL1       -0.2223
     12 C          -6.0064  -15.5690   23.9990 C.ar    1  UNL1        0.1788
     13 N          -6.8997  -16.6639   23.4958 N.ar    1  UNL1       -0.3069
     14 O          -4.1383  -18.5097   24.1437 O.3     1  UNL1       -0.3844
     15 C          -4.3697  -18.4074   22.6652 C.3     1  UNL1        0.1127
     16 H          -4.9735  -18.7249   24.5875 H       1  UNL1        0.2103
     17 C          -3.2281  -18.0818   21.7481 C.3     1  UNL1        0.0274
     18 C          -2.3874  -16.8654   21.9999 C.3     1  UNL1        0.0080
     19 C          -1.2459  -16.5398   21.0829 C.3     1  UNL1        0.0666
     20 C          -0.9451  -17.4307   19.9141 C.3     1  UNL1        0.2639
     21 F          -0.2711  -17.9633   18.6845 F       1  UNL1       -0.2043
     22 F           0.1298  -16.3992   19.7388 F       1  UNL1       -0.2043
     23 C          -1.7859  -18.6471   19.6624 C.3     1  UNL1        0.0666
     24 C          -2.9274  -18.9726   20.5794 C.3     1  UNL1        0.0080
@<TRIPOS>BOND
     1    14    15    1
     2    15     1    1
     3     1     2    1
     4     2     3    1
     5     3     4   ar
     6     4     5   ar
     7     5     6   ar
     8     6     7   ar
     9     7     8   ar
    10     8     9    1
    11     9    10   ar
    12    10    11   ar
    13    11    12   ar
    14    12    13   ar
    15    15    17    1
    16    17    18    1
    17    18    19    1
    18    19    20    1
    19    20    21    1
    20    20    22    1
    21    20    23    1
    22    23    24    1
    23    13     2    1
    24    24    17    1
    25     8     3   ar
    26    13     9   ar
    27    14    16    1
@<TRIPOS>MOLECULE
*****
 24 27 0 0 0
SMALL
GASTEIGER

@<TRIPOS>ATOM
      1 C          -9.6557  -19.7560   24.1053 C.3     1  UNL1        0.0564
      2 C          -9.4689  -19.4480   22.6492 C.3     1  UNL1        0.1119
      3 C          -8.2389  -19.7315   21.8388 C.ar    1  UNL1       -0.0002
      4 C          -6.9234  -20.3571   22.1965 C.ar    1  UNL1       -0.0024
      5 C          -5.8581  -20.5125   21.1521 C.ar    1  UNL1       -0.0003
      6 C          -6.1083  -20.0421   19.7498 C.ar    1  UNL1        0.0000
      7 C          -7.4238  -19.4165   19.3921 C.ar    1  UNL1        0.0012
      8 C          -8.4891  -19.2612   20.4366 C.ar    1  UNL1        0.0152
      9 C          -9.8737  -18.6870   20.3804 C.ar    1  UNL1        0.0804
     10 C         -10.8841  -18.0414   19.4790 C.ar    1  UNL1        0.1177
     11 N         -12.1141  -17.7580   20.2895 N.ar    1  UNL1       -0.2223
     12 C         -11.8639  -18.2283   21.6917 C.ar    1  UNL1        0.1788
     13 N         -10.4793  -18.8025   21.7479 N.ar    1  UNL1       -0.3069
     14 O         -11.5671  -18.6861   25.5026 O.3     1  UNL1       -0.3844
     15 C         -10.1397  -18.6886   25.0416 C.3     1  UNL1        0.1127
     16 H         -12.0365  -19.4362   25.1051 H       1  UNL1        0.2103
     17 C          -9.1962  -17.6237   25.5169 C.3     1  UNL1        0.0274
     18 C          -8.4163  -16.8148   24.5232 C.3     1  UNL1        0.0080
     19 C          -7.4729  -15.7499   24.9984 C.3     1  UNL1        0.0666
     20 C          -7.3093  -15.4939   26.4673 C.3     1  UNL1        0.2639
     21 F          -6.8153  -14.8833   27.7453 F       1  UNL1       -0.2043
     22 F          -6.3578  -14.4730   25.9174 F       1  UNL1       -0.2043
     23 C          -8.0892  -16.3028   27.4610 C.3     1  UNL1        0.0666
     24 C          -9.0326  -17.3677   26.9858 C.3     1  UNL1        0.0080
@<TRIPOS>BOND
     1    14    15    1
     2    15     1    1
     3     1     2    1
     4     2     3    1
     5     3     4   ar
     6     4     5   ar
     7     5     6   ar
     8     6     7   ar
     9     7     8   ar
    10     8     9    1
    11     9    10   ar
    12    10    11   ar
    13    11    12   ar
    14    12    13   ar
    15    15    17    1
    16    17    18    1
    17    18    19    1
    18    19    20    1
    19    20    21    1
    20    20    22    1
    21    20    23    1
    22    23    24    1
    23    13     2    1
    24    24    17    1
    25     8     3   ar
    26    13     9   ar
    27    14    16    1
