@<TRIPOS>MOLECULE
*****
 30 33 0 0 0
SMALL
GASTEIGER

@<TRIPOS>ATOM
      1 N          -7.9678  -19.5416   21.4583 N.3     1  UNL1       -0.2641
      2 C          -8.6212  -19.1560   22.7523 C.3     1  UNL1        0.0981
      3 C          -9.4838  -20.1437   23.4805 C.3     1  UNL1        0.0224
      4 C         -10.1372  -19.7580   24.7745 C.3     1  UNL1        0.0065
      5 C          -9.9280  -18.3847   25.3402 C.3     1  UNL1        0.0277
      6 C          -9.0654  -17.3970   24.6120 C.ar    1  UNL1       -0.0073
      7 C          -8.8562  -16.0236   25.1778 C.ar    1  UNL1       -0.0015
      8 C          -7.9936  -15.0359   24.4496 C.ar    1  UNL1        0.0203
      9 C          -7.3401  -15.4215   23.1556 C.ar    1  UNL1        0.0985
     10 N          -7.5493  -16.7948   22.5899 N.ar    1  UNL1       -0.2471
     11 C          -8.4120  -17.7826   23.3181 C.ar    1  UNL1        0.0695
     12 C          -8.6407  -19.2268   20.1553 C.3     1  UNL1        0.0989
     13 C         -11.1384  -18.5116   20.1436 C.2     1  UNL1       -0.0125
     14 C         -10.0884  -19.5665   19.9575 C.2     1  UNL1       -0.0120
     15 N         -11.0682  -15.9676   19.6211 N.3     1  UNL1       -0.3175
     16 C         -10.7409  -17.1171   20.5274 C.3     1  UNL1        0.0916
     17 H         -10.7270  -15.1002   20.0354 H       1  UNL1        0.1192
     18 H         -12.0789  -15.9102   19.4963 H       1  UNL1        0.1192
     19 C          -6.6414  -20.2420   21.4674 C.3     1  UNL1        0.0888
     20 C          -5.3715  -19.4435   21.4686 C.3     1  UNL1        0.0748
     21 C          -4.5010  -19.4173   20.2474 C.3     1  UNL1        0.0432
     22 C          -3.2311  -18.6188   20.2486 C.ar    1  UNL1       -0.0234
     23 C          -2.3605  -18.5926   19.0274 C.ar    1  UNL1       -0.0045
     24 C          -1.0907  -17.7942   19.0286 C.ar    1  UNL1       -0.0003
     25 C          -0.6915  -17.0219   20.2510 C.ar    1  UNL1       -0.0003
     26 C          -1.5621  -17.0481   21.4722 C.ar    1  UNL1       -0.0032
     27 C          -2.8319  -17.8466   21.4710 C.ar    1  UNL1       -0.0103
     28 C          -3.7026  -17.8728   22.6922 C.3     1  UNL1        0.0953
     29 N          -4.9723  -18.6713   22.6910 N.3     1  UNL1       -0.2934
     30 H          -5.7309  -18.0184   22.8876 H       1  UNL1        0.1236
@<TRIPOS>BOND
     1    15    16    1
     2    16    13    1
     3    13    14    2
     4    14    12    1
     5    12     1    1
     6     1    19    1
     7    20    19    1
     8    20    21    1
     9    21    22    1
    10    22    23   ar
    11    23    24   ar
    12    24    25   ar
    13    25    26   ar
    14    26    27   ar
    15    27    28    1
    16    28    29    1
    17     2     1    1
    18     2     3    1
    19     3     4    1
    20     4     5    1
    21     5     6    1
    22     6     7   ar
    23     7     8   ar
    24     8     9   ar
    25     9    10   ar
    26    10    11   ar
    27    29    20    1
    28    11     2    1
    29    27    22   ar
    30    11     6   ar
    31    15    17    1
    32    15    18    1
    33    29    30    1
@<TRIPOS>MOLECULE
*****
 30 33 0 0 0
SMALL
GASTEIGER

@<TRIPOS>ATOM
      1 N          -8.4263  -17.8880   23.0592 N.3     1  UNL1       -0.2641
      2 C          -9.9198  -17.9404   23.1886 C.3     1  UNL1        0.0981
      3 C         -10.5470  -18.6251   24.3666 C.3     1  UNL1        0.0224
      4 C         -12.0405  -18.6774   24.4960 C.3     1  UNL1        0.0065
      5 C         -12.9068  -18.0451   23.4474 C.3     1  UNL1        0.0277
      6 C         -12.2796  -17.3603   22.2694 C.ar    1  UNL1       -0.0073
      7 C         -13.1459  -16.7279   21.2207 C.ar    1  UNL1       -0.0015
      8 C         -12.5186  -16.0432   20.0427 C.ar    1  UNL1        0.0203
      9 C         -11.0252  -15.9908   19.9134 C.ar    1  UNL1        0.0985
     10 N         -10.1589  -16.6232   20.9620 N.ar    1  UNL1       -0.2471
     11 C         -10.7861  -17.3080   22.1400 C.ar    1  UNL1        0.0695
     12 C          -7.7011  -16.5905   23.2604 C.3     1  UNL1        0.0989
     13 C          -6.3856  -15.4128   25.1663 C.2     1  UNL1       -0.0125
     14 C          -7.6739  -15.9488   24.6160 C.2     1  UNL1       -0.0120
     15 N          -4.9553  -14.6928   23.1204 N.3     1  UNL1       -0.3175
     16 C          -5.1244  -15.5186   24.3611 C.3     1  UNL1        0.0916
     17 H          -4.0459  -14.8896   22.7024 H       1  UNL1        0.1192
     18 H          -5.0122  -13.7031   23.3603 H       1  UNL1        0.1192
     19 C          -7.6580  -19.1332   22.7287 C.3     1  UNL1        0.0888
     20 C          -6.4374  -19.0531   21.8606 C.3     1  UNL1        0.0748
     21 C          -5.0927  -18.8073   22.4781 C.3     1  UNL1        0.0432
     22 C          -3.8720  -18.7272   21.6100 C.ar    1  UNL1       -0.0234
     23 C          -2.5273  -18.4813   22.2275 C.ar    1  UNL1       -0.0045
     24 C          -1.3067  -18.4013   21.3594 C.ar    1  UNL1       -0.0003
     25 C          -1.4308  -18.5670   19.8738 C.ar    1  UNL1       -0.0003
     26 C          -2.7755  -18.8128   19.2562 C.ar    1  UNL1       -0.0032
     27 C          -3.9961  -18.8929   20.1244 C.ar    1  UNL1       -0.0103
     28 C          -5.3408  -19.1387   19.5068 C.3     1  UNL1        0.0953
     29 N          -6.5614  -19.2188   20.3750 N.3     1  UNL1       -0.2934
     30 H          -6.9770  -20.1364   20.2147 H       1  UNL1        0.1236
@<TRIPOS>BOND
     1    15    16    1
     2    16    13    1
     3    13    14    2
     4    14    12    1
     5    12     1    1
     6     1    19    1
     7    20    19    1
     8    20    21    1
     9    21    22    1
    10    22    23   ar
    11    23    24   ar
    12    24    25   ar
    13    25    26   ar
    14    26    27   ar
    15    27    28    1
    16    28    29    1
    17     2     1    1
    18     2     3    1
    19     3     4    1
    20     4     5    1
    21     5     6    1
    22     6     7   ar
    23     7     8   ar
    24     8     9   ar
    25     9    10   ar
    26    10    11   ar
    27    29    20    1
    28    11     2    1
    29    27    22   ar
    30    11     6   ar
    31    15    17    1
    32    15    18    1
    33    29    30    1
@<TRIPOS>MOLECULE
*****
 30 33 0 0 0
SMALL
GASTEIGER

@<TRIPOS>ATOM
      1 N          -5.7588  -19.0880   21.1906 N.3     1  UNL1       -0.2641
      2 C          -5.2406  -18.3040   22.3596 C.3     1  UNL1        0.0981
      3 C          -3.9386  -18.6845   22.9999 C.3     1  UNL1        0.0224
      4 C          -3.4203  -17.9005   24.1690 C.3     1  UNL1        0.0065
      5 C          -4.2040  -16.7360   24.6978 C.3     1  UNL1        0.0277
      6 C          -5.5060  -16.3555   24.0575 C.ar    1  UNL1       -0.0073
      7 C          -6.2898  -15.1909   24.5864 C.ar    1  UNL1       -0.0015
      8 C          -7.5918  -14.8104   23.9461 C.ar    1  UNL1        0.0203
      9 C          -8.1101  -15.5944   22.7770 C.ar    1  UNL1        0.0985
     10 N          -7.3263  -16.7589   22.2482 N.ar    1  UNL1       -0.2471
     11 C          -6.0243  -17.1395   22.8885 C.ar    1  UNL1        0.0695
     12 C          -5.1108  -18.9453   19.8453 C.3     1  UNL1        0.0989
     13 C          -2.5747  -18.9168   19.2818 C.2     1  UNL1       -0.0125
     14 C          -3.8386  -19.6808   19.5439 C.2     1  UNL1       -0.0120
     15 N          -2.3689  -16.7000   20.6210 N.3     1  UNL1       -0.3175
     16 C          -2.5829  -17.4173   19.3212 C.3     1  UNL1        0.0916
     17 H          -2.4056  -15.6929   20.4636 H       1  UNL1        0.1192
     18 H          -1.4567  -16.9516   21.0020 H       1  UNL1        0.1192
     19 C          -6.9251  -20.0146   21.3667 C.3     1  UNL1        0.0888
     20 C          -8.3093  -19.4572   21.5209 C.3     1  UNL1        0.0748
     21 C          -9.0288  -19.5878   22.8305 C.3     1  UNL1        0.0432
     22 C         -10.4129  -19.0305   22.9847 C.ar    1  UNL1       -0.0234
     23 C         -11.1324  -19.1611   24.2943 C.ar    1  UNL1       -0.0045
     24 C         -12.5165  -18.6038   24.4484 C.ar    1  UNL1       -0.0003
     25 C         -13.1810  -17.9159   23.2929 C.ar    1  UNL1       -0.0003
     26 C         -12.4614  -17.7853   21.9833 C.ar    1  UNL1       -0.0032
     27 C         -11.0774  -18.3426   21.8292 C.ar    1  UNL1       -0.0103
     28 C         -10.3578  -18.2120   20.5195 C.3     1  UNL1        0.0953
     29 N          -8.9738  -18.7693   20.3654 N.3     1  UNL1       -0.2934
     30 H          -8.3707  -17.9907   20.0999 H       1  UNL1        0.1236
@<TRIPOS>BOND
     1    15    16    1
     2    16    13    1
     3    13    14    2
     4    14    12    1
     5    12     1    1
     6     1    19    1
     7    20    19    1
     8    20    21    1
     9    21    22    1
    10    22    23   ar
    11    23    24   ar
    12    24    25   ar
    13    25    26   ar
    14    26    27   ar
    15    27    28    1
    16    28    29    1
    17     2     1    1
    18     2     3    1
    19     3     4    1
    20     4     5    1
    21     5     6    1
    22     6     7   ar
    23     7     8   ar
    24     8     9   ar
    25     9    10   ar
    26    10    11   ar
    27    29    20    1
    28    11     2    1
    29    27    22   ar
    30    11     6   ar
    31    15    17    1
    32    15    18    1
    33    29    30    1
@<TRIPOS>MOLECULE
*****
 30 33 0 0 0
SMALL
GASTEIGER

@<TRIPOS>ATOM
      1 N          -8.5369  -17.6146   23.0430 N.3     1  UNL1       -0.2641
      2 C          -9.8460  -17.2353   22.4167 C.3     1  UNL1        0.0981
      3 C          -9.8665  -16.4621   21.1315 C.3     1  UNL1        0.0224
      4 C         -11.1757  -16.0828   20.5052 C.3     1  UNL1        0.0065
      5 C         -12.4643  -16.4766   21.1640 C.3     1  UNL1        0.0277
      6 C         -12.4438  -17.2499   22.4492 C.ar    1  UNL1       -0.0073
      7 C         -13.7326  -17.6438   23.1081 C.ar    1  UNL1       -0.0015
      8 C         -13.7121  -18.4170   24.3933 C.ar    1  UNL1        0.0203
      9 C         -12.4029  -18.7964   25.0196 C.ar    1  UNL1        0.0985
     10 N         -11.1143  -18.4025   24.3607 N.ar    1  UNL1       -0.2471
     11 C         -11.1347  -17.6292   23.0755 C.ar    1  UNL1        0.0695
     12 C          -7.8840  -16.6948   24.0316 C.3     1  UNL1        0.0989
     13 C          -5.9000  -15.0838   24.4992 C.2     1  UNL1       -0.0125
     14 C          -6.9252  -15.6430   23.5578 C.2     1  UNL1       -0.0120
     15 N          -6.5021  -14.8008   27.0107 N.3     1  UNL1       -0.3175
     16 C          -5.8336  -15.5763   25.9145 C.3     1  UNL1        0.0916
     17 H          -6.3570  -15.2768   27.9011 H       1  UNL1        0.1192
     18 H          -7.5018  -14.7347   26.8194 H       1  UNL1        0.1192
     19 C          -7.8806  -18.9138   22.6806 C.3     1  UNL1        0.0888
     20 C          -6.6361  -18.9175   21.8432 C.3     1  UNL1        0.0748
     21 C          -5.3004  -18.6817   22.4837 C.3     1  UNL1        0.0432
     22 C          -4.0559  -18.6854   21.6463 C.ar    1  UNL1       -0.0234
     23 C          -2.7202  -18.4496   22.2868 C.ar    1  UNL1       -0.0045
     24 C          -1.4758  -18.4533   21.4494 C.ar    1  UNL1       -0.0003
     25 C          -1.5670  -18.6929   19.9715 C.ar    1  UNL1       -0.0003
     26 C          -2.9027  -18.9287   19.3309 C.ar    1  UNL1       -0.0032
     27 C          -4.1471  -18.9249   20.1683 C.ar    1  UNL1       -0.0103
     28 C          -5.4829  -19.1608   19.5278 C.3     1  UNL1        0.0953
     29 N          -6.7273  -19.1570   20.3652 N.3     1  UNL1       -0.2934
     30 H          -7.1683  -20.0684   20.2413 H       1  UNL1        0.1236
@<TRIPOS>BOND
     1    15    16    1
     2    16    13    1
     3    13    14    2
     4    14    12    1
     5    12     1    1
     6     1    19    1
     7    20    19    1
     8    20    21    1
     9    21    22    1
    10    22    23   ar
    11    23    24   ar
    12    24    25   ar
    13    25    26   ar
    14    26    27   ar
    15    27    28    1
    16    28    29    1
    17     2     1    1
    18     2     3    1
    19     3     4    1
    20     4     5    1
    21     5     6    1
    22     6     7   ar
    23     7     8   ar
    24     8     9   ar
    25     9    10   ar
    26    10    11   ar
    27    29    20    1
    28    11     2    1
    29    27    22   ar
    30    11     6   ar
    31    15    17    1
    32    15    18    1
    33    29    30    1
@<TRIPOS>MOLECULE
*****
 30 33 0 0 0
SMALL
GASTEIGER

@<TRIPOS>ATOM
      1 N          -7.7243  -18.8000   22.3018 N.3     1  UNL1       -0.2641
      2 C          -8.9363  -18.8493   21.4194 C.3     1  UNL1        0.0981
      3 C          -8.7933  -19.1988   19.9677 C.3     1  UNL1        0.0224
      4 C         -10.0052  -19.2481   19.0852 C.3     1  UNL1        0.0065
      5 C         -11.3601  -18.9480   19.6544 C.3     1  UNL1        0.0277
      6 C         -11.5031  -18.5986   21.1061 C.ar    1  UNL1       -0.0073
      7 C         -12.8581  -18.2985   21.6754 C.ar    1  UNL1       -0.0015
      8 C         -13.0011  -17.9491   23.1270 C.ar    1  UNL1        0.0203
      9 C         -11.7892  -17.8997   24.0095 C.ar    1  UNL1        0.0985
     10 N         -10.4343  -18.1998   23.4403 N.ar    1  UNL1       -0.2471
     11 C         -10.2912  -18.5493   21.9886 C.ar    1  UNL1        0.0695
     12 C          -7.5814  -17.7072   23.3193 C.3     1  UNL1        0.0989
     13 C          -6.8395  -15.2173   23.3057 C.2     1  UNL1       -0.0125
     14 C          -7.8276  -16.2804   22.9271 C.2     1  UNL1       -0.0120
     15 N          -4.4346  -16.1983   23.3703 N.3     1  UNL1       -0.3175
     16 C          -5.6051  -15.5809   24.0765 C.3     1  UNL1        0.0916
     17 H          -3.6888  -16.3789   24.0422 H       1  UNL1        0.1192
     18 H          -4.0964  -15.5597   22.6504 H       1  UNL1        0.1192
     19 C          -6.6553  -19.8435   22.1669 C.3     1  UNL1        0.0888
     20 C          -5.2505  -19.4389   21.8304 C.3     1  UNL1        0.0748
     21 C          -4.9052  -19.0197   20.4323 C.3     1  UNL1        0.0432
     22 C          -3.5005  -18.6152   20.0959 C.ar    1  UNL1       -0.0234
     23 C          -3.1551  -18.1959   18.6977 C.ar    1  UNL1       -0.0045
     24 C          -1.7505  -17.7914   18.3613 C.ar    1  UNL1       -0.0003
     25 C          -0.6911  -17.8061   19.4232 C.ar    1  UNL1       -0.0003
     26 C          -1.0364  -18.2254   20.8213 C.ar    1  UNL1       -0.0032
     27 C          -2.4411  -18.6299   21.1577 C.ar    1  UNL1       -0.0103
     28 C          -2.7864  -19.0492   22.5559 C.3     1  UNL1        0.0953
     29 N          -4.1911  -19.4537   22.8923 N.3     1  UNL1       -0.2934
     30 H          -4.5082  -18.8285   23.6332 H       1  UNL1        0.1236
@<TRIPOS>BOND
     1    15    16    1
     2    16    13    1
     3    13    14    2
     4    14    12    1
     5    12     1    1
     6     1    19    1
     7    20    19    1
     8    20    21    1
     9    21    22    1
    10    22    23   ar
    11    23    24   ar
    12    24    25   ar
    13    25    26   ar
    14    26    27   ar
    15    27    28    1
    16    28    29    1
    17     2     1    1
    18     2     3    1
    19     3     4    1
    20     4     5    1
    21     5     6    1
    22     6     7   ar
    23     7     8   ar
    24     8     9   ar
    25     9    10   ar
    26    10    11   ar
    27    29    20    1
    28    11     2    1
    29    27    22   ar
    30    11     6   ar
    31    15    17    1
    32    15    18    1
    33    29    30    1
@<TRIPOS>MOLECULE
*****
 30 33 0 0 0
SMALL
GASTEIGER

@<TRIPOS>ATOM
      1 N         -12.8545   -6.1362   17.3730 N.3     1  UNL1       -0.2641
      2 C         -13.1179   -5.1016   18.4266 C.3     1  UNL1        0.0981
      3 C         -13.7805   -5.4939   19.7138 C.3     1  UNL1        0.0224
      4 C         -14.0439   -4.4593   20.7675 C.3     1  UNL1        0.0065
      5 C         -13.6447   -3.0324   20.5340 C.3     1  UNL1        0.0277
      6 C         -12.9821   -2.6401   19.2468 C.ar    1  UNL1       -0.0073
      7 C         -12.5828   -1.2132   19.0132 C.ar    1  UNL1       -0.0015
      8 C         -11.9201   -0.8209   17.7260 C.ar    1  UNL1        0.0203
      9 C         -11.6567   -1.8555   16.6723 C.ar    1  UNL1        0.0985
     10 N         -12.0559   -3.2824   16.9059 N.ar    1  UNL1       -0.2471
     11 C         -12.7186   -3.6747   18.1931 C.ar    1  UNL1        0.0695
     12 C         -11.4913   -6.7495   17.2483 C.3     1  UNL1        0.0989
     13 C          -9.6957   -6.3140   19.0748 C.2     1  UNL1       -0.0125
     14 C         -10.7533   -7.1934   18.4765 C.2     1  UNL1       -0.0120
     15 N          -9.5624   -3.7238   19.2258 N.3     1  UNL1       -0.3175
     16 C          -9.3759   -4.9907   18.4449 C.3     1  UNL1        0.0916
     17 H          -9.2989   -2.9260   18.6475 H       1  UNL1        0.1192
     18 H          -8.9748   -3.7484   20.0592 H       1  UNL1        0.1192
     19 C         -13.9542   -6.5575   16.4440 C.3     1  UNL1        0.0888
     20 C         -14.9746   -7.5599   16.8955 C.3     1  UNL1        0.0748
     21 C         -16.4141   -7.3908   16.5094 C.3     1  UNL1        0.0432
     22 C         -17.4346   -8.3933   16.9610 C.ar    1  UNL1       -0.0234
     23 C         -18.8741   -8.2242   16.5748 C.ar    1  UNL1       -0.0045
     24 C         -19.8944   -9.2266   17.0264 C.ar    1  UNL1       -0.0003
     25 C         -19.4752  -10.3982   17.8641 C.ar    1  UNL1       -0.0003
     26 C         -18.0357  -10.5673   18.2502 C.ar    1  UNL1       -0.0032
     27 C         -17.0154   -9.5649   17.7986 C.ar    1  UNL1       -0.0103
     28 C         -15.5758   -9.7340   18.1847 C.3     1  UNL1        0.0953
     29 N         -14.5554   -8.7315   17.7332 N.3     1  UNL1       -0.2934
     30 H         -13.8575   -9.2441   17.1942 H       1  UNL1        0.1236
@<TRIPOS>BOND
     1    15    16    1
     2    16    13    1
     3    13    14    2
     4    14    12    1
     5    12     1    1
     6     1    19    1
     7    20    19    1
     8    20    21    1
     9    21    22    1
    10    22    23   ar
    11    23    24   ar
    12    24    25   ar
    13    25    26   ar
    14    26    27   ar
    15    27    28    1
    16    28    29    1
    17     2     1    1
    18     2     3    1
    19     3     4    1
    20     4     5    1
    21     5     6    1
    22     6     7   ar
    23     7     8   ar
    24     8     9   ar
    25     9    10   ar
    26    10    11   ar
    27    29    20    1
    28    11     2    1
    29    27    22   ar
    30    11     6   ar
    31    15    17    1
    32    15    18    1
    33    29    30    1
@<TRIPOS>MOLECULE
*****
 30 33 0 0 0
SMALL
GASTEIGER

@<TRIPOS>ATOM
      1 N          -7.7942  -18.0415   22.8877 N.3     1  UNL1       -0.2641
      2 C          -9.1344  -18.4726   22.3698 C.3     1  UNL1        0.0981
      3 C          -9.6733  -19.8279   22.7201 C.3     1  UNL1        0.0224
      4 C         -11.0134  -20.2589   22.2021 C.3     1  UNL1        0.0065
      5 C         -11.8146  -19.3347   21.3340 C.3     1  UNL1        0.0277
      6 C         -11.2757  -17.9794   20.9837 C.ar    1  UNL1       -0.0073
      7 C         -12.0770  -17.0551   20.1155 C.ar    1  UNL1       -0.0015
      8 C         -11.5381  -15.6998   19.7653 C.ar    1  UNL1        0.0203
      9 C         -10.1980  -15.2687   20.2832 C.ar    1  UNL1        0.0985
     10 N          -9.3967  -16.1930   21.1513 N.ar    1  UNL1       -0.2471
     11 C          -9.9356  -17.5483   21.5016 C.ar    1  UNL1        0.0695
     12 C          -7.6504  -16.7249   23.5917 C.3     1  UNL1        0.0989
     13 C          -8.3388  -15.7721   25.9087 C.2     1  UNL1       -0.0125
     14 C          -8.7149  -16.2621   24.5418 C.2     1  UNL1       -0.0120
     15 N          -6.3567  -14.5641   27.0756 N.3     1  UNL1       -0.3175
     16 C          -6.8982  -15.7448   26.3256 C.3     1  UNL1        0.0916
     17 H          -5.3678  -14.7133   27.2766 H       1  UNL1        0.1192
     18 H          -6.8686  -14.4534   27.9509 H       1  UNL1        0.1192
     19 C          -6.5980  -18.9271   22.7016 C.3     1  UNL1        0.0888
     20 C          -5.2689  -18.3279   22.3486 C.3     1  UNL1        0.0748
     21 C          -4.5024  -18.8461   21.1680 C.3     1  UNL1        0.0432
     22 C          -3.1733  -18.2470   20.8150 C.ar    1  UNL1       -0.0234
     23 C          -2.4068  -18.7651   19.6344 C.ar    1  UNL1       -0.0045
     24 C          -1.0777  -18.1660   19.2815 C.ar    1  UNL1       -0.0003
     25 C          -0.5152  -17.0486   20.1092 C.ar    1  UNL1       -0.0003
     26 C          -1.2817  -16.5304   21.2898 C.ar    1  UNL1       -0.0032
     27 C          -2.6107  -17.1296   21.6427 C.ar    1  UNL1       -0.0103
     28 C          -3.3773  -16.6114   22.8234 C.3     1  UNL1        0.0953
     29 N          -4.7063  -17.2106   23.1763 N.3     1  UNL1       -0.2934
     30 H          -5.3878  -16.4521   23.1492 H       1  UNL1        0.1236
@<TRIPOS>BOND
     1    15    16    1
     2    16    13    1
     3    13    14    2
     4    14    12    1
     5    12     1    1
     6     1    19    1
     7    20    19    1
     8    20    21    1
     9    21    22    1
    10    22    23   ar
    11    23    24   ar
    12    24    25   ar
    13    25    26   ar
    14    26    27   ar
    15    27    28    1
    16    28    29    1
    17     2     1    1
    18     2     3    1
    19     3     4    1
    20     4     5    1
    21     5     6    1
    22     6     7   ar
    23     7     8   ar
    24     8     9   ar
    25     9    10   ar
    26    10    11   ar
    27    29    20    1
    28    11     2    1
    29    27    22   ar
    30    11     6   ar
    31    15    17    1
    32    15    18    1
    33    29    30    1
