@<TRIPOS>MOLECULE
*****
 33 36 0 0 0
SMALL
GASTEIGER

@<TRIPOS>ATOM
      1 N          -5.9890  -18.1609   22.3443 N.ar    1  UNL1       -0.3028
      2 C          -7.0600  -19.2020   22.2058 C.ar    1  UNL1        0.0834
      3 C          -8.2176  -18.7935   23.0678 C.ar    1  UNL1        0.0600
      4 C          -7.8621  -17.5000   23.7391 C.ar    1  UNL1        0.0481
      5 C          -8.6146  -16.6278   24.6996 C.ar    1  UNL1        0.1416
      6 F          -9.9920  -17.0187   25.1468 F       1  UNL1       -0.2041
      7 C          -7.9898  -15.3645   25.2131 C.ar    1  UNL1        0.0297
      8 C          -6.6124  -14.9735   24.7659 C.ar    1  UNL1        0.0038
      9 C          -5.8599  -15.8458   23.8053 C.ar    1  UNL1        0.0177
     10 C          -6.4847  -17.1091   23.2919 C.ar    1  UNL1        0.0664
     11 C          -1.9908  -18.1884   20.2795 C.ar    1  UNL1        0.0163
     12 C          -2.0832  -17.8181   21.7301 C.ar    1  UNL1        0.0028
     13 C          -3.4160  -17.8090   22.4183 C.ar    1  UNL1        0.0198
     14 C          -4.6563  -18.1701   21.6561 C.ar    1  UNL1        0.0916
     15 C          -4.5638  -18.5404   20.2054 C.ar    1  UNL1        0.1561
     16 F          -5.8041  -18.9015   19.4430 F       1  UNL1       -0.2026
     17 C          -3.2311  -18.5496   19.5171 C.ar    1  UNL1        0.0323
     18 O          -0.5822  -18.0397   18.1015 O.co2   1  UNL1       -0.5446
     19 C          -0.6580  -18.1976   19.5912 C.2     1  UNL1        0.0729
     20 O           0.5989  -18.3647   20.3927 O.co2   1  UNL1       -0.5446
     21 C          -9.5048  -19.5464   23.2301 C.2     1  UNL1        0.1979
     22 O          -9.4992  -20.9209   23.8304 O.2     1  UNL1       -0.2865
     23 C         -10.7978  -18.9245   22.7922 C.ar    1  UNL1        0.0535
     24 C         -11.8820  -18.6631   23.7952 C.ar    1  UNL1        0.0607
     25 CL        -11.6732  -19.0235   25.2363 Cl      1  UNL1       -0.0821
     26 C         -13.1748  -18.0412   23.3574 C.ar    1  UNL1        0.0115
     27 C         -13.3835  -17.6809   21.9163 C.ar    1  UNL1        0.0008
     28 C         -12.2993  -17.9423   20.9133 C.ar    1  UNL1        0.0040
     29 C         -11.0065  -18.5641   21.3511 C.ar    1  UNL1        0.0753
     30 C          -9.9223  -18.8256   20.3480 C.3     1  UNL1        0.4187
     31 F          -8.8381  -19.0870   19.3450 F       1  UNL1       -0.1659
     32 F          -9.3843  -17.4430   20.5692 F       1  UNL1       -0.1659
     33 F         -10.4603  -20.2082   20.1269 F       1  UNL1       -0.1659
@<TRIPOS>UNITY_ATOM_ATTR
18 1
charge -1
@<TRIPOS>BOND
     1    18    19   ar
     2    19    20   ar
     3    19    11    1
     4    11    12   ar
     5    12    13   ar
     6    13    14   ar
     7    14     1    1
     8     1     2   ar
     9     2     3   ar
    10     3    21    1
    11    21    22    2
    12    21    23    1
    13    23    24   ar
    14    24    25    1
    15    24    26   ar
    16    26    27   ar
    17    27    28   ar
    18    28    29   ar
    19    29    30    1
    20    30    31    1
    21    30    32    1
    22    30    33    1
    23     3     4   ar
    24     4     5   ar
    25     5     6    1
    26     5     7   ar
    27     7     8   ar
    28     8     9   ar
    29     9    10   ar
    30    14    15   ar
    31    15    16    1
    32    15    17   ar
    33    17    11   ar
    34    10     1   ar
    35    29    23   ar
    36    10     4   ar
@<TRIPOS>MOLECULE
*****
 33 36 0 0 0
SMALL
GASTEIGER

@<TRIPOS>ATOM
      1 N          -5.5016  -17.0470   23.0370 N.ar    1  UNL1       -0.3028
      2 C          -6.8412  -17.5341   22.5699 C.ar    1  UNL1        0.0834
      3 C          -7.8689  -17.0940   23.5699 C.ar    1  UNL1        0.0600
      4 C          -7.1646  -16.3349   24.6551 C.ar    1  UNL1        0.0481
      5 C          -7.6664  -15.6664   25.9006 C.ar    1  UNL1        0.1416
      6 F          -9.1295  -15.6955   26.2299 F       1  UNL1       -0.2041
      7 C          -6.7052  -14.9689   26.8167 C.ar    1  UNL1        0.0297
      8 C          -5.2420  -14.9398   26.4874 C.ar    1  UNL1        0.0038
      9 C          -4.7402  -15.6083   25.2419 C.ar    1  UNL1        0.0177
     10 C          -5.7015  -16.3058   24.3258 C.ar    1  UNL1        0.0664
     11 C          -1.5729  -17.6953   20.9405 C.ar    1  UNL1        0.0163
     12 C          -1.9101  -16.3455   21.5012 C.ar    1  UNL1        0.0028
     13 C          -3.2196  -16.1294   22.2000 C.ar    1  UNL1        0.0198
     14 C          -4.1921  -17.2630   22.3382 C.ar    1  UNL1        0.0916
     15 C          -3.8549  -18.6129   21.7774 C.ar    1  UNL1        0.1561
     16 F          -4.8273  -19.7466   21.9156 F       1  UNL1       -0.2026
     17 C          -2.5454  -18.8290   21.0786 C.ar    1  UNL1        0.0323
     18 O           0.7161  -16.7820   20.1182 O.co2   1  UNL1       -0.5446
     19 C          -0.2634  -17.9113   20.2416 C.2     1  UNL1        0.0729
     20 O           0.0667  -19.2567   19.6662 O.co2   1  UNL1       -0.5446
     21 C          -9.3424  -17.3654   23.4974 C.2     1  UNL1        0.1979
     22 O         -10.2311  -16.9923   24.6467 O.2     1  UNL1       -0.2865
     23 C          -9.9272  -18.0098   22.2756 C.ar    1  UNL1        0.0535
     24 C         -10.3749  -17.1621   21.1219 C.ar    1  UNL1        0.0607
     25 CL        -10.2378  -15.6699   21.1902 Cl      1  UNL1       -0.0821
     26 C         -10.9596  -17.8064   19.9001 C.ar    1  UNL1        0.0115
     27 C         -11.0967  -19.2986   19.8320 C.ar    1  UNL1        0.0008
     28 C         -10.6490  -20.1463   20.9857 C.ar    1  UNL1        0.0040
     29 C         -10.0643  -19.5020   22.2075 C.ar    1  UNL1        0.0753
     30 C          -9.6166  -20.3497   23.3611 C.3     1  UNL1        0.4187
     31 F          -9.1689  -21.1975   24.5147 F       1  UNL1       -0.1659
     32 F          -8.2343  -20.4083   22.7816 F       1  UNL1       -0.1659
     33 F         -10.9989  -20.2912   23.9406 F       1  UNL1       -0.1659
@<TRIPOS>UNITY_ATOM_ATTR
18 1
charge -1
@<TRIPOS>BOND
     1    18    19   ar
     2    19    20   ar
     3    19    11    1
     4    11    12   ar
     5    12    13   ar
     6    13    14   ar
     7    14     1    1
     8     1     2   ar
     9     2     3   ar
    10     3    21    1
    11    21    22    2
    12    21    23    1
    13    23    24   ar
    14    24    25    1
    15    24    26   ar
    16    26    27   ar
    17    27    28   ar
    18    28    29   ar
    19    29    30    1
    20    30    31    1
    21    30    32    1
    22    30    33    1
    23     3     4   ar
    24     4     5   ar
    25     5     6    1
    26     5     7   ar
    27     7     8   ar
    28     8     9   ar
    29     9    10   ar
    30    14    15   ar
    31    15    16    1
    32    15    17   ar
    33    17    11   ar
    34    10     1   ar
    35    29    23   ar
    36    10     4   ar
@<TRIPOS>MOLECULE
*****
 33 36 0 0 0
SMALL
GASTEIGER

@<TRIPOS>ATOM
      1 N          -0.0085    2.5481   20.6086 N.ar    1  UNL1       -0.3028
      2 C          -0.9789    3.5093   19.9886 C.ar    1  UNL1        0.0834
      3 C          -1.8115    4.1006   21.0872 C.ar    1  UNL1        0.0600
      4 C          -1.3558    3.5049   22.3862 C.ar    1  UNL1        0.0481
      5 C          -1.8115    3.7122   23.8001 C.ar    1  UNL1        0.1416
      6 F          -2.9259    4.6718   24.0959 F       1  UNL1       -0.2041
      7 C          -1.1529    2.9600   24.9183 C.ar    1  UNL1        0.0297
      8 C          -0.0385    2.0005   24.6225 C.ar    1  UNL1        0.0038
      9 C           0.4172    1.7932   23.2086 C.ar    1  UNL1        0.0177
     10 C          -0.2414    2.5454   22.0904 C.ar    1  UNL1        0.0664
     11 C           3.0624    0.1019   18.4095 C.ar    1  UNL1        0.0163
     12 C           3.0984    1.5993   18.3288 C.ar    1  UNL1        0.0028
     13 C           2.0747    2.4146   19.0619 C.ar    1  UNL1        0.0198
     14 C           1.0152    1.7327   19.8756 C.ar    1  UNL1        0.0916
     15 C           0.9792    0.2352   19.9563 C.ar    1  UNL1        0.1561
     16 F          -0.0803   -0.4468   20.7700 F       1  UNL1       -0.2026
     17 C           2.0029   -0.5801   19.2233 C.ar    1  UNL1        0.0323
     18 O           5.2884   -1.2378   18.4041 O.co2   1  UNL1       -0.5446
     19 C           4.0861   -0.7135   17.6765 C.2     1  UNL1        0.0729
     20 O           3.9074   -1.0045   16.2159 O.co2   1  UNL1       -0.5446
     21 C          -2.9076    5.1104   20.9167 C.2     1  UNL1        0.1979
     22 O          -2.8435    6.4177   21.6492 O.2     1  UNL1       -0.2865
     23 C          -4.0678    4.8128   20.0136 C.ar    1  UNL1        0.0535
     24 C          -4.0327    5.2492   18.5789 C.ar    1  UNL1        0.0607
     25 CL         -2.8373    5.9832   18.0474 Cl      1  UNL1       -0.0821
     26 C          -5.1927    4.9517   17.6758 C.ar    1  UNL1        0.0115
     27 C          -6.3880    4.2177   18.2075 C.ar    1  UNL1        0.0008
     28 C          -6.4231    3.7812   19.6421 C.ar    1  UNL1        0.0040
     29 C          -5.2630    4.0788   20.5452 C.ar    1  UNL1        0.0753
     30 C          -5.2981    3.6424   21.9799 C.3     1  UNL1        0.4187
     31 F          -5.3332    3.2060   23.4146 F       1  UNL1       -0.1659
     32 F          -5.8849    4.9670   22.3685 F       1  UNL1       -0.1659
     33 F          -4.7114    2.3177   21.5913 F       1  UNL1       -0.1659
@<TRIPOS>UNITY_ATOM_ATTR
18 1
charge -1
@<TRIPOS>BOND
     1    18    19   ar
     2    19    20   ar
     3    19    11    1
     4    11    12   ar
     5    12    13   ar
     6    13    14   ar
     7    14     1    1
     8     1     2   ar
     9     2     3   ar
    10     3    21    1
    11    21    22    2
    12    21    23    1
    13    23    24   ar
    14    24    25    1
    15    24    26   ar
    16    26    27   ar
    17    27    28   ar
    18    28    29   ar
    19    29    30    1
    20    30    31    1
    21    30    32    1
    22    30    33    1
    23     3     4   ar
    24     4     5   ar
    25     5     6    1
    26     5     7   ar
    27     7     8   ar
    28     8     9   ar
    29     9    10   ar
    30    14    15   ar
    31    15    16    1
    32    15    17   ar
    33    17    11   ar
    34    10     1   ar
    35    29    23   ar
    36    10     4   ar
@<TRIPOS>MOLECULE
*****
 33 36 0 0 0
SMALL
GASTEIGER

@<TRIPOS>ATOM
      1 N           3.8955   -0.4905   31.7747 N.ar    1  UNL1       -0.3028
      2 C           2.8082   -0.1727   30.7914 C.ar    1  UNL1        0.0834
      3 C           1.9978    0.9608   31.3468 C.ar    1  UNL1        0.0600
      4 C           2.5842    1.3435   32.6734 C.ar    1  UNL1        0.0481
      5 C           2.2017    2.3928   33.6746 C.ar    1  UNL1        0.1416
      6 F           1.0289    3.2898   33.4101 F       1  UNL1       -0.2041
      7 C           2.9921    2.5452   34.9403 C.ar    1  UNL1        0.0297
      8 C           4.1649    1.6483   35.2048 C.ar    1  UNL1        0.0038
      9 C           4.5474    0.5989   34.2035 C.ar    1  UNL1        0.0177
     10 C           3.7570    0.4466   32.9378 C.ar    1  UNL1        0.0664
     11 C           7.0235   -3.6929   31.3160 C.ar    1  UNL1        0.0163
     12 C           6.9012   -2.6107   30.2846 C.ar    1  UNL1        0.0028
     13 C           5.8585   -1.5433   30.4375 C.ar    1  UNL1        0.0198
     14 C           4.9382   -1.5579   31.6218 C.ar    1  UNL1        0.0916
     15 C           5.0605   -2.6401   32.6533 C.ar    1  UNL1        0.1561
     16 F           4.1402   -2.6548   33.8377 F       1  UNL1       -0.2026
     17 C           6.1032   -3.7076   32.5004 C.ar    1  UNL1        0.0323
     18 O           7.7225   -6.0524   30.4832 O.co2   1  UNL1       -0.5446
     19 C           8.0662   -4.7603   31.1631 C.2     1  UNL1        0.0729
     20 O           9.4525   -4.5356   31.6900 O.co2   1  UNL1       -0.5446
     21 C           0.8096    1.5994   30.6909 C.2     1  UNL1        0.1979
     22 O          -0.4764    1.7468   31.4486 O.2     1  UNL1       -0.2865
     23 C           0.9075    2.0908   29.2769 C.ar    1  UNL1        0.0535
     24 C           1.7062    3.3214   28.9641 C.ar    1  UNL1        0.0607
     25 CL          2.4070    4.0605   30.0653 Cl      1  UNL1       -0.0821
     26 C           1.8040    3.8128   27.5503 C.ar    1  UNL1        0.0115
     27 C           1.1032    3.0735   26.4493 C.ar    1  UNL1        0.0008
     28 C           0.3045    1.8430   26.7620 C.ar    1  UNL1        0.0040
     29 C           0.2066    1.3516   28.1758 C.ar    1  UNL1        0.0753
     30 C          -0.5921    0.1211   28.4886 C.3     1  UNL1        0.4187
     31 F          -1.3908   -1.1095   28.8014 F       1  UNL1       -0.1659
     32 F          -1.8477    0.9414   28.5096 F       1  UNL1       -0.1659
     33 F           0.6636   -0.6993   28.4676 F       1  UNL1       -0.1659
@<TRIPOS>UNITY_ATOM_ATTR
18 1
charge -1
@<TRIPOS>BOND
     1    18    19   ar
     2    19    20   ar
     3    19    11    1
     4    11    12   ar
     5    12    13   ar
     6    13    14   ar
     7    14     1    1
     8     1     2   ar
     9     2     3   ar
    10     3    21    1
    11    21    22    2
    12    21    23    1
    13    23    24   ar
    14    24    25    1
    15    24    26   ar
    16    26    27   ar
    17    27    28   ar
    18    28    29   ar
    19    29    30    1
    20    30    31    1
    21    30    32    1
    22    30    33    1
    23     3     4   ar
    24     4     5   ar
    25     5     6    1
    26     5     7   ar
    27     7     8   ar
    28     8     9   ar
    29     9    10   ar
    30    14    15   ar
    31    15    16    1
    32    15    17   ar
    33    17    11   ar
    34    10     1   ar
    35    29    23   ar
    36    10     4   ar
@<TRIPOS>MOLECULE
*****
 33 36 0 0 0
SMALL
GASTEIGER

@<TRIPOS>ATOM
      1 N           0.0048    1.9995   22.6428 N.ar    1  UNL1       -0.3028
      2 C          -0.7997    3.1003   22.0176 C.ar    1  UNL1        0.0834
      3 C          -1.5736    3.7840   23.1055 C.ar    1  UNL1        0.0600
      4 C          -1.2473    3.1059   24.4031 C.ar    1  UNL1        0.0481
      5 C          -1.7125    3.3502   25.8080 C.ar    1  UNL1        0.1416
      6 F          -2.6881    4.4531   26.0940 F       1  UNL1       -0.2041
      7 C          -1.2021    2.4915   26.9270 C.ar    1  UNL1        0.0297
      8 C          -0.2265    1.3886   26.6410 C.ar    1  UNL1        0.0038
      9 C           0.2386    1.1443   25.2361 C.ar    1  UNL1        0.0177
     10 C          -0.2718    2.0029   24.1171 C.ar    1  UNL1        0.0664
     11 C           2.7642   -0.8186   20.4761 C.ar    1  UNL1        0.0163
     12 C           1.3090   -0.7689   20.1159 C.ar    1  UNL1        0.0028
     13 C           0.3892    0.1705   20.8381 C.ar    1  UNL1        0.0198
     14 C           0.9246    1.0601   21.9206 C.ar    1  UNL1        0.0916
     15 C           2.3799    1.0104   22.2809 C.ar    1  UNL1        0.1561
     16 F           2.9154    1.9000   23.3633 F       1  UNL1       -0.2026
     17 C           3.2997    0.0710   21.5586 C.ar    1  UNL1        0.0323
     18 O           5.0687   -1.3154   19.3842 O.co2   1  UNL1       -0.5446
     19 C           3.6840   -1.7580   19.7539 C.2     1  UNL1        0.0729
     20 O           3.2190   -3.1398   19.4013 O.co2   1  UNL1       -0.5446
     21 C          -2.5095    4.9426   22.9272 C.2     1  UNL1        0.1979
     22 O          -2.2664    6.2241   23.6678 O.2     1  UNL1       -0.2865
     23 C          -3.6887    4.8197   22.0082 C.ar    1  UNL1        0.0535
     24 C          -3.5674    5.2369   20.5725 C.ar    1  UNL1        0.0607
     25 CL         -2.2669    5.7772   20.0559 Cl      1  UNL1       -0.0821
     26 C          -4.7465    5.1140   19.6535 C.ar    1  UNL1        0.0115
     27 C          -6.0469    4.5738   20.1702 C.ar    1  UNL1        0.0008
     28 C          -6.1683    4.1565   21.6059 C.ar    1  UNL1        0.0040
     29 C          -4.9892    4.2795   22.5249 C.ar    1  UNL1        0.0753
     30 C          -5.1105    3.8622   23.9605 C.3     1  UNL1        0.4187
     31 F          -5.2318    3.4449   25.3962 F       1  UNL1       -0.1659
     32 F          -4.7630    2.4534   23.5805 F       1  UNL1       -0.1659
     33 F          -5.4580    5.2710   24.3406 F       1  UNL1       -0.1659
@<TRIPOS>UNITY_ATOM_ATTR
18 1
charge -1
@<TRIPOS>BOND
     1    18    19   ar
     2    19    20   ar
     3    19    11    1
     4    11    12   ar
     5    12    13   ar
     6    13    14   ar
     7    14     1    1
     8     1     2   ar
     9     2     3   ar
    10     3    21    1
    11    21    22    2
    12    21    23    1
    13    23    24   ar
    14    24    25    1
    15    24    26   ar
    16    26    27   ar
    17    27    28   ar
    18    28    29   ar
    19    29    30    1
    20    30    31    1
    21    30    32    1
    22    30    33    1
    23     3     4   ar
    24     4     5   ar
    25     5     6    1
    26     5     7   ar
    27     7     8   ar
    28     8     9   ar
    29     9    10   ar
    30    14    15   ar
    31    15    16    1
    32    15    17   ar
    33    17    11   ar
    34    10     1   ar
    35    29    23   ar
    36    10     4   ar
@<TRIPOS>MOLECULE
*****
 33 36 0 0 0
SMALL
GASTEIGER

@<TRIPOS>ATOM
      1 N          -5.7291  -16.8606   23.1378 N.ar    1  UNL1       -0.3028
      2 C          -7.1062  -17.1246   22.6050 C.ar    1  UNL1        0.0834
      3 C          -8.0966  -16.6881   23.6435 C.ar    1  UNL1        0.0600
      4 C          -7.3316  -16.1544   24.8183 C.ar    1  UNL1        0.0481
      5 C          -7.7784  -15.5851   26.1321 C.ar    1  UNL1        0.1416
      6 F          -9.2416  -15.4785   26.4447 F       1  UNL1       -0.2041
      7 C          -6.7619  -15.1224   27.1335 C.ar    1  UNL1        0.0297
      8 C          -5.2987  -15.2290   26.8209 C.ar    1  UNL1        0.0038
      9 C          -4.8520  -15.7983   25.5071 C.ar    1  UNL1        0.0177
     10 C          -5.8684  -16.2610   24.5057 C.ar    1  UNL1        0.0664
     11 C          -1.8592  -17.7169   21.0070 C.ar    1  UNL1        0.0163
     12 C          -2.8594  -18.8151   21.2157 C.ar    1  UNL1        0.0028
     13 C          -4.1493  -18.5296   21.9260 C.ar    1  UNL1        0.0198
     14 C          -4.4391  -17.1460   22.4276 C.ar    1  UNL1        0.0916
     15 C          -3.4389  -16.0478   22.2188 C.ar    1  UNL1        0.1561
     16 F          -3.7286  -14.6641   22.7204 F       1  UNL1       -0.2026
     17 C          -2.1489  -16.3333   21.5085 C.ar    1  UNL1        0.0323
     18 O          -0.5683  -18.2634   18.8196 O.co2   1  UNL1       -0.5446
     19 C          -0.5692  -18.0024   20.2967 C.2     1  UNL1        0.0729
     20 O           0.7198  -18.0268   21.0635 O.co2   1  UNL1       -0.5446
     21 C          -9.5898  -16.7708   23.5277 C.2     1  UNL1        0.1979
     22 O         -10.4428  -15.6296   23.9965 O.2     1  UNL1       -0.2865
     23 C         -10.2301  -17.9950   22.9430 C.ar    1  UNL1        0.0535
     24 C         -10.2695  -19.2702   23.7318 C.ar    1  UNL1        0.0607
     25 CL         -9.6687  -19.3213   25.1053 Cl      1  UNL1       -0.0821
     26 C         -10.9097  -20.4942   23.1473 C.ar    1  UNL1        0.0115
     27 C         -11.5105  -20.4430   21.7738 C.ar    1  UNL1        0.0008
     28 C         -11.4710  -19.1678   20.9850 C.ar    1  UNL1        0.0040
     29 C         -10.8309  -17.9438   21.5695 C.ar    1  UNL1        0.0753
     30 C         -10.7914  -16.6685   20.7807 C.3     1  UNL1        0.4187
     31 F         -10.7520  -15.3933   19.9919 F       1  UNL1       -0.1659
     32 F         -12.1051  -16.2587   21.3776 F       1  UNL1       -0.1659
     33 F          -9.4777  -17.0783   20.1839 F       1  UNL1       -0.1659
@<TRIPOS>UNITY_ATOM_ATTR
18 1
charge -1
@<TRIPOS>BOND
     1    18    19   ar
     2    19    20   ar
     3    19    11    1
     4    11    12   ar
     5    12    13   ar
     6    13    14   ar
     7    14     1    1
     8     1     2   ar
     9     2     3   ar
    10     3    21    1
    11    21    22    2
    12    21    23    1
    13    23    24   ar
    14    24    25    1
    15    24    26   ar
    16    26    27   ar
    17    27    28   ar
    18    28    29   ar
    19    29    30    1
    20    30    31    1
    21    30    32    1
    22    30    33    1
    23     3     4   ar
    24     4     5   ar
    25     5     6    1
    26     5     7   ar
    27     7     8   ar
    28     8     9   ar
    29     9    10   ar
    30    14    15   ar
    31    15    16    1
    32    15    17   ar
    33    17    11   ar
    34    10     1   ar
    35    29    23   ar
    36    10     4   ar
@<TRIPOS>MOLECULE
*****
 33 36 0 0 0
SMALL
GASTEIGER

@<TRIPOS>ATOM
      1 N           7.2740   -3.8170   25.4854 N.ar    1  UNL1       -0.3028
      2 C           6.7703   -2.6136   24.7451 C.ar    1  UNL1        0.0834
      3 C           7.0726   -2.8054   23.2885 C.ar    1  UNL1        0.0600
      4 C           7.7631   -4.1274   23.1285 C.ar    1  UNL1        0.0481
      5 C           8.2946   -4.8426   21.9219 C.ar    1  UNL1        0.1416
      6 F           8.1701   -4.2174   20.5641 F       1  UNL1       -0.2041
      7 C           8.9506   -6.1831   22.0731 C.ar    1  UNL1        0.0297
      8 C           9.0750   -6.8083   23.4309 C.ar    1  UNL1        0.0038
      9 C           8.5436   -6.0930   24.6375 C.ar    1  UNL1        0.0177
     10 C           7.8876   -4.7526   24.4863 C.ar    1  UNL1        0.0664
     11 C           6.9936   -4.5006   29.9244 C.ar    1  UNL1        0.0163
     12 C           7.5913   -3.2298   29.3975 C.ar    1  UNL1        0.0028
     13 C           7.6848   -3.0019   27.9179 C.ar    1  UNL1        0.0198
     14 C           7.1806   -4.0448   26.9651 C.ar    1  UNL1        0.0916
     15 C           6.5828   -5.3158   27.4919 C.ar    1  UNL1        0.1561
     16 F           6.0786   -6.3588   26.5391 F       1  UNL1       -0.2026
     17 C           6.4894   -5.5437   28.9716 C.ar    1  UNL1        0.0323
     18 O           6.9584   -3.5637   32.3473 O.co2   1  UNL1       -0.5446
     19 C           6.9002   -4.7285   31.4040 C.2     1  UNL1        0.0729
     20 O           6.7485   -6.1211   31.9403 O.co2   1  UNL1       -0.5446
     21 C           6.7424   -1.8441   22.1854 C.2     1  UNL1        0.1979
     22 O           7.8345   -1.2983   21.3142 O.2     1  UNL1       -0.2865
     23 C           5.3198   -1.4285   21.9536 C.ar    1  UNL1        0.0535
     24 C           4.7718   -0.2134   22.6414 C.ar    1  UNL1        0.0607
     25 CL          5.6464    0.5862   23.5611 Cl      1  UNL1       -0.0821
     26 C           3.3493    0.2022   22.4096 C.ar    1  UNL1        0.0115
     27 C           2.4748   -0.5974   21.4899 C.ar    1  UNL1        0.0008
     28 C           3.0227   -1.8125   20.8021 C.ar    1  UNL1        0.0040
     29 C           4.4452   -2.2281   21.0339 C.ar    1  UNL1        0.0753
     30 C           4.9932   -3.4433   20.3460 C.3     1  UNL1        0.4187
     31 F           5.5412   -4.6584   19.6582 F       1  UNL1       -0.1659
     32 F           5.4556   -2.5881   19.2037 F       1  UNL1       -0.1659
     33 F           4.5308   -4.2984   21.4883 F       1  UNL1       -0.1659
@<TRIPOS>UNITY_ATOM_ATTR
18 1
charge -1
@<TRIPOS>BOND
     1    18    19   ar
     2    19    20   ar
     3    19    11    1
     4    11    12   ar
     5    12    13   ar
     6    13    14   ar
     7    14     1    1
     8     1     2   ar
     9     2     3   ar
    10     3    21    1
    11    21    22    2
    12    21    23    1
    13    23    24   ar
    14    24    25    1
    15    24    26   ar
    16    26    27   ar
    17    27    28   ar
    18    28    29   ar
    19    29    30    1
    20    30    31    1
    21    30    32    1
    22    30    33    1
    23     3     4   ar
    24     4     5   ar
    25     5     6    1
    26     5     7   ar
    27     7     8   ar
    28     8     9   ar
    29     9    10   ar
    30    14    15   ar
    31    15    16    1
    32    15    17   ar
    33    17    11   ar
    34    10     1   ar
    35    29    23   ar
    36    10     4   ar
@<TRIPOS>MOLECULE
*****
 33 36 0 0 0
SMALL
GASTEIGER

@<TRIPOS>ATOM
      1 N           2.8863    1.3847   19.0370 N.ar    1  UNL1       -0.3028
      2 C           3.3391   -0.0324   19.2285 C.ar    1  UNL1        0.0834
      3 C           4.7158   -0.1617   18.6472 C.ar    1  UNL1        0.0600
      4 C           5.1139    1.1756   18.0965 C.ar    1  UNL1        0.0481
      5 C           6.3599    1.6465   17.4068 C.ar    1  UNL1        0.1416
      6 F           7.4907    0.6908   17.1659 F       1  UNL1       -0.2041
      7 C           6.4752    3.0731   16.9580 C.ar    1  UNL1        0.0297
      8 C           5.3445    4.0288   17.1989 C.ar    1  UNL1        0.0038
      9 C           4.0985    3.5579   17.8886 C.ar    1  UNL1        0.0177
     10 C           3.9832    2.1313   18.3374 C.ar    1  UNL1        0.0664
     11 C          -1.0685    3.0960   20.3338 C.ar    1  UNL1        0.0163
     12 C          -0.6515    3.1774   18.8952 C.ar    1  UNL1        0.0028
     13 C           0.6667    2.6070   18.4630 C.ar    1  UNL1        0.0198
     14 C           1.5680    1.9552   19.4692 C.ar    1  UNL1        0.0916
     15 C           1.1511    1.8738   20.9079 C.ar    1  UNL1        0.1561
     16 F           2.0524    1.2219   21.9142 F       1  UNL1       -0.2026
     17 C          -0.1672    2.4442   21.3401 C.ar    1  UNL1        0.0323
     18 O          -2.4969    5.1218   21.1118 O.co2   1  UNL1       -0.5446
     19 C          -2.3867    3.6665   20.7660 C.2     1  UNL1        0.0729
     20 O          -3.5948    2.7815   20.8523 O.co2   1  UNL1       -0.5446
     21 C           5.5484   -1.4091   18.6212 C.2     1  UNL1        0.1979
     22 O           5.9873   -1.9908   17.3102 O.2     1  UNL1       -0.2865
     23 C           5.9421   -2.0750   19.9065 C.ar    1  UNL1        0.0535
     24 C           7.0754   -1.5241   20.7202 C.ar    1  UNL1        0.0607
     25 CL          7.8149   -0.3072   20.2486 Cl      1  UNL1       -0.0821
     26 C           7.4691   -2.1899   22.0053 C.ar    1  UNL1        0.0115
     27 C           6.7294   -3.4067   22.4768 C.ar    1  UNL1        0.0008
     28 C           5.5961   -3.9577   21.6631 C.ar    1  UNL1        0.0040
     29 C           5.2024   -3.2919   20.3780 C.ar    1  UNL1        0.0753
     30 C           4.0691   -3.8428   19.5643 C.3     1  UNL1        0.4187
     31 F           2.9359   -4.3938   18.7506 F       1  UNL1       -0.1659
     32 F           5.0285   -4.7318   18.8300 F       1  UNL1       -0.1659
     33 F           3.1097   -2.9538   20.2986 F       1  UNL1       -0.1659
@<TRIPOS>UNITY_ATOM_ATTR
18 1
charge -1
@<TRIPOS>BOND
     1    18    19   ar
     2    19    20   ar
     3    19    11    1
     4    11    12   ar
     5    12    13   ar
     6    13    14   ar
     7    14     1    1
     8     1     2   ar
     9     2     3   ar
    10     3    21    1
    11    21    22    2
    12    21    23    1
    13    23    24   ar
    14    24    25    1
    15    24    26   ar
    16    26    27   ar
    17    27    28   ar
    18    28    29   ar
    19    29    30    1
    20    30    31    1
    21    30    32    1
    22    30    33    1
    23     3     4   ar
    24     4     5   ar
    25     5     6    1
    26     5     7   ar
    27     7     8   ar
    28     8     9   ar
    29     9    10   ar
    30    14    15   ar
    31    15    16    1
    32    15    17   ar
    33    17    11   ar
    34    10     1   ar
    35    29    23   ar
    36    10     4   ar
@<TRIPOS>MOLECULE
*****
 33 36 0 0 0
SMALL
GASTEIGER

@<TRIPOS>ATOM
      1 N           2.9417    0.8329   20.9591 N.ar    1  UNL1       -0.3028
      2 C           3.4692   -0.5036   20.5285 C.ar    1  UNL1        0.0834
      3 C           4.3052   -0.2980   19.3001 C.ar    1  UNL1        0.0600
      4 C           4.2945    1.1655   18.9717 C.ar    1  UNL1        0.0481
      5 C           4.9432    1.9520   17.8714 C.ar    1  UNL1        0.1416
      6 F           5.7859    1.2531   16.8461 F       1  UNL1       -0.2041
      7 C           4.7491    3.4375   17.7965 C.ar    1  UNL1        0.0297
      8 C           3.9064    4.1365   18.8218 C.ar    1  UNL1        0.0038
      9 C           3.2577    3.3500   19.9221 C.ar    1  UNL1        0.0177
     10 C           3.4518    1.8645   19.9970 C.ar    1  UNL1        0.0664
     11 C           0.2939    1.6113   24.5135 C.ar    1  UNL1        0.0163
     12 C           1.6324    0.9613   24.7033 C.ar    1  UNL1        0.0028
     13 C           2.5150    0.7019   23.5185 C.ar    1  UNL1        0.0198
     14 C           2.0592    1.0923   22.1439 C.ar    1  UNL1        0.0916
     15 C           0.7206    1.7423   21.9541 C.ar    1  UNL1        0.1561
     16 F           0.2647    2.1328   20.5794 F       1  UNL1       -0.2026
     17 C          -0.1620    2.0018   23.1389 C.ar    1  UNL1        0.0323
     18 O          -0.3297    1.1635   26.9955 O.co2   1  UNL1       -0.5446
     19 C          -0.5887    1.8707   25.6983 C.2     1  UNL1        0.0729
     20 O          -1.7301    2.8373   25.5859 O.co2   1  UNL1       -0.5446
     21 C           5.0256   -1.3681   18.5347 C.2     1  UNL1        0.1979
     22 O           4.6585   -1.6453   17.1070 O.2     1  UNL1       -0.2865
     23 C           6.1132   -2.1611   19.1969 C.ar    1  UNL1        0.0535
     24 C           7.4920   -1.5840   19.3226 C.ar    1  UNL1        0.0607
     25 CL          7.7832   -0.2138   18.7859 Cl      1  UNL1       -0.0821
     26 C           8.5795   -2.3768   19.9848 C.ar    1  UNL1        0.0115
     27 C           8.2882   -3.7469   20.5214 C.ar    1  UNL1        0.0008
     28 C           6.9094   -4.3241   20.3958 C.ar    1  UNL1        0.0040
     29 C           5.8218   -3.5312   19.7336 C.ar    1  UNL1        0.0753
     30 C           4.4430   -4.1084   19.6080 C.3     1  UNL1        0.4187
     31 F           3.0642   -4.6855   19.4824 F       1  UNL1       -0.1659
     32 F           4.1101   -3.6125   20.9839 F       1  UNL1       -0.1659
     33 F           4.7760   -4.6043   18.2320 F       1  UNL1       -0.1659
@<TRIPOS>UNITY_ATOM_ATTR
18 1
charge -1
@<TRIPOS>BOND
     1    18    19   ar
     2    19    20   ar
     3    19    11    1
     4    11    12   ar
     5    12    13   ar
     6    13    14   ar
     7    14     1    1
     8     1     2   ar
     9     2     3   ar
    10     3    21    1
    11    21    22    2
    12    21    23    1
    13    23    24   ar
    14    24    25    1
    15    24    26   ar
    16    26    27   ar
    17    27    28   ar
    18    28    29   ar
    19    29    30    1
    20    30    31    1
    21    30    32    1
    22    30    33    1
    23     3     4   ar
    24     4     5   ar
    25     5     6    1
    26     5     7   ar
    27     7     8   ar
    28     8     9   ar
    29     9    10   ar
    30    14    15   ar
    31    15    16    1
    32    15    17   ar
    33    17    11   ar
    34    10     1   ar
    35    29    23   ar
    36    10     4   ar
