@<TRIPOS>MOLECULE
*****
 35 38 0 0 0
SMALL
GASTEIGER

@<TRIPOS>ATOM
      1 C           1.6803    0.7506   25.3151 C.ar    1  UNL1        0.0908
      2 C           0.5322    1.2809   24.5084 C.ar    1  UNL1        0.1363
      3 N           0.9676    1.3538   23.0748 N.ar    1  UNL1       -0.1660
      4 N           2.3848    0.8687   22.9955 N.ar    1  UNL1       -0.2436
      5 C           2.8252    0.4959   24.3801 C.ar    1  UNL1        0.1117
      6 O           1.8389    3.0780   27.2015 O.2     1  UNL1       -0.2680
      7 C           1.7623    1.6799   27.7399 C.2     1  UNL1        0.2706
      8 N           1.6830    0.5163   26.7967 N.am    1  UNL1       -0.2766
      9 H           1.6327   -0.4012   27.1500 H       1  UNL1        0.1553
     10 C           1.7650    1.4457   29.2215 C.ar    1  UNL1        0.1765
     11 C           2.8694    0.8080   30.0112 C.ar    1  UNL1        0.0704
     12 C           2.4508    0.7762   31.4513 C.ar    1  UNL1        0.2126
     13 O           1.0877    1.3942   31.5515 O.2     1  UNL1       -0.3501
     14 N           0.6638    1.8079   30.1735 N.ar    1  UNL1       -0.0722
     15 C           3.2543    0.2235   32.5910 C.ar    1  UNL1        0.2003
     16 N           3.6416    1.1118   33.7359 N.ar    1  UNL1       -0.2224
     17 C           4.4450    0.5590   34.8756 C.ar    1  UNL1        0.1023
     18 C           4.8612   -0.8820   34.8703 C.ar    1  UNL1        0.0414
     19 C           4.4740   -1.7703   33.7255 C.ar    1  UNL1        0.1023
     20 N           3.6705   -1.2176   32.5857 N.ar    1  UNL1       -0.2224
     21 C           3.2156    0.7730   21.7503 C.3     1  UNL1        0.1538
     22 C           3.5152   -0.5685   21.1497 C.ar    1  UNL1        0.0060
     23 C           4.6101   -1.4189   21.7224 C.ar    1  UNL1       -0.0024
     24 C           4.9098   -2.7604   21.1219 C.ar    1  UNL1        0.0036
     25 C           4.1145   -3.2514   19.9487 C.ar    1  UNL1        0.0714
     26 C           3.0196   -2.4010   19.3761 C.ar    1  UNL1        0.0074
     27 C           2.7200   -1.0595   19.9766 C.ar    1  UNL1        0.0693
     28 C           4.4142   -4.5929   19.3482 C.3     1  UNL1        0.4186
     29 F           4.7138   -5.9344   18.7476 F       1  UNL1       -0.1659
     30 F           2.9883   -4.7095   18.8974 F       1  UNL1       -0.1659
     31 F           5.8400   -4.4763   19.7990 F       1  UNL1       -0.1659
     32 C           1.6251   -0.2091   19.4039 C.3     1  UNL1        0.4183
     33 F           0.5301    0.6413   18.8312 F       1  UNL1       -0.1659
     34 F           2.6006    0.3971   18.4390 F       1  UNL1       -0.1659
     35 F           0.6496   -0.8153   20.3687 F       1  UNL1       -0.1659
@<TRIPOS>BOND
     1     6     7    2
     2     7     8   am
     3     8     1    1
     4     1     2   ar
     5     2     3   ar
     6     3     4   ar
     7     4    21    1
     8    21    22    1
     9    22    23   ar
    10    23    24   ar
    11    24    25   ar
    12    25    28    1
    13    28    29    1
    14    28    30    1
    15    28    31    1
    16    25    26   ar
    17    26    27   ar
    18    27    32    1
    19    32    33    1
    20    32    34    1
    21    32    35    1
    22     4     5   ar
    23     7    10    1
    24    10    11   ar
    25    11    12   ar
    26    12    15    1
    27    15    16   ar
    28    16    17   ar
    29    17    18   ar
    30    18    19   ar
    31    19    20   ar
    32    12    13   ar
    33    13    14   ar
    34     5     1   ar
    35    14    10   ar
    36    27    22   ar
    37    20    15   ar
    38     8     9    1
@<TRIPOS>MOLECULE
*****
 35 38 0 0 0
SMALL
GASTEIGER

@<TRIPOS>ATOM
      1 C           7.0258   -3.1886   25.1949 C.ar    1  UNL1        0.0908
      2 C           8.2447   -2.8668   24.3819 C.ar    1  UNL1        0.1363
      3 N           7.9106   -3.0916   22.9370 N.ar    1  UNL1       -0.1660
      4 N           6.4853   -3.5523   22.8570 N.ar    1  UNL1       -0.2436
      5 C           5.9385   -3.6123   24.2525 C.ar    1  UNL1        0.1117
      6 O           6.9149   -5.6957   26.8389 O.2     1  UNL1       -0.2680
      7 C           6.8585   -4.3554   27.5102 C.2     1  UNL1        0.2706
      8 N           6.9140   -3.1019   26.6883 N.am    1  UNL1       -0.2766
      9 H           6.8770   -2.2223   27.1289 H       1  UNL1        0.1553
     10 C           6.7467   -4.2689   29.0036 C.ar    1  UNL1        0.1765
     11 C           6.3753   -3.0470   29.7905 C.ar    1  UNL1        0.0704
     12 C           6.3856   -3.4119   31.2454 C.ar    1  UNL1        0.2126
     13 O           6.7634   -4.8592   31.3576 O.2     1  UNL1       -0.3501
     14 N           6.9866   -5.3888   29.9721 N.ar    1  UNL1       -0.0722
     15 C           6.0731   -2.4911   32.3875 C.ar    1  UNL1        0.2003
     16 N           7.1223   -1.5501   32.9010 N.ar    1  UNL1       -0.2224
     17 C           6.8098   -0.6293   34.0431 C.ar    1  UNL1        0.1023
     18 C           5.4480   -0.6495   34.6717 C.ar    1  UNL1        0.0414
     19 C           4.3988   -1.5903   34.1582 C.ar    1  UNL1        0.1023
     20 N           4.7113   -2.5112   33.0160 N.ar    1  UNL1       -0.2224
     21 C           5.7380   -3.8932   21.6019 C.3     1  UNL1        0.1538
     22 C           4.6707   -2.9715   21.0906 C.ar    1  UNL1        0.0060
     23 C           4.2763   -1.7646   21.8893 C.ar    1  UNL1       -0.0024
     24 C           3.2091   -0.8429   21.3781 C.ar    1  UNL1        0.0036
     25 C           2.5362   -1.1281   20.0682 C.ar    1  UNL1        0.0714
     26 C           2.9306   -2.3349   19.2695 C.ar    1  UNL1        0.0074
     27 C           3.9979   -3.2566   19.7807 C.ar    1  UNL1        0.0693
     28 C           1.4689   -0.2064   19.5569 C.3     1  UNL1        0.4186
     29 F           0.4017    0.7153   19.0456 F       1  UNL1       -0.1659
     30 F           2.4363    0.3615   18.5611 F       1  UNL1       -0.1659
     31 F           0.5015   -0.7742   20.5527 F       1  UNL1       -0.1659
     32 C           4.3923   -4.4635   18.9820 C.3     1  UNL1        0.4183
     33 F           4.7867   -5.6704   18.1833 F       1  UNL1       -0.1659
     34 F           3.3716   -5.2824   19.7153 F       1  UNL1       -0.1659
     35 F           5.4130   -3.6446   18.2487 F       1  UNL1       -0.1659
@<TRIPOS>BOND
     1     6     7    2
     2     7     8   am
     3     8     1    1
     4     1     2   ar
     5     2     3   ar
     6     3     4   ar
     7     4    21    1
     8    21    22    1
     9    22    23   ar
    10    23    24   ar
    11    24    25   ar
    12    25    28    1
    13    28    29    1
    14    28    30    1
    15    28    31    1
    16    25    26   ar
    17    26    27   ar
    18    27    32    1
    19    32    33    1
    20    32    34    1
    21    32    35    1
    22     4     5   ar
    23     7    10    1
    24    10    11   ar
    25    11    12   ar
    26    12    15    1
    27    15    16   ar
    28    16    17   ar
    29    17    18   ar
    30    18    19   ar
    31    19    20   ar
    32    12    13   ar
    33    13    14   ar
    34     5     1   ar
    35    14    10   ar
    36    27    22   ar
    37    20    15   ar
    38     8     9    1
@<TRIPOS>MOLECULE
*****
 35 38 0 0 0
SMALL
GASTEIGER

@<TRIPOS>ATOM
      1 C           2.6588    1.5105   25.7397 C.ar    1  UNL1        0.0908
      2 C           4.1114    1.3252   25.4148 C.ar    1  UNL1        0.1363
      3 N           4.2194    0.9670   23.9622 N.ar    1  UNL1       -0.1660
      4 N           2.8336    0.9310   23.3894 N.ar    1  UNL1       -0.2436
      5 C           1.8691    1.2669   24.4879 C.ar    1  UNL1        0.1117
      6 O           2.4692   -0.5612   27.9013 O.2     1  UNL1       -0.2680
      7 C           2.0001    0.8397   28.1617 C.2     1  UNL1        0.2706
      8 N           2.0949    1.8755   27.0809 N.am    1  UNL1       -0.2766
      9 H           1.7870    2.7948   27.2518 H       1  UNL1        0.1553
     10 C           1.4362    1.2045   29.5030 C.ar    1  UNL1        0.1765
     11 C           2.1813    1.8724   30.6205 C.ar    1  UNL1        0.0704
     12 C           1.2339    2.0462   31.7704 C.ar    1  UNL1        0.2126
     13 O          -0.0966    1.4858   31.3636 O.2     1  UNL1       -0.3501
     14 N           0.0284    0.9656   29.9622 N.ar    1  UNL1       -0.0722
     15 C           1.5599    2.6708   33.0946 C.ar    1  UNL1        0.2003
     16 N           1.0235    4.0296   33.4353 N.ar    1  UNL1       -0.2224
     17 C           1.3495    4.6542   34.7595 C.ar    1  UNL1        0.1023
     18 C           2.2119    3.9201   35.7431 C.ar    1  UNL1        0.0414
     19 C           2.7482    2.5614   35.4024 C.ar    1  UNL1        0.1023
     20 N           2.4223    1.9367   34.0781 N.ar    1  UNL1       -0.2224
     21 C           2.4752    0.6146   21.9676 C.3     1  UNL1        0.1538
     22 C           2.9517   -0.6620   21.3403 C.ar    1  UNL1        0.0060
     23 C           3.7728   -1.6297   22.1398 C.ar    1  UNL1       -0.0024
     24 C           4.2493   -2.9062   21.5126 C.ar    1  UNL1        0.0036
     25 C           3.9047   -3.2149   20.0858 C.ar    1  UNL1        0.0714
     26 C           3.0836   -2.2472   19.2862 C.ar    1  UNL1        0.0074
     27 C           2.6071   -0.9707   19.9135 C.ar    1  UNL1        0.0693
     28 C           4.3812   -4.4915   19.4584 C.3     1  UNL1        0.4186
     29 F           4.8577   -5.7679   18.8311 F       1  UNL1       -0.1659
     30 F           5.7435   -4.2718   20.0463 F       1  UNL1       -0.1659
     31 F           3.0188   -4.7112   18.8706 F       1  UNL1       -0.1659
     32 C           1.7860   -0.0030   19.1139 C.3     1  UNL1        0.4183
     33 F           0.9649    0.9648   18.3143 F       1  UNL1       -0.1659
     34 F           3.0292    0.4915   18.4357 F       1  UNL1       -0.1659
     35 F           0.5428   -0.4974   19.7921 F       1  UNL1       -0.1659
@<TRIPOS>BOND
     1     6     7    2
     2     7     8   am
     3     8     1    1
     4     1     2   ar
     5     2     3   ar
     6     3     4   ar
     7     4    21    1
     8    21    22    1
     9    22    23   ar
    10    23    24   ar
    11    24    25   ar
    12    25    28    1
    13    28    29    1
    14    28    30    1
    15    28    31    1
    16    25    26   ar
    17    26    27   ar
    18    27    32    1
    19    32    33    1
    20    32    34    1
    21    32    35    1
    22     4     5   ar
    23     7    10    1
    24    10    11   ar
    25    11    12   ar
    26    12    15    1
    27    15    16   ar
    28    16    17   ar
    29    17    18   ar
    30    18    19   ar
    31    19    20   ar
    32    12    13   ar
    33    13    14   ar
    34     5     1   ar
    35    14    10   ar
    36    27    22   ar
    37    20    15   ar
    38     8     9    1
@<TRIPOS>MOLECULE
*****
 35 38 0 0 0
SMALL
GASTEIGER

@<TRIPOS>ATOM
      1 C           0.9027    1.4821   19.3527 C.ar    1  UNL1        0.0908
      2 C           2.2568    2.0026   18.9710 C.ar    1  UNL1        0.1363
      3 N           3.2111    0.8454   18.9572 N.ar    1  UNL1       -0.1660
      4 N           2.4469   -0.3902   19.3304 N.ar    1  UNL1       -0.2436
      5 C           1.0202    0.0033   19.5748 C.ar    1  UNL1        0.1117
      6 O          -0.1227    2.2143   22.0754 O.2     1  UNL1       -0.2680
      7 C          -0.8618    2.6635   20.8497 C.2     1  UNL1        0.2706
      8 N          -0.3491    2.2973   19.4884 N.am    1  UNL1       -0.2766
      9 H          -0.8342    2.5921   18.6841 H       1  UNL1        0.1553
     10 C          -2.1136    3.4787   20.9856 C.ar    1  UNL1        0.1765
     11 C          -3.0146    3.5176   22.1842 C.ar    1  UNL1        0.0704
     12 C          -4.1420    4.4611   21.8862 C.ar    1  UNL1        0.2126
     13 O          -3.9378    5.0052   20.5033 O.2     1  UNL1       -0.3501
     14 N          -2.6842    4.3980   19.9467 N.ar    1  UNL1       -0.0722
     15 C          -5.2747    4.8007   22.8090 C.ar    1  UNL1        0.2003
     16 N          -6.6429    4.2409   22.5547 N.ar    1  UNL1       -0.2224
     17 C          -7.7756    4.5806   23.4775 C.ar    1  UNL1        0.1023
     18 C          -7.5401    5.4801   24.6545 C.ar    1  UNL1        0.0414
     19 C          -6.1720    6.0399   24.9088 C.ar    1  UNL1        0.1023
     20 N          -5.0392    5.7002   23.9860 N.ar    1  UNL1       -0.2224
     21 C           3.0104   -1.7760   19.4400 C.3     1  UNL1        0.1538
     22 C           3.7236   -2.1990   20.6900 C.ar    1  UNL1        0.0060
     23 C           3.6485   -1.3459   21.9215 C.ar    1  UNL1       -0.0024
     24 C           4.3617   -1.7689   23.1714 C.ar    1  UNL1        0.0036
     25 C           5.1498   -3.0449   23.1899 C.ar    1  UNL1        0.0714
     26 C           5.2249   -3.8980   21.9584 C.ar    1  UNL1        0.0074
     27 C           4.5117   -3.4751   20.7085 C.ar    1  UNL1        0.0693
     28 C           5.8630   -3.4680   24.4400 C.3     1  UNL1        0.4186
     29 F           6.5762   -3.8909   25.6899 F       1  UNL1       -0.1659
     30 F           5.1723   -2.3770   25.2032 F       1  UNL1       -0.1659
     31 F           6.5538   -4.5589   23.6767 F       1  UNL1       -0.1659
     32 C           4.5868   -4.3282   19.4770 C.3     1  UNL1        0.4183
     33 F           4.6618   -5.1813   18.2455 F       1  UNL1       -0.1659
     34 F           3.3820   -5.0955   19.9351 F       1  UNL1       -0.1659
     35 F           5.7915   -3.5609   19.0188 F       1  UNL1       -0.1659
@<TRIPOS>BOND
     1     6     7    2
     2     7     8   am
     3     8     1    1
     4     1     2   ar
     5     2     3   ar
     6     3     4   ar
     7     4    21    1
     8    21    22    1
     9    22    23   ar
    10    23    24   ar
    11    24    25   ar
    12    25    28    1
    13    28    29    1
    14    28    30    1
    15    28    31    1
    16    25    26   ar
    17    26    27   ar
    18    27    32    1
    19    32    33    1
    20    32    34    1
    21    32    35    1
    22     4     5   ar
    23     7    10    1
    24    10    11   ar
    25    11    12   ar
    26    12    15    1
    27    15    16   ar
    28    16    17   ar
    29    17    18   ar
    30    18    19   ar
    31    19    20   ar
    32    12    13   ar
    33    13    14   ar
    34     5     1   ar
    35    14    10   ar
    36    27    22   ar
    37    20    15   ar
    38     8     9    1
@<TRIPOS>MOLECULE
*****
 35 38 0 0 0
SMALL
GASTEIGER

@<TRIPOS>ATOM
      1 C           4.6551    0.2436   26.3847 C.ar    1  UNL1        0.0908
      2 C           5.6553    0.8793   25.4651 C.ar    1  UNL1        0.1363
      3 N           5.1284    0.7756   24.0645 N.ar    1  UNL1       -0.1660
      4 N           3.8027    0.0759   24.1184 N.ar    1  UNL1       -0.2436
      5 C           3.5102   -0.2528   25.5524 C.ar    1  UNL1        0.1117
      6 O           5.4408   -2.3742   27.6217 O.2     1  UNL1       -0.2680
      7 C           5.1711   -1.1836   28.4934 C.2     1  UNL1        0.2706
      8 N           4.7782    0.1252   27.8749 N.am    1  UNL1       -0.2766
      9 H           4.6012    0.9066   28.4471 H       1  UNL1        0.1553
     10 C           5.2942   -1.3021   29.9837 C.ar    1  UNL1        0.1765
     11 C           4.7301   -0.3472   30.9936 C.ar    1  UNL1        0.0704
     12 C           5.0903   -0.8511   32.3597 C.ar    1  UNL1        0.2126
     13 O           5.8770   -2.1175   32.1941 O.2     1  UNL1       -0.3501
     14 N           6.0031   -2.3962   30.7256 N.ar    1  UNL1       -0.0722
     15 C           4.7274   -0.2026   33.6627 C.ar    1  UNL1        0.2003
     16 N           3.9247    1.0646   33.6719 N.ar    1  UNL1       -0.2224
     17 C           3.5619    1.7131   34.9748 C.ar    1  UNL1        0.1023
     18 C           4.0018    1.0945   36.2686 C.ar    1  UNL1        0.0414
     19 C           4.8044   -0.1725   36.2594 C.ar    1  UNL1        0.1023
     20 N           5.1673   -0.8211   34.9564 N.ar    1  UNL1       -0.2224
     21 C           2.9239   -0.2395   22.9446 C.3     1  UNL1        0.1538
     22 C           3.3062   -1.3356   21.9945 C.ar    1  UNL1        0.0060
     23 C           4.1813   -2.4611   22.4609 C.ar    1  UNL1       -0.0024
     24 C           4.5636   -3.5571   21.5109 C.ar    1  UNL1        0.0036
     25 C           4.0709   -3.5276   20.0945 C.ar    1  UNL1        0.0714
     26 C           3.1958   -2.4022   19.6281 C.ar    1  UNL1        0.0074
     27 C           2.8135   -1.3061   20.5781 C.ar    1  UNL1        0.0693
     28 C           4.4533   -4.6237   19.1444 C.3     1  UNL1        0.4186
     29 F           4.8356   -5.7197   18.1944 F       1  UNL1       -0.1659
     30 F           3.4351   -5.5261   19.7759 F       1  UNL1       -0.1659
     31 F           5.4715   -3.7212   18.5130 F       1  UNL1       -0.1659
     32 C           1.9384   -0.1807   20.1116 C.3     1  UNL1        0.4183
     33 F           1.0633    0.9448   19.6452 F       1  UNL1       -0.1659
     34 F           0.7202   -0.9813   20.4652 F       1  UNL1       -0.1659
     35 F           3.1566    0.6200   19.7581 F       1  UNL1       -0.1659
@<TRIPOS>BOND
     1     6     7    2
     2     7     8   am
     3     8     1    1
     4     1     2   ar
     5     2     3   ar
     6     3     4   ar
     7     4    21    1
     8    21    22    1
     9    22    23   ar
    10    23    24   ar
    11    24    25   ar
    12    25    28    1
    13    28    29    1
    14    28    30    1
    15    28    31    1
    16    25    26   ar
    17    26    27   ar
    18    27    32    1
    19    32    33    1
    20    32    34    1
    21    32    35    1
    22     4     5   ar
    23     7    10    1
    24    10    11   ar
    25    11    12   ar
    26    12    15    1
    27    15    16   ar
    28    16    17   ar
    29    17    18   ar
    30    18    19   ar
    31    19    20   ar
    32    12    13   ar
    33    13    14   ar
    34     5     1   ar
    35    14    10   ar
    36    27    22   ar
    37    20    15   ar
    38     8     9    1
@<TRIPOS>MOLECULE
*****
 35 38 0 0 0
SMALL
GASTEIGER

@<TRIPOS>ATOM
      1 C           3.7845    2.1713   31.8553 C.ar    1  UNL1        0.0908
      2 C           5.2045    1.7142   31.6982 C.ar    1  UNL1        0.1363
      3 N           5.9018    1.9079   33.0121 N.ar    1  UNL1       -0.1660
      4 N           4.9127    2.4846   33.9812 N.ar    1  UNL1       -0.2436
      5 C           3.6041    2.6474   33.2662 C.ar    1  UNL1        0.1117
      6 O           2.2626   -0.3513   31.2888 O.2     1  UNL1       -0.2680
      7 C           1.9690    0.8938   30.5054 C.2     1  UNL1        0.2706
      8 N           2.7299    2.1550   30.7886 N.am    1  UNL1       -0.2766
      9 H           2.5373    2.9722   30.2744 H       1  UNL1        0.1553
     10 C           0.9144    0.8775   29.4387 C.ar    1  UNL1        0.1765
     11 C           0.6609    1.9611   28.4330 C.ar    1  UNL1        0.0704
     12 C          -0.4819    1.5281   27.5633 C.ar    1  UNL1        0.2126
     13 O          -0.9346    0.1768   28.0314 O.2     1  UNL1       -0.3501
     14 N          -0.0716   -0.2252   29.1905 N.ar    1  UNL1       -0.0722
     15 C          -1.0689    2.3092   26.4251 C.ar    1  UNL1        0.2003
     16 N          -2.3023    3.1353   26.6398 N.ar    1  UNL1       -0.2224
     17 C          -2.8893    3.9164   25.5017 C.ar    1  UNL1        0.1023
     18 C          -2.2429    3.8714   24.1489 C.ar    1  UNL1        0.0414
     19 C          -1.0095    3.0453   23.9342 C.ar    1  UNL1        0.1023
     20 N          -0.4224    2.2641   25.0724 N.ar    1  UNL1       -0.2224
     21 C           5.1844    2.8368   35.4137 C.3     1  UNL1        0.1538
     22 C           4.2070    2.4429   36.4812 C.ar    1  UNL1        0.0060
     23 C           3.0555    3.3450   36.8136 C.ar    1  UNL1       -0.0024
     24 C           2.0781    2.9512   37.8811 C.ar    1  UNL1        0.0036
     25 C           2.2522    1.6554   38.6162 C.ar    1  UNL1        0.0714
     26 C           3.4036    0.7533   38.2839 C.ar    1  UNL1        0.0074
     27 C           4.3810    1.1471   37.2164 C.ar    1  UNL1        0.0693
     28 C           1.2748    1.2616   39.6838 C.3     1  UNL1        0.4186
     29 F           0.2974    0.8677   40.7513 F       1  UNL1       -0.1659
     30 F           1.3108   -0.1557   39.1939 F       1  UNL1       -0.1659
     31 F           1.2388    2.6788   40.1737 F       1  UNL1       -0.1659
     32 C           5.5324    0.2450   36.8840 C.3     1  UNL1        0.4183
     33 F           6.6839   -0.6571   36.5516 F       1  UNL1       -0.1659
     34 F           4.6283   -0.5948   36.0312 F       1  UNL1       -0.1659
     35 F           6.4366    1.0848   37.7368 F       1  UNL1       -0.1659
@<TRIPOS>BOND
     1     6     7    2
     2     7     8   am
     3     8     1    1
     4     1     2   ar
     5     2     3   ar
     6     3     4   ar
     7     4    21    1
     8    21    22    1
     9    22    23   ar
    10    23    24   ar
    11    24    25   ar
    12    25    28    1
    13    28    29    1
    14    28    30    1
    15    28    31    1
    16    25    26   ar
    17    26    27   ar
    18    27    32    1
    19    32    33    1
    20    32    34    1
    21    32    35    1
    22     4     5   ar
    23     7    10    1
    24    10    11   ar
    25    11    12   ar
    26    12    15    1
    27    15    16   ar
    28    16    17   ar
    29    17    18   ar
    30    18    19   ar
    31    19    20   ar
    32    12    13   ar
    33    13    14   ar
    34     5     1   ar
    35    14    10   ar
    36    27    22   ar
    37    20    15   ar
    38     8     9    1
@<TRIPOS>MOLECULE
*****
 35 38 0 0 0
SMALL
GASTEIGER

@<TRIPOS>ATOM
      1 C           1.0257    2.2047   18.6436 C.ar    1  UNL1        0.0908
      2 C           2.3296    2.9463   18.6404 C.ar    1  UNL1        0.1363
      3 N           3.4232    1.9598   18.3563 N.ar    1  UNL1       -0.1660
      4 N           2.7953    0.6085   18.1838 N.ar    1  UNL1       -0.2436
      5 C           1.3136    0.7598   18.3614 C.ar    1  UNL1        0.1117
      6 O          -0.3226    1.8370   21.2983 O.2     1  UNL1       -0.2680
      7 C          -1.0024    2.6190   20.2137 C.2     1  UNL1        0.2706
      8 N          -0.3283    2.8028   18.8864 N.am    1  UNL1       -0.2766
      9 H          -0.7745    3.3161   18.1745 H       1  UNL1        0.1553
     10 C          -2.3564    3.2172   20.4565 C.ar    1  UNL1        0.1765
     11 C          -2.9848    3.4615   21.7965 C.ar    1  UNL1        0.0704
     12 C          -4.3365    4.0713   21.5702 C.ar    1  UNL1        0.2126
     13 O          -4.5434    4.2039   20.0905 O.2     1  UNL1       -0.3501
     14 N          -3.3197    3.6760   19.4022 N.ar    1  UNL1       -0.0722
     15 C          -5.3102    4.4773   22.6365 C.ar    1  UNL1        0.2003
     16 N          -6.7819    4.4808   22.3464 N.ar    1  UNL1       -0.2224
     17 C          -7.7556    4.8868   23.4127 C.ar    1  UNL1        0.1023
     18 C          -7.2576    5.2893   24.7692 C.ar    1  UNL1        0.0414
     19 C          -5.7861    5.2859   25.0593 C.ar    1  UNL1        0.1023
     20 N          -4.8122    4.8799   23.9930 N.ar    1  UNL1       -0.2224
     21 C           3.5216   -0.6697   17.8861 C.3     1  UNL1        0.1538
     22 C           4.1353   -1.4612   19.0027 C.ar    1  UNL1        0.0060
     23 C           3.2606   -2.2486   19.9328 C.ar    1  UNL1       -0.0024
     24 C           3.8742   -3.0401   21.0494 C.ar    1  UNL1        0.0036
     25 C           5.3625   -3.0444   21.2359 C.ar    1  UNL1        0.0714
     26 C           6.2372   -2.2570   20.3059 C.ar    1  UNL1        0.0074
     27 C           5.6236   -1.4655   19.1893 C.ar    1  UNL1        0.0693
     28 C           5.9762   -3.8359   22.3526 C.3     1  UNL1        0.4186
     29 F           6.5900   -4.6275   23.4692 F       1  UNL1       -0.1659
     30 F           7.1819   -4.1024   21.5010 F       1  UNL1       -0.1659
     31 F           4.7706   -3.5695   23.2042 F       1  UNL1       -0.1659
     32 C           6.4983   -0.6781   18.2592 C.3     1  UNL1        0.4183
     33 F           7.3730    0.1092   17.3291 F       1  UNL1       -0.1659
     34 F           6.7043   -1.9021   17.4168 F       1  UNL1       -0.1659
     35 F           6.2923    0.5458   19.1015 F       1  UNL1       -0.1659
@<TRIPOS>BOND
     1     6     7    2
     2     7     8   am
     3     8     1    1
     4     1     2   ar
     5     2     3   ar
     6     3     4   ar
     7     4    21    1
     8    21    22    1
     9    22    23   ar
    10    23    24   ar
    11    24    25   ar
    12    25    28    1
    13    28    29    1
    14    28    30    1
    15    28    31    1
    16    25    26   ar
    17    26    27   ar
    18    27    32    1
    19    32    33    1
    20    32    34    1
    21    32    35    1
    22     4     5   ar
    23     7    10    1
    24    10    11   ar
    25    11    12   ar
    26    12    15    1
    27    15    16   ar
    28    16    17   ar
    29    17    18   ar
    30    18    19   ar
    31    19    20   ar
    32    12    13   ar
    33    13    14   ar
    34     5     1   ar
    35    14    10   ar
    36    27    22   ar
    37    20    15   ar
    38     8     9    1
@<TRIPOS>MOLECULE
*****
 35 38 0 0 0
SMALL
GASTEIGER

@<TRIPOS>ATOM
      1 C           6.9341   -4.8798   25.0696 C.ar    1  UNL1        0.0908
      2 C           7.7086   -6.0458   24.5303 C.ar    1  UNL1        0.1363
      3 N           7.9251   -5.8197   23.0634 N.ar    1  UNL1       -0.1660
      4 N           7.2844   -4.5141   22.6960 N.ar    1  UNL1       -0.2436
      5 C           6.6719   -3.9333   23.9359 C.ar    1  UNL1        0.1117
      6 O           8.9471   -4.1527   27.1718 O.2     1  UNL1       -0.2680
      7 C           7.5047   -4.3297   27.5438 C.2     1  UNL1        0.2706
      8 N           6.4982   -4.6932   26.4927 N.am    1  UNL1       -0.2766
      9 H           5.5516   -4.8094   26.7369 H       1  UNL1        0.1553
     10 C           7.0690   -4.1431   28.9670 C.ar    1  UNL1        0.1765
     11 C           6.5060   -2.8850   29.5589 C.ar    1  UNL1        0.0704
     12 C           6.2088   -3.1461   31.0057 C.ar    1  UNL1        0.2126
     13 O           6.5881   -4.5655   31.3081 O.2     1  UNL1       -0.3501
     14 N           7.1197   -5.1817   30.0481 N.ar    1  UNL1       -0.0722
     15 C           5.6333   -2.1607   31.9793 C.ar    1  UNL1        0.2003
     16 N           5.7874   -0.6886   31.7361 N.ar    1  UNL1       -0.2224
     17 C           5.2119    0.2967   32.7097 C.ar    1  UNL1        0.1023
     18 C           4.4823   -0.1901   33.9265 C.ar    1  UNL1        0.0414
     19 C           4.3282   -1.6621   34.1698 C.ar    1  UNL1        0.1023
     20 N           4.9037   -2.6475   33.1962 N.ar    1  UNL1       -0.2224
     21 C           7.2603   -3.8977   21.3288 C.3     1  UNL1        0.1538
     22 C           6.0531   -3.1337   20.8716 C.ar    1  UNL1        0.0060
     23 C           4.8277   -3.8697   20.4169 C.ar    1  UNL1       -0.0024
     24 C           3.6205   -3.1058   19.9597 C.ar    1  UNL1        0.0036
     25 C           3.6387   -1.6059   19.9573 C.ar    1  UNL1        0.0714
     26 C           4.8641   -0.8700   20.4120 C.ar    1  UNL1        0.0074
     27 C           6.0713   -1.6338   20.8692 C.ar    1  UNL1        0.0693
     28 C           2.4314   -0.8419   19.5001 C.3     1  UNL1        0.4186
     29 F           1.2242   -0.0780   19.0430 F       1  UNL1       -0.1659
     30 F           1.7383   -1.1650   20.7905 F       1  UNL1       -0.1659
     31 F           3.1245   -0.5188   18.2097 F       1  UNL1       -0.1659
     32 C           7.2967   -0.8979   21.3239 C.3     1  UNL1        0.4183
     33 F           8.5221   -0.1619   21.7786 F       1  UNL1       -0.1659
     34 F           6.7507   -0.8517   22.7202 F       1  UNL1       -0.1659
     35 F           7.8426   -0.9441   19.9275 F       1  UNL1       -0.1659
@<TRIPOS>BOND
     1     6     7    2
     2     7     8   am
     3     8     1    1
     4     1     2   ar
     5     2     3   ar
     6     3     4   ar
     7     4    21    1
     8    21    22    1
     9    22    23   ar
    10    23    24   ar
    11    24    25   ar
    12    25    28    1
    13    28    29    1
    14    28    30    1
    15    28    31    1
    16    25    26   ar
    17    26    27   ar
    18    27    32    1
    19    32    33    1
    20    32    34    1
    21    32    35    1
    22     4     5   ar
    23     7    10    1
    24    10    11   ar
    25    11    12   ar
    26    12    15    1
    27    15    16   ar
    28    16    17   ar
    29    17    18   ar
    30    18    19   ar
    31    19    20   ar
    32    12    13   ar
    33    13    14   ar
    34     5     1   ar
    35    14    10   ar
    36    27    22   ar
    37    20    15   ar
    38     8     9    1
@<TRIPOS>MOLECULE
*****
 35 38 0 0 0
SMALL
GASTEIGER

@<TRIPOS>ATOM
      1 C           5.5906   -1.6242   25.8902 C.ar    1  UNL1        0.0908
      2 C           6.9322   -2.0192   25.3478 C.ar    1  UNL1        0.1363
      3 N           6.7195   -2.6681   24.0122 N.ar    1  UNL1       -0.1660
      4 N           5.2464   -2.6741   23.7292 N.ar    1  UNL1       -0.2436
      5 C           4.5488   -2.0290   24.8898 C.ar    1  UNL1        0.1117
      6 O           6.0035   -3.1177   28.4591 O.2     1  UNL1       -0.2680
      7 C           5.5421   -1.6906   28.4870 C.2     1  UNL1        0.2706
      8 N           5.3357   -0.9439   27.2025 N.am    1  UNL1       -0.2766
      9 H           5.0329   -0.0073   27.2208 H       1  UNL1        0.1553
     10 C           5.2872   -1.0104   29.7994 C.ar    1  UNL1        0.1765
     11 C           6.0565   -1.2272   31.0688 C.ar    1  UNL1        0.0704
     12 C           5.4631   -0.3448   32.1267 C.ar    1  UNL1        0.2126
     13 O           4.3271    0.4173   31.5112 O.2     1  UNL1       -0.3501
     14 N           4.2184    0.0059   30.0728 N.ar    1  UNL1       -0.0722
     15 C           5.9246   -0.2425   33.5503 C.ar    1  UNL1        0.2003
     16 N           7.3641    0.0514   33.8527 N.ar    1  UNL1       -0.2224
     17 C           7.8256    0.1537   35.2763 C.ar    1  UNL1        0.1023
     18 C           6.8476   -0.0379   36.3974 C.ar    1  UNL1        0.0414
     19 C           5.4082   -0.3319   36.0950 C.ar    1  UNL1        0.1023
     20 N           4.9466   -0.4342   34.6714 N.ar    1  UNL1       -0.2224
     21 C           4.5868   -3.2280   22.5012 C.3     1  UNL1        0.1538
     22 C           3.8096   -2.3212   21.5935 C.ar    1  UNL1        0.0060
     23 C           3.0963   -1.1280   22.1569 C.ar    1  UNL1       -0.0024
     24 C           2.3191   -0.2212   21.2494 C.ar    1  UNL1        0.0036
     25 C           2.2552   -0.5077   19.7784 C.ar    1  UNL1        0.0714
     26 C           2.9685   -1.7009   19.2150 C.ar    1  UNL1        0.0074
     27 C           3.7457   -2.6077   20.1226 C.ar    1  UNL1        0.0693
     28 C           1.4780    0.3991   18.8707 C.3     1  UNL1        0.4186
     29 F           0.7007    1.3058   17.9632 F       1  UNL1       -0.1659
     30 F           0.2635    0.2210   19.7329 F       1  UNL1       -0.1659
     31 F           2.6924    0.5771   18.0086 F       1  UNL1       -0.1659
     32 C           4.4590   -3.8009   19.5592 C.3     1  UNL1        0.4183
     33 F           5.1722   -4.9942   18.9957 F       1  UNL1       -0.1659
     34 F           3.1942   -4.6018   19.6542 F       1  UNL1       -0.1659
     35 F           5.7237   -3.0000   19.4641 F       1  UNL1       -0.1659
@<TRIPOS>BOND
     1     6     7    2
     2     7     8   am
     3     8     1    1
     4     1     2   ar
     5     2     3   ar
     6     3     4   ar
     7     4    21    1
     8    21    22    1
     9    22    23   ar
    10    23    24   ar
    11    24    25   ar
    12    25    28    1
    13    28    29    1
    14    28    30    1
    15    28    31    1
    16    25    26   ar
    17    26    27   ar
    18    27    32    1
    19    32    33    1
    20    32    34    1
    21    32    35    1
    22     4     5   ar
    23     7    10    1
    24    10    11   ar
    25    11    12   ar
    26    12    15    1
    27    15    16   ar
    28    16    17   ar
    29    17    18   ar
    30    18    19   ar
    31    19    20   ar
    32    12    13   ar
    33    13    14   ar
    34     5     1   ar
    35    14    10   ar
    36    27    22   ar
    37    20    15   ar
    38     8     9    1
