@<TRIPOS>MOLECULE
*****
 25 27 0 0 0
SMALL
GASTEIGER

@<TRIPOS>ATOM
      1 C         -10.4581  -19.4474   21.3190 C.ar    1  UNL1        0.1386
      2 C          -9.7510  -19.2639   20.0090 C.ar    1  UNL1        0.0369
      3 C          -8.2521  -19.2862   19.9562 C.ar    1  UNL1        0.0047
      4 C          -7.4603  -19.4919   21.2134 C.ar    1  UNL1        0.0195
      5 C          -8.1674  -19.6754   22.5235 C.ar    1  UNL1        0.0047
      6 C          -9.6663  -19.6531   22.5763 C.ar    1  UNL1        0.0369
      7 C          -5.9614  -19.5142   21.1606 C.ar    1  UNL1        0.1011
      8 C          -5.2566  -20.4999   20.2765 C.ar    1  UNL1        0.0258
      9 C          -3.7577  -20.5221   20.2236 C.ar    1  UNL1        0.0638
     10 C          -2.9635  -19.5587   21.0550 C.ar    1  UNL1        0.2765
     11 O          -1.4647  -19.5809   21.0022 O.2     1  UNL1       -0.2655
     12 N          -3.6683  -18.5730   21.9391 N.ar    1  UNL1       -0.2146
     13 C          -2.8742  -17.6095   22.7705 C.3     1  UNL1        0.1571
     14 N          -5.1672  -18.5507   21.9919 N.ar    1  UNL1       -0.1668
     15 O         -11.9570  -19.4251   21.3719 O.3     1  UNL1       -0.4754
     16 C         -12.6845  -18.1173   21.4736 C.3     1  UNL1        0.2067
     17 C         -13.6916  -18.0240   23.8668 C.3     1  UNL1        0.0053
     18 C         -12.8155  -17.4333   22.8022 C.3     1  UNL1        0.0597
     19 C         -12.0702  -16.1585   23.0660 C.3     1  UNL1        0.0757
     20 N         -10.5727  -16.1346   22.9845 N.3     1  UNL1       -0.2738
     21 C          -9.6239  -16.3655   24.1232 C.3     1  UNL1        0.0721
     22 C          -8.2258  -16.2492   23.5925 C.3     1  UNL1        0.0187
     23 C          -8.3105  -15.9466   22.1257 C.3     1  UNL1        0.0174
     24 C          -9.7609  -15.8758   21.7500 C.3     1  UNL1        0.0576
     25 C         -10.3042  -15.5953   20.3803 C.3     1  UNL1        0.0173
@<TRIPOS>BOND
     1    18    17    1
     2    18    16    1
     3    16    15    1
     4    15     1    1
     5     1     2   ar
     6     2     3   ar
     7     3     4   ar
     8     4     7    1
     9     7     8   ar
    10     8     9   ar
    11     9    10   ar
    12    10    11    2
    13    10    12   ar
    14    12    13    1
    15    12    14   ar
    16     4     5   ar
    17     5     6   ar
    18    18    19    1
    19    19    20    1
    20    20    21    1
    21    21    22    1
    22    22    23    1
    23    23    24    1
    24    24    25    1
    25     6     1   ar
    26    24    20    1
    27    14     7   ar
@<TRIPOS>MOLECULE
*****
 25 27 0 0 0
SMALL
GASTEIGER

@<TRIPOS>ATOM
      1 C          -9.2271  -19.0523   23.4127 C.ar    1  UNL1        0.1386
      2 C          -8.5919  -17.7283   23.1069 C.ar    1  UNL1        0.0369
      3 C          -7.2460  -17.6768   22.4466 C.ar    1  UNL1        0.0047
      4 C          -6.5354  -18.9493   22.0921 C.ar    1  UNL1        0.0195
      5 C          -7.1705  -20.2733   22.3979 C.ar    1  UNL1        0.0047
      6 C          -8.5164  -20.3248   23.0582 C.ar    1  UNL1        0.0369
      7 C          -5.1895  -18.8978   21.4318 C.ar    1  UNL1        0.1011
      8 C          -4.8537  -19.8664   20.3369 C.ar    1  UNL1        0.0258
      9 C          -3.5078  -19.8149   19.6766 C.ar    1  UNL1        0.0638
     10 C          -2.4977  -18.7947   20.1113 C.ar    1  UNL1        0.2765
     11 O          -1.1518  -18.7431   19.4510 O.2     1  UNL1       -0.2655
     12 N          -2.8335  -17.8260   21.2063 N.ar    1  UNL1       -0.2146
     13 C          -1.8235  -16.8058   21.6410 C.3     1  UNL1        0.1571
     14 N          -4.1794  -17.8776   21.8665 N.ar    1  UNL1       -0.1668
     15 O         -10.5730  -19.1038   24.0730 O.3     1  UNL1       -0.4754
     16 C         -11.4754  -17.9064   24.0309 C.3     1  UNL1        0.2067
     17 C         -14.0455  -18.1298   24.3383 C.3     1  UNL1        0.0053
     18 C         -12.8491  -18.0229   23.4399 C.3     1  UNL1        0.0597
     19 C         -13.0264  -18.0325   21.9504 C.3     1  UNL1        0.0757
     20 N         -11.8781  -18.4064   21.0608 N.3     1  UNL1       -0.2738
     21 C         -11.3755  -19.7968   20.8073 C.3     1  UNL1        0.0721
     22 C         -10.2175  -19.7053   19.8584 C.3     1  UNL1        0.0187
     23 C         -10.0044  -18.2583   19.5254 C.3     1  UNL1        0.0174
     24 C         -11.0307  -17.4556   20.2685 C.3     1  UNL1        0.0576
     25 C         -11.1828  -15.9639   20.2267 C.3     1  UNL1        0.0173
@<TRIPOS>BOND
     1    18    17    1
     2    18    16    1
     3    16    15    1
     4    15     1    1
     5     1     2   ar
     6     2     3   ar
     7     3     4   ar
     8     4     7    1
     9     7     8   ar
    10     8     9   ar
    11     9    10   ar
    12    10    11    2
    13    10    12   ar
    14    12    13    1
    15    12    14   ar
    16     4     5   ar
    17     5     6   ar
    18    18    19    1
    19    19    20    1
    20    20    21    1
    21    21    22    1
    22    22    23    1
    23    23    24    1
    24    24    25    1
    25     6     1   ar
    26    24    20    1
    27    14     7   ar
@<TRIPOS>MOLECULE
*****
 25 27 0 0 0
SMALL
GASTEIGER

@<TRIPOS>ATOM
      1 C          -9.1253  -19.5757   21.2270 C.ar    1  UNL1        0.1386
      2 C          -8.2266  -19.6412   22.4262 C.ar    1  UNL1        0.0369
      3 C          -6.7431  -19.4939   22.2605 C.ar    1  UNL1        0.0047
      4 C          -6.1583  -19.2812   20.8957 C.ar    1  UNL1        0.0195
      5 C          -7.0570  -19.2157   19.6965 C.ar    1  UNL1        0.0047
      6 C          -8.5405  -19.3629   19.8622 C.ar    1  UNL1        0.0369
      7 C          -4.6747  -19.1339   20.7300 C.ar    1  UNL1        0.1011
      8 C          -3.7450  -19.7016   21.7611 C.ar    1  UNL1        0.0258
      9 C          -2.2614  -19.5543   21.5955 C.ar    1  UNL1        0.0638
     10 C          -1.7077  -18.8394   20.3987 C.ar    1  UNL1        0.2765
     11 O          -0.2242  -18.6921   20.2330 O.2     1  UNL1       -0.2655
     12 N          -2.6375  -18.2717   19.3676 N.ar    1  UNL1       -0.2146
     13 C          -2.0838  -17.5568   18.1708 C.3     1  UNL1        0.1571
     14 N          -4.1210  -18.4190   19.5332 N.ar    1  UNL1       -0.1668
     15 O         -10.6089  -19.7230   21.3927 O.3     1  UNL1       -0.4754
     16 C         -11.5413  -18.8368   20.6212 C.3     1  UNL1        0.2067
     17 C         -11.3398  -16.3918   19.7660 C.3     1  UNL1        0.0053
     18 C         -11.5662  -17.3609   20.8882 C.3     1  UNL1        0.0597
     19 C         -11.8176  -16.8543   22.2775 C.3     1  UNL1        0.0757
     20 N         -10.7677  -17.0168   23.3365 N.3     1  UNL1       -0.2738
     21 C          -9.5356  -16.1756   23.4929 C.3     1  UNL1        0.0721
     22 C          -8.7720  -16.6879   24.6780 C.3     1  UNL1        0.0187
     23 C          -9.5323  -17.8457   25.2540 C.3     1  UNL1        0.0174
     24 C         -10.7656  -18.0489   24.4249 C.3     1  UNL1        0.0576
     25 C         -11.8130  -19.0997   24.6455 C.3     1  UNL1        0.0173
@<TRIPOS>BOND
     1    18    17    1
     2    18    16    1
     3    16    15    1
     4    15     1    1
     5     1     2   ar
     6     2     3   ar
     7     3     4   ar
     8     4     7    1
     9     7     8   ar
    10     8     9   ar
    11     9    10   ar
    12    10    11    2
    13    10    12   ar
    14    12    13    1
    15    12    14   ar
    16     4     5   ar
    17     5     6   ar
    18    18    19    1
    19    19    20    1
    20    20    21    1
    21    21    22    1
    22    22    23    1
    23    23    24    1
    24    24    25    1
    25     6     1   ar
    26    24    20    1
    27    14     7   ar
@<TRIPOS>MOLECULE
*****
 25 27 0 0 0
SMALL
GASTEIGER

@<TRIPOS>ATOM
      1 C         -10.0944  -19.5664   21.4685 C.ar    1  UNL1        0.1386
      2 C          -9.2333  -19.9879   22.6222 C.ar    1  UNL1        0.0369
      3 C          -7.7391  -19.9465   22.4971 C.ar    1  UNL1        0.0047
      4 C          -7.1060  -19.4837   21.2185 C.ar    1  UNL1        0.0195
      5 C          -7.9671  -19.0622   20.0648 C.ar    1  UNL1        0.0047
      6 C          -9.4613  -19.1036   20.1899 C.ar    1  UNL1        0.0369
      7 C          -5.6118  -19.4423   21.0935 C.ar    1  UNL1        0.1011
      8 C          -4.9028  -20.4479   20.2356 C.ar    1  UNL1        0.0258
      9 C          -3.4085  -20.4066   20.1106 C.ar    1  UNL1        0.0638
     10 C          -2.6233  -19.3595   20.8435 C.ar    1  UNL1        0.2765
     11 O          -1.1291  -19.3181   20.7186 O.2     1  UNL1       -0.2655
     12 N          -3.3324  -18.3539   21.7015 N.ar    1  UNL1       -0.2146
     13 C          -2.5472  -17.3068   22.4344 C.3     1  UNL1        0.1571
     14 N          -4.8266  -18.3953   21.8264 N.ar    1  UNL1       -0.1668
     15 O         -11.5886  -19.6078   21.5935 O.3     1  UNL1       -0.4754
     16 C         -12.3824  -18.3369   21.5252 C.3     1  UNL1        0.2067
     17 C         -13.6165  -18.0027   23.7870 C.3     1  UNL1        0.0053
     18 C         -12.6197  -17.5330   22.7693 C.3     1  UNL1        0.0597
     19 C         -11.8601  -16.2595   22.9955 C.3     1  UNL1        0.0757
     20 N         -10.3651  -16.2465   22.8754 N.3     1  UNL1       -0.2738
     21 C          -9.5775  -15.6853   21.7287 C.3     1  UNL1        0.0721
     22 C          -8.1207  -15.8843   22.0254 C.3     1  UNL1        0.0187
     23 C          -8.0079  -16.5685   23.3555 C.3     1  UNL1        0.0174
     24 C          -9.3950  -16.7923   23.8808 C.3     1  UNL1        0.0576
     25 C          -9.7496  -17.4470   25.1829 C.3     1  UNL1        0.0173
@<TRIPOS>BOND
     1    18    17    1
     2    18    16    1
     3    16    15    1
     4    15     1    1
     5     1     2   ar
     6     2     3   ar
     7     3     4   ar
     8     4     7    1
     9     7     8   ar
    10     8     9   ar
    11     9    10   ar
    12    10    11    2
    13    10    12   ar
    14    12    13    1
    15    12    14   ar
    16     4     5   ar
    17     5     6   ar
    18    18    19    1
    19    19    20    1
    20    20    21    1
    21    21    22    1
    22    22    23    1
    23    23    24    1
    24    24    25    1
    25     6     1   ar
    26    24    20    1
    27    14     7   ar
@<TRIPOS>MOLECULE
*****
 25 27 0 0 0
SMALL
GASTEIGER

@<TRIPOS>ATOM
      1 C          -8.9540  -19.7106   21.2946 C.ar    1  UNL1        0.1386
      2 C          -8.0159  -19.8884   22.4514 C.ar    1  UNL1        0.0369
      3 C          -6.5416  -19.6903   22.2587 C.ar    1  UNL1        0.0047
      4 C          -6.0055  -19.3142   20.9091 C.ar    1  UNL1        0.0195
      5 C          -6.9437  -19.1364   19.7524 C.ar    1  UNL1        0.0047
      6 C          -8.4179  -19.3346   19.9451 C.ar    1  UNL1        0.0369
      7 C          -4.5311  -19.1161   20.7164 C.ar    1  UNL1        0.1011
      8 C          -3.5675  -19.5895   21.7639 C.ar    1  UNL1        0.0258
      9 C          -2.0932  -19.3914   21.5712 C.ar    1  UNL1        0.0638
     10 C          -1.5825  -18.7197   20.3310 C.ar    1  UNL1        0.2765
     11 O          -0.1082  -18.5216   20.1383 O.2     1  UNL1       -0.2655
     12 N          -2.5462  -18.2463   19.2835 N.ar    1  UNL1       -0.2146
     13 C          -2.0355  -17.5746   18.0433 C.3     1  UNL1        0.1571
     14 N          -4.0205  -18.4444   19.4762 N.ar    1  UNL1       -0.1668
     15 O         -10.4284  -19.9087   21.4873 O.3     1  UNL1       -0.4754
     16 C         -10.9935  -20.0363   22.8709 C.3     1  UNL1        0.2067
     17 C         -10.3174  -18.8328   25.0720 C.3     1  UNL1        0.0053
     18 C         -11.0588  -18.8359   23.7680 C.3     1  UNL1        0.0597
     19 C         -11.8656  -17.6385   23.3612 C.3     1  UNL1        0.0757
     20 N         -11.5585  -16.9288   22.0759 N.3     1  UNL1       -0.2738
     21 C         -12.4948  -16.7604   20.9162 C.3     1  UNL1        0.0721
     22 C         -11.7762  -15.9903   19.8482 C.3     1  UNL1        0.0187
     23 C         -10.3956  -15.6828   20.3479 C.3     1  UNL1        0.0174
     24 C         -10.2611  -16.2628   21.7247 C.3     1  UNL1        0.0576
     25 C          -9.0431  -16.1897   22.5971 C.3     1  UNL1        0.0173
@<TRIPOS>BOND
     1    18    17    1
     2    18    16    1
     3    16    15    1
     4    15     1    1
     5     1     2   ar
     6     2     3   ar
     7     3     4   ar
     8     4     7    1
     9     7     8   ar
    10     8     9   ar
    11     9    10   ar
    12    10    11    2
    13    10    12   ar
    14    12    13    1
    15    12    14   ar
    16     4     5   ar
    17     5     6   ar
    18    18    19    1
    19    19    20    1
    20    20    21    1
    21    21    22    1
    22    22    23    1
    23    23    24    1
    24    24    25    1
    25     6     1   ar
    26    24    20    1
    27    14     7   ar
@<TRIPOS>MOLECULE
*****
 25 27 0 0 0
SMALL
GASTEIGER

@<TRIPOS>ATOM
      1 C          -8.7968  -19.3196   21.5229 C.ar    1  UNL1        0.1386
      2 C          -7.8153  -19.2021   22.6510 C.ar    1  UNL1        0.0369
      3 C          -6.3468  -19.1075   22.3607 C.ar    1  UNL1        0.0047
      4 C          -5.8597  -19.1305   20.9421 C.ar    1  UNL1        0.0195
      5 C          -6.8412  -19.2480   19.8140 C.ar    1  UNL1        0.0047
      6 C          -8.3098  -19.3425   20.1043 C.ar    1  UNL1        0.0369
      7 C          -4.3911  -19.0359   20.6518 C.ar    1  UNL1        0.1011
      8 C          -3.3983  -19.6328   21.6046 C.ar    1  UNL1        0.0258
      9 C          -1.9296  -19.5382   21.3143 C.ar    1  UNL1        0.0638
     10 C          -1.4539  -18.8467   20.0711 C.ar    1  UNL1        0.2765
     11 O           0.0146  -18.7522   19.7807 O.2     1  UNL1       -0.2655
     12 N          -2.4468  -18.2499   19.1182 N.ar    1  UNL1       -0.2146
     13 C          -1.9711  -17.5584   17.8750 C.3     1  UNL1        0.1571
     14 N          -3.9154  -18.3444   19.4086 N.ar    1  UNL1       -0.1668
     15 O         -10.2655  -19.4142   21.8132 O.3     1  UNL1       -0.4754
     16 C         -10.8866  -18.5138   22.8396 C.3     1  UNL1        0.2067
     17 C         -10.8905  -16.2776   21.5170 C.3     1  UNL1        0.0053
     18 C         -10.6406  -17.0350   22.7874 C.3     1  UNL1        0.0597
     19 C         -10.1447  -16.3137   24.0055 C.3     1  UNL1        0.0757
     20 N          -8.6897  -15.9729   24.1349 N.3     1  UNL1       -0.2738
     21 C          -7.7706  -15.5903   23.0130 C.3     1  UNL1        0.0721
     22 C          -6.4112  -15.3358   23.5937 C.3     1  UNL1        0.0187
     23 C          -6.4902  -15.5611   25.0746 C.3     1  UNL1        0.0174
     24 C          -7.8984  -15.9549   25.4091 C.3     1  UNL1        0.0576
     25 C          -8.4231  -16.2745   26.7775 C.3     1  UNL1        0.0173
@<TRIPOS>BOND
     1    18    17    1
     2    18    16    1
     3    16    15    1
     4    15     1    1
     5     1     2   ar
     6     2     3   ar
     7     3     4   ar
     8     4     7    1
     9     7     8   ar
    10     8     9   ar
    11     9    10   ar
    12    10    11    2
    13    10    12   ar
    14    12    13    1
    15    12    14   ar
    16     4     5   ar
    17     5     6   ar
    18    18    19    1
    19    19    20    1
    20    20    21    1
    21    21    22    1
    22    22    23    1
    23    23    24    1
    24    24    25    1
    25     6     1   ar
    26    24    20    1
    27    14     7   ar
@<TRIPOS>MOLECULE
*****
 25 27 0 0 0
SMALL
GASTEIGER

@<TRIPOS>ATOM
      1 C         -10.5692  -17.9708   20.3731 C.ar    1  UNL1        0.1386
      2 C          -9.6565  -17.0640   21.1443 C.ar    1  UNL1        0.0369
      3 C          -8.2161  -17.4361   21.3356 C.ar    1  UNL1        0.0047
      4 C          -7.6883  -18.7149   20.7558 C.ar    1  UNL1        0.0195
      5 C          -8.6010  -19.6216   19.9846 C.ar    1  UNL1        0.0047
      6 C         -10.0415  -19.2495   19.7933 C.ar    1  UNL1        0.0369
      7 C          -6.2478  -19.0869   20.9472 C.ar    1  UNL1        0.1011
      8 C          -5.6496  -20.2060   20.1474 C.ar    1  UNL1        0.0258
      9 C          -4.2090  -20.5780   20.3388 C.ar    1  UNL1        0.0638
     10 C          -3.3668  -19.8309   21.3300 C.ar    1  UNL1        0.2765
     11 O          -1.9264  -20.2029   21.5214 O.2     1  UNL1       -0.2655
     12 N          -3.9651  -18.7117   22.1298 N.ar    1  UNL1       -0.2146
     13 C          -3.1229  -17.9646   23.1209 C.3     1  UNL1        0.1571
     14 N          -5.4056  -18.3397   21.9383 N.ar    1  UNL1       -0.1668
     15 O         -12.0097  -17.5987   20.1817 O.3     1  UNL1       -0.4754
     16 C         -12.9720  -17.7115   21.3268 C.3     1  UNL1        0.2067
     17 C         -12.5312  -15.6502   22.8458 C.3     1  UNL1        0.0053
     18 C         -12.6150  -17.1370   22.6658 C.3     1  UNL1        0.0597
     19 C         -12.3419  -18.0493   23.8247 C.3     1  UNL1        0.0757
     20 N         -11.0563  -18.8196   23.8860 N.3     1  UNL1       -0.2738
     21 C         -10.8605  -20.2439   23.4582 C.3     1  UNL1        0.0721
     22 C          -9.4240  -20.6054   23.6938 C.3     1  UNL1        0.0187
     23 C          -8.7319  -19.4044   24.2672 C.3     1  UNL1        0.0174
     24 C          -9.7407  -18.3008   24.3860 C.3     1  UNL1        0.0576
     25 C          -9.4797  -16.9207   24.9124 C.3     1  UNL1        0.0173
@<TRIPOS>BOND
     1    18    17    1
     2    18    16    1
     3    16    15    1
     4    15     1    1
     5     1     2   ar
     6     2     3   ar
     7     3     4   ar
     8     4     7    1
     9     7     8   ar
    10     8     9   ar
    11     9    10   ar
    12    10    11    2
    13    10    12   ar
    14    12    13    1
    15    12    14   ar
    16     4     5   ar
    17     5     6   ar
    18    18    19    1
    19    19    20    1
    20    20    21    1
    21    21    22    1
    22    22    23    1
    23    23    24    1
    24    24    25    1
    25     6     1   ar
    26    24    20    1
    27    14     7   ar
@<TRIPOS>MOLECULE
*****
 25 27 0 0 0
SMALL
GASTEIGER

@<TRIPOS>ATOM
      1 C          -9.2636  -17.4833   23.6861 C.ar    1  UNL1        0.1386
      2 C          -8.2598  -16.3858   23.8810 C.ar    1  UNL1        0.0369
      3 C          -6.8413  -16.5786   23.4332 C.ar    1  UNL1        0.0047
      4 C          -6.4266  -17.8688   22.7903 C.ar    1  UNL1        0.0195
      5 C          -7.4303  -18.9663   22.5953 C.ar    1  UNL1        0.0047
      6 C          -8.8488  -18.7735   23.0432 C.ar    1  UNL1        0.0369
      7 C          -5.0080  -18.0615   22.3424 C.ar    1  UNL1        0.1011
      8 C          -3.8775  -17.7594   23.2809 C.ar    1  UNL1        0.0258
      9 C          -2.4590  -17.9521   22.8331 C.ar    1  UNL1        0.0638
     10 C          -2.1709  -18.4470   21.4467 C.ar    1  UNL1        0.2765
     11 O          -0.7524  -18.6398   20.9988 O.2     1  UNL1       -0.2655
     12 N          -3.3014  -18.7492   20.5082 N.ar    1  UNL1       -0.2146
     13 C          -3.0133  -19.2441   19.1218 C.3     1  UNL1        0.1571
     14 N          -4.7199  -18.5564   20.9561 N.ar    1  UNL1       -0.1668
     15 O         -10.6822  -17.2905   24.1339 O.3     1  UNL1       -0.4754
     16 C         -11.6144  -18.4639   24.1981 C.3     1  UNL1        0.2067
     17 C         -14.1115  -18.2258   24.8747 C.3     1  UNL1        0.0053
     18 C         -13.0548  -18.2994   23.8127 C.3     1  UNL1        0.0597
     19 C         -13.4382  -18.2084   22.3654 C.3     1  UNL1        0.0757
     20 N         -12.4693  -17.6486   21.3666 N.3     1  UNL1       -0.2738
     21 C         -12.3892  -16.2182   20.9219 C.3     1  UNL1        0.0721
     22 C         -11.2807  -16.1065   19.9175 C.3     1  UNL1        0.0187
     23 C         -10.6758  -17.4678   19.7414 C.3     1  UNL1        0.0174
     24 C         -11.4103  -18.4208   20.6370 C.3     1  UNL1        0.0576
     25 C         -11.1344  -19.8884   20.7783 C.3     1  UNL1        0.0173
@<TRIPOS>BOND
     1    18    17    1
     2    18    16    1
     3    16    15    1
     4    15     1    1
     5     1     2   ar
     6     2     3   ar
     7     3     4   ar
     8     4     7    1
     9     7     8   ar
    10     8     9   ar
    11     9    10   ar
    12    10    11    2
    13    10    12   ar
    14    12    13    1
    15    12    14   ar
    16     4     5   ar
    17     5     6   ar
    18    18    19    1
    19    19    20    1
    20    20    21    1
    21    21    22    1
    22    22    23    1
    23    23    24    1
    24    24    25    1
    25     6     1   ar
    26    24    20    1
    27    14     7   ar
@<TRIPOS>MOLECULE
*****
 25 27 0 0 0
SMALL
GASTEIGER

@<TRIPOS>ATOM
      1 C          -9.6243  -16.1788   23.3563 C.ar    1  UNL1        0.1386
      2 C          -8.5443  -16.1882   24.3971 C.ar    1  UNL1        0.0369
      3 C          -7.2131  -16.8081   24.0910 C.ar    1  UNL1        0.0047
      4 C          -6.9620  -17.4185   22.7440 C.ar    1  UNL1        0.0195
      5 C          -8.0420  -17.4091   21.7032 C.ar    1  UNL1        0.0047
      6 C          -9.3732  -16.7892   22.0093 C.ar    1  UNL1        0.0369
      7 C          -5.6307  -18.0384   22.4379 C.ar    1  UNL1        0.1011
      8 C          -4.4269  -17.6707   23.2537 C.ar    1  UNL1        0.0258
      9 C          -3.0956  -18.2906   22.9476 C.ar    1  UNL1        0.0638
     10 C          -2.9683  -19.2781   21.8257 C.ar    1  UNL1        0.2765
     11 O          -1.6372  -19.8980   21.5196 O.2     1  UNL1       -0.2655
     12 N          -4.1723  -19.6458   21.0100 N.ar    1  UNL1       -0.2146
     13 C          -4.0450  -20.6334   19.8881 C.3     1  UNL1        0.1571
     14 N          -5.5035  -19.0259   21.3161 N.ar    1  UNL1       -0.1668
     15 O         -10.9555  -15.5589   23.6624 O.3     1  UNL1       -0.4754
     16 C         -12.0623  -15.6219   22.6519 C.3     1  UNL1        0.2067
     17 C         -12.6100  -17.0995   20.5863 C.3     1  UNL1        0.0053
     18 C         -12.4740  -16.9425   22.0718 C.3     1  UNL1        0.0597
     19 C         -12.7496  -18.1062   22.9773 C.3     1  UNL1        0.0757
     20 N         -11.6140  -18.9341   23.5015 N.3     1  UNL1       -0.2738
     21 C         -11.1313  -18.9704   24.9213 C.3     1  UNL1        0.0721
     22 C          -9.9806  -19.9297   24.9953 C.3     1  UNL1        0.0187
     23 C          -9.7521  -20.4864   23.6212 C.3     1  UNL1        0.0174
     24 C         -10.7616  -19.8710   22.6980 C.3     1  UNL1        0.0576
     25 C         -10.8951  -20.1446   21.2293 C.3     1  UNL1        0.0173
@<TRIPOS>BOND
     1    18    17    1
     2    18    16    1
     3    16    15    1
     4    15     1    1
     5     1     2   ar
     6     2     3   ar
     7     3     4   ar
     8     4     7    1
     9     7     8   ar
    10     8     9   ar
    11     9    10   ar
    12    10    11    2
    13    10    12   ar
    14    12    13    1
    15    12    14   ar
    16     4     5   ar
    17     5     6   ar
    18    18    19    1
    19    19    20    1
    20    20    21    1
    21    21    22    1
    22    22    23    1
    23    23    24    1
    24    24    25    1
    25     6     1   ar
    26    24    20    1
    27    14     7   ar
