@<TRIPOS>MOLECULE
*****
 29 31 0 0 0
SMALL
GASTEIGER

@<TRIPOS>ATOM
      1 C         -11.0702  -20.1861   21.0300 C.3     1  UNL1        0.0646
      2 C         -10.4044  -19.6201   19.8109 C.3     1  UNL1        0.2068
      3 O          -9.4033  -18.5117   19.9494 O.3     1  UNL1       -0.4754
      4 C          -5.3296  -19.3604   21.6626 C.ar    1  UNL1       -0.0059
      5 C          -5.7936  -20.0877   20.4355 C.ar    1  UNL1        0.0002
      6 C          -7.1515  -19.8048   19.8645 C.ar    1  UNL1        0.0366
      7 C          -8.0454  -18.7946   20.5205 C.ar    1  UNL1        0.1385
      8 C          -7.5814  -18.0673   21.7475 C.ar    1  UNL1        0.0366
      9 C          -6.2235  -18.3502   22.3186 C.ar    1  UNL1        0.0002
     10 C          -3.9717  -19.6433   22.2336 C.3     1  UNL1        0.0991
     11 N          -2.8011  -18.7910   21.8422 N.3     1  UNL1       -0.2690
     12 C          -2.2687  -16.2539   22.0151 C.3     1  UNL1        0.0188
     13 C          -2.4353  -17.5938   22.6686 C.3     1  UNL1        0.0724
     14 C          -1.9961  -19.1360   20.6244 C.3     1  UNL1        0.0724
     15 C          -2.4918  -18.7478   19.2630 C.3     1  UNL1        0.0188
     16 C         -11.8133  -19.2809   21.9673 C.3     1  UNL1        0.0759
     17 N         -11.0582  -18.3298   22.8477 N.3     1  UNL1       -0.2726
     18 C         -11.0047  -16.8708   22.5034 C.3     1  UNL1        0.0721
     19 C         -10.2496  -15.9196   23.3838 C.3     1  UNL1        0.0178
     20 C          -9.5479  -16.4274   24.6084 C.3     1  UNL1        0.0087
     21 C          -9.6013  -17.8864   24.9527 C.3     1  UNL1        0.0178
     22 C         -10.3565  -18.8376   24.0723 C.3     1  UNL1        0.0721
     23 C          -8.7928  -15.4763   25.4888 C.3     1  UNL1        0.0453
     24 C          -7.3096  -15.3214   25.3272 C.ar    1  UNL1        0.0541
     25 C          -6.5716  -15.2070   24.0263 C.ar    1  UNL1        0.1131
     26 N          -5.1099  -15.0687   24.3332 N.ar    1  UNL1       -0.2229
     27 C          -4.9445  -15.0976   25.8238 C.ar    1  UNL1        0.1748
     28 N          -6.3040  -15.2538   26.4381 N.ar    1  UNL1       -0.3382
     29 H          -6.5016  -15.3033   27.4013 H       1  UNL1        0.1672
@<TRIPOS>BOND
     1    12    13    1
     2    13    11    1
     3    11    14    1
     4    14    15    1
     5    11    10    1
     6    10     4    1
     7     4     5   ar
     8     5     6   ar
     9     6     7   ar
    10     7     3    1
    11     3     2    1
    12     2     1    1
    13     1    16    1
    14    16    17    1
    15    17    18    1
    16    18    19    1
    17    19    20    1
    18    20    23    1
    19    23    24    1
    20    24    25   ar
    21    25    26   ar
    22    26    27   ar
    23    27    28   ar
    24    20    21    1
    25    21    22    1
    26     7     8   ar
    27     8     9   ar
    28     9     4   ar
    29    22    17    1
    30    28    24   ar
    31    28    29    1
@<TRIPOS>MOLECULE
*****
 29 31 0 0 0
SMALL
GASTEIGER

@<TRIPOS>ATOM
      1 C         -10.8338  -19.2792   20.1042 C.3     1  UNL1        0.0646
      2 C         -11.1192  -20.1281   21.3075 C.3     1  UNL1        0.2068
      3 O         -11.6471  -19.4976   22.5620 O.3     1  UNL1       -0.4754
      4 C          -9.3005  -16.2474   24.6064 C.ar    1  UNL1       -0.0059
      5 C         -10.1692  -15.9179   23.4288 C.ar    1  UNL1        0.0002
      6 C         -10.9514  -17.0013   22.7473 C.ar    1  UNL1        0.0366
      7 C         -10.8649  -18.4142   23.2435 C.ar    1  UNL1        0.1385
      8 C          -9.9963  -18.7437   24.4211 C.ar    1  UNL1        0.0366
      9 C          -9.2141  -17.6603   25.1026 C.ar    1  UNL1        0.0002
     10 C          -8.5183  -15.1640   25.2879 C.3     1  UNL1        0.0991
     11 N          -7.0198  -15.1663   25.2224 N.3     1  UNL1       -0.2690
     12 C          -4.8950  -15.5992   23.7913 C.3     1  UNL1        0.0188
     13 C          -6.3272  -15.1645   23.8919 C.3     1  UNL1        0.0724
     14 C          -6.2138  -15.1706   26.4875 C.3     1  UNL1        0.0724
     15 C          -6.5930  -16.0839   27.6153 C.3     1  UNL1        0.0188
     16 C          -9.5375  -19.4362   19.3659 C.3     1  UNL1        0.0759
     17 N          -8.2380  -19.3885   20.1136 N.3     1  UNL1       -0.2726
     18 C          -8.0515  -18.4057   21.2313 C.3     1  UNL1        0.0721
     19 C          -6.7520  -18.3580   21.9791 C.3     1  UNL1        0.0178
     20 C          -5.6391  -19.2930   21.6091 C.3     1  UNL1        0.0087
     21 C          -5.8255  -20.2758   20.4913 C.3     1  UNL1        0.0178
     22 C          -7.1250  -20.3236   19.7436 C.3     1  UNL1        0.0721
     23 C          -4.3396  -19.2452   22.3568 C.3     1  UNL1        0.0453
     24 C          -3.1125  -18.6934   21.6936 C.ar    1  UNL1        0.0541
     25 C          -1.9727  -19.4963   21.1402 C.ar    1  UNL1        0.1131
     26 N          -0.9656  -18.5409   20.5720 N.ar    1  UNL1       -0.2229
     27 C          -1.4830  -17.1475   20.7742 C.ar    1  UNL1        0.1748
     28 N          -2.8099  -17.2418   21.4674 N.ar    1  UNL1       -0.3382
     29 H          -3.3817  -16.4840   21.7281 H       1  UNL1        0.1672
@<TRIPOS>BOND
     1    12    13    1
     2    13    11    1
     3    11    14    1
     4    14    15    1
     5    11    10    1
     6    10     4    1
     7     4     5   ar
     8     5     6   ar
     9     6     7   ar
    10     7     3    1
    11     3     2    1
    12     2     1    1
    13     1    16    1
    14    16    17    1
    15    17    18    1
    16    18    19    1
    17    19    20    1
    18    20    23    1
    19    23    24    1
    20    24    25   ar
    21    25    26   ar
    22    26    27   ar
    23    27    28   ar
    24    20    21    1
    25    21    22    1
    26     7     8   ar
    27     8     9   ar
    28     9     4   ar
    29    22    17    1
    30    28    24   ar
    31    28    29    1
@<TRIPOS>MOLECULE
*****
 29 31 0 0 0
SMALL
GASTEIGER

@<TRIPOS>ATOM
      1 C         -10.5736  -19.2864   20.1494 C.3     1  UNL1        0.0646
      2 C         -11.1767  -20.1338   21.2303 C.3     1  UNL1        0.2068
      3 O         -11.7258  -19.4905   22.4691 O.3     1  UNL1       -0.4754
      4 C          -9.3664  -16.2912   24.5781 C.ar    1  UNL1       -0.0059
      5 C          -9.2989  -17.7113   25.0564 C.ar    1  UNL1        0.0002
      6 C         -10.0853  -18.7777   24.3534 C.ar    1  UNL1        0.0366
      7 C         -10.9393  -18.4241   23.1721 C.ar    1  UNL1        0.1385
      8 C         -11.0068  -17.0041   22.6938 C.ar    1  UNL1        0.0366
      9 C         -10.2204  -15.9376   23.3968 C.ar    1  UNL1        0.0002
     10 C          -8.5799  -15.2248   25.2811 C.3     1  UNL1        0.0991
     11 N          -7.0806  -15.2580   25.2543 N.3     1  UNL1       -0.2690
     12 C          -6.6742  -16.1583   27.6574 C.3     1  UNL1        0.0188
     13 C          -6.3067  -15.2286   26.5390 C.3     1  UNL1        0.0724
     14 C          -6.3550  -15.3206   23.9429 C.3     1  UNL1        0.0724
     15 C          -4.9164  -15.7431   23.9012 C.3     1  UNL1        0.0188
     16 C          -9.3027  -19.7178   19.4794 C.3     1  UNL1        0.0759
     17 N          -7.9905  -19.5616   20.1890 N.3     1  UNL1       -0.2726
     18 C          -6.8080  -20.3831   19.7685 C.3     1  UNL1        0.0721
     19 C          -5.4957  -20.2269   20.4780 C.3     1  UNL1        0.0178
     20 C          -5.3659  -19.2493   21.6082 C.3     1  UNL1        0.0087
     21 C          -6.5484  -18.4277   22.0288 C.3     1  UNL1        0.0178
     22 C          -7.8606  -18.5839   21.3193 C.3     1  UNL1        0.0721
     23 C          -4.0536  -19.0931   22.3178 C.3     1  UNL1        0.0453
     24 C          -2.8792  -18.4968   21.6001 C.ar    1  UNL1        0.0541
     25 C          -2.4148  -17.0739   21.6997 C.ar    1  UNL1        0.1131
     26 N          -1.2116  -16.9163   20.8180 N.ar    1  UNL1       -0.2229
     27 C          -0.9324  -18.2417   20.1735 C.ar    1  UNL1        0.1748
     28 N          -1.9630  -19.2185   20.6569 N.ar    1  UNL1       -0.3382
     29 H          -2.0270  -20.1668   20.4002 H       1  UNL1        0.1672
@<TRIPOS>BOND
     1    12    13    1
     2    13    11    1
     3    11    14    1
     4    14    15    1
     5    11    10    1
     6    10     4    1
     7     4     5   ar
     8     5     6   ar
     9     6     7   ar
    10     7     3    1
    11     3     2    1
    12     2     1    1
    13     1    16    1
    14    16    17    1
    15    17    18    1
    16    18    19    1
    17    19    20    1
    18    20    23    1
    19    23    24    1
    20    24    25   ar
    21    25    26   ar
    22    26    27   ar
    23    27    28   ar
    24    20    21    1
    25    21    22    1
    26     7     8   ar
    27     8     9   ar
    28     9     4   ar
    29    22    17    1
    30    28    24   ar
    31    28    29    1
@<TRIPOS>MOLECULE
*****
 29 31 0 0 0
SMALL
GASTEIGER

@<TRIPOS>ATOM
      1 C          -3.4095  -20.4910   20.0322 C.3     1  UNL1        0.0646
      2 C          -4.9046  -20.5379   20.1443 C.3     1  UNL1        0.2068
      3 O          -5.7234  -19.3415   19.7597 O.3     1  UNL1       -0.4754
      4 C         -10.0980  -19.1795   20.8023 C.ar    1  UNL1       -0.0059
      5 C          -9.0688  -18.7949   21.8235 C.ar    1  UNL1        0.0002
      6 C          -7.6107  -18.8489   21.4760 C.ar    1  UNL1        0.0366
      7 C          -7.1816  -19.2875   20.1072 C.ar    1  UNL1        0.1385
      8 C          -8.2108  -19.6720   19.0860 C.ar    1  UNL1        0.0366
      9 C          -9.6689  -19.6180   19.4335 C.ar    1  UNL1        0.0002
     10 C         -11.5562  -19.1255   21.1498 C.3     1  UNL1        0.0991
     11 N         -12.1189  -17.9172   21.8379 N.3     1  UNL1       -0.2690
     12 C         -13.7216  -17.9605   23.8823 C.3     1  UNL1        0.0188
     13 C         -12.3301  -17.9301   23.3229 C.3     1  UNL1        0.0724
     14 C         -12.4706  -16.6960   21.0409 C.3     1  UNL1        0.0724
     15 C         -11.5607  -16.2289   19.9437 C.3     1  UNL1        0.0188
     16 C          -2.5960  -19.8464   21.1152 C.3     1  UNL1        0.0759
     17 N          -3.1491  -18.6758   21.8727 N.3     1  UNL1       -0.2726
     18 C          -4.2704  -18.8760   22.8486 C.3     1  UNL1        0.0721
     19 C          -4.8235  -17.7054   23.6061 C.3     1  UNL1        0.0178
     20 C          -4.2552  -16.3345   23.3876 C.3     1  UNL1        0.0087
     21 C          -3.1337  -16.1342   22.4117 C.3     1  UNL1        0.0178
     22 C          -2.5807  -17.3049   21.6542 C.3     1  UNL1        0.0721
     23 C          -4.8082  -15.1639   24.1451 C.3     1  UNL1        0.0453
     24 C          -6.0500  -15.3240   24.9711 C.ar    1  UNL1        0.0541
     25 C          -6.1011  -15.5194   26.4574 C.ar    1  UNL1        0.1131
     26 N          -7.5414  -15.6330   26.8607 N.ar    1  UNL1       -0.2229
     27 C          -8.3804  -15.5077   25.6236 C.ar    1  UNL1        0.1748
     28 N          -7.4586  -15.3167   24.4557 N.ar    1  UNL1       -0.3382
     29 H          -7.7305  -15.2061   23.5160 H       1  UNL1        0.1672
@<TRIPOS>BOND
     1    12    13    1
     2    13    11    1
     3    11    14    1
     4    14    15    1
     5    11    10    1
     6    10     4    1
     7     4     5   ar
     8     5     6   ar
     9     6     7   ar
    10     7     3    1
    11     3     2    1
    12     2     1    1
    13     1    16    1
    14    16    17    1
    15    17    18    1
    16    18    19    1
    17    19    20    1
    18    20    23    1
    19    23    24    1
    20    24    25   ar
    21    25    26   ar
    22    26    27   ar
    23    27    28   ar
    24    20    21    1
    25    21    22    1
    26     7     8   ar
    27     8     9   ar
    28     9     4   ar
    29    22    17    1
    30    28    24   ar
    31    28    29    1
@<TRIPOS>MOLECULE
*****
 29 31 0 0 0
SMALL
GASTEIGER

@<TRIPOS>ATOM
      1 C          -3.2998  -20.3802   20.0190 C.3     1  UNL1        0.0646
      2 C          -4.7957  -20.4767   20.0729 C.3     1  UNL1        0.2068
      3 O          -5.6363  -19.2717   19.7707 O.3     1  UNL1       -0.4754
      4 C         -10.0075  -19.2523   20.8395 C.ar    1  UNL1       -0.0059
      5 C          -9.5744  -19.6529   19.4605 C.ar    1  UNL1        0.0002
      6 C          -8.1173  -19.6594   19.1042 C.ar    1  UNL1        0.0366
      7 C          -7.0934  -19.2652   20.1270 C.ar    1  UNL1        0.1385
      8 C          -7.5265  -18.8646   21.5060 C.ar    1  UNL1        0.0366
      9 C          -8.9836  -18.8581   21.8623 C.ar    1  UNL1        0.0002
     10 C         -11.4646  -19.2458   21.1958 C.3     1  UNL1        0.0991
     11 N         -12.0774  -18.0299   21.8250 N.3     1  UNL1       -0.2690
     12 C         -11.5137  -16.3014   19.9690 C.3     1  UNL1        0.0188
     13 C         -12.4785  -16.8644   20.9702 C.3     1  UNL1        0.0724
     14 C         -12.2892  -17.9795   23.3092 C.3     1  UNL1        0.0724
     15 C         -13.6810  -17.9567   23.8679 C.3     1  UNL1        0.0188
     16 C          -2.5445  -19.7867   21.1712 C.3     1  UNL1        0.0759
     17 N          -3.1233  -18.6304   21.9314 N.3     1  UNL1       -0.2726
     18 C          -2.5727  -17.2497   21.7304 C.3     1  UNL1        0.0721
     19 C          -3.1515  -16.0934   22.4906 C.3     1  UNL1        0.0178
     20 C          -4.2810  -16.3178   23.4518 C.3     1  UNL1        0.0087
     21 C          -4.8316  -17.6985   23.6529 C.3     1  UNL1        0.0178
     22 C          -4.2528  -18.8549   22.8927 C.3     1  UNL1        0.0721
     23 C          -4.8598  -15.1615   24.2120 C.3     1  UNL1        0.0453
     24 C          -6.2078  -15.2878   24.8575 C.ar    1  UNL1        0.0541
     25 C          -7.5324  -15.1635   24.1646 C.ar    1  UNL1        0.1131
     26 N          -8.6112  -15.3594   25.1881 N.ar    1  UNL1       -0.2229
     27 C          -7.9534  -15.6048   26.5137 C.ar    1  UNL1        0.1748
     28 N          -6.4681  -15.5605   26.3094 N.ar    1  UNL1       -0.3382
     29 H          -5.7841  -15.6880   27.0059 H       1  UNL1        0.1672
@<TRIPOS>BOND
     1    12    13    1
     2    13    11    1
     3    11    14    1
     4    14    15    1
     5    11    10    1
     6    10     4    1
     7     4     5   ar
     8     5     6   ar
     9     6     7   ar
    10     7     3    1
    11     3     2    1
    12     2     1    1
    13     1    16    1
    14    16    17    1
    15    17    18    1
    16    18    19    1
    17    19    20    1
    18    20    23    1
    19    23    24    1
    20    24    25   ar
    21    25    26   ar
    22    26    27   ar
    23    27    28   ar
    24    20    21    1
    25    21    22    1
    26     7     8   ar
    27     8     9   ar
    28     9     4   ar
    29    22    17    1
    30    28    24   ar
    31    28    29    1
@<TRIPOS>MOLECULE
*****
 29 31 0 0 0
SMALL
GASTEIGER

@<TRIPOS>ATOM
      1 C         -11.3111  -17.9451   19.7977 C.3     1  UNL1        0.0646
      2 C         -12.3709  -17.1865   20.5402 C.3     1  UNL1        0.2068
      3 O         -11.9816  -16.1397   21.5414 O.3     1  UNL1       -0.4754
      4 C          -8.2913  -16.6934   24.0563 C.ar    1  UNL1       -0.0059
      5 C          -8.1981  -15.9977   22.7307 C.ar    1  UNL1        0.0002
      6 C          -9.4282  -15.8131   21.8924 C.ar    1  UNL1        0.0366
      7 C         -10.7515  -16.3242   22.3797 C.ar    1  UNL1        0.1385
      8 C         -10.8447  -17.0200   23.7053 C.ar    1  UNL1        0.0366
      9 C          -9.6146  -17.2045   24.5436 C.ar    1  UNL1        0.0002
     10 C          -7.0611  -16.8780   24.8946 C.3     1  UNL1        0.0991
     11 N          -6.4965  -15.7201   25.6631 N.3     1  UNL1       -0.2690
     12 C          -8.3823  -15.1596   27.3601 C.3     1  UNL1        0.0188
     13 C          -6.9424  -15.4666   27.0727 C.3     1  UNL1        0.0724
     14 C          -5.4860  -14.8157   25.0220 C.3     1  UNL1        0.0724
     15 C          -4.8621  -15.1973   23.7124 C.3     1  UNL1        0.0188
     16 C         -10.8050  -19.2498   20.3378 C.3     1  UNL1        0.0759
     17 N          -9.3435  -19.4260   20.6257 N.3     1  UNL1       -0.2726
     18 C          -8.3468  -19.3734   19.5060 C.3     1  UNL1        0.0721
     19 C          -6.8853  -19.5496   19.7939 C.3     1  UNL1        0.0178
     20 C          -6.4204  -19.7783   21.2016 C.3     1  UNL1        0.0087
     21 C          -7.4171  -19.8308   22.3214 C.3     1  UNL1        0.0178
     22 C          -8.8787  -19.6547   22.0335 C.3     1  UNL1        0.0721
     23 C          -4.9589  -19.9544   21.4895 C.3     1  UNL1        0.0453
     24 C          -3.9786  -18.9018   21.0644 C.ar    1  UNL1        0.0541
     25 C          -3.2697  -17.9396   21.9709 C.ar    1  UNL1        0.1131
     26 N          -2.3879  -17.0696   21.1250 N.ar    1  UNL1       -0.2229
     27 C          -2.5519  -17.4941   19.6957 C.ar    1  UNL1        0.1748
     28 N          -3.5349  -18.6264   19.6583 N.ar    1  UNL1       -0.3382
     29 H          -3.8361  -19.1049   18.8523 H       1  UNL1        0.1672
@<TRIPOS>BOND
     1    12    13    1
     2    13    11    1
     3    11    14    1
     4    14    15    1
     5    11    10    1
     6    10     4    1
     7     4     5   ar
     8     5     6   ar
     9     6     7   ar
    10     7     3    1
    11     3     2    1
    12     2     1    1
    13     1    16    1
    14    16    17    1
    15    17    18    1
    16    18    19    1
    17    19    20    1
    18    20    23    1
    19    23    24    1
    20    24    25   ar
    21    25    26   ar
    22    26    27   ar
    23    27    28   ar
    24    20    21    1
    25    21    22    1
    26     7     8   ar
    27     8     9   ar
    28     9     4   ar
    29    22    17    1
    30    28    24   ar
    31    28    29    1
@<TRIPOS>MOLECULE
*****
 29 31 0 0 0
SMALL
GASTEIGER

@<TRIPOS>ATOM
      1 C         -12.1163  -19.2835   20.7293 C.3     1  UNL1        0.0646
      2 C         -10.7901  -19.9844   20.7375 C.3     1  UNL1        0.2068
      3 O          -9.6945  -19.5271   19.8208 O.3     1  UNL1       -0.4754
      4 C          -5.4403  -19.4079   21.2831 C.ar    1  UNL1       -0.0059
      5 C          -5.7259  -19.5177   19.8146 C.ar    1  UNL1        0.0002
      6 C          -7.1439  -19.5574   19.3272 C.ar    1  UNL1        0.0366
      7 C          -8.2764  -19.4873   20.3082 C.ar    1  UNL1        0.1385
      8 C          -7.9909  -19.3776   21.7766 C.ar    1  UNL1        0.0366
      9 C          -6.5729  -19.3378   22.2641 C.ar    1  UNL1        0.0002
     10 C          -4.0223  -19.3682   21.7705 C.3     1  UNL1        0.0991
     11 N          -3.1886  -18.1403   21.5530 N.3     1  UNL1       -0.2690
     12 C          -1.1057  -18.1056   20.0004 C.3     1  UNL1        0.0188
     13 C          -2.5737  -17.8795   20.2099 C.3     1  UNL1        0.0724
     14 C          -2.9697  -17.1733   22.6786 C.3     1  UNL1        0.0724
     15 C          -4.1341  -16.6976   23.4959 C.3     1  UNL1        0.0188
     16 C         -12.2548  -17.9331   21.3676 C.3     1  UNL1        0.0759
     17 N         -11.0629  -17.2755   21.9977 N.3     1  UNL1       -0.2726
     18 C         -10.7127  -17.5685   23.4265 C.3     1  UNL1        0.0721
     19 C          -9.5208  -16.9110   24.0566 C.3     1  UNL1        0.0178
     20 C          -8.6791  -15.9605   23.2579 C.3     1  UNL1        0.0087
     21 C          -9.0293  -15.6674   21.8290 C.3     1  UNL1        0.0178
     22 C         -10.2212  -16.3250   21.1989 C.3     1  UNL1        0.0721
     23 C          -7.4872  -15.3029   23.8880 C.3     1  UNL1        0.0453
     24 C          -7.3748  -15.2272   25.3818 C.ar    1  UNL1        0.0541
     25 C          -8.5090  -15.3325   26.3578 C.ar    1  UNL1        0.1131
     26 N          -7.9437  -15.2032   27.7411 N.ar    1  UNL1       -0.2229
     27 C          -6.4601  -15.0179   27.6201 C.ar    1  UNL1        0.1748
     28 N          -6.1085  -15.0327   26.1619 N.ar    1  UNL1       -0.3382
     29 H          -5.2052  -14.9324   25.7834 H       1  UNL1        0.1672
@<TRIPOS>BOND
     1    12    13    1
     2    13    11    1
     3    11    14    1
     4    14    15    1
     5    11    10    1
     6    10     4    1
     7     4     5   ar
     8     5     6   ar
     9     6     7   ar
    10     7     3    1
    11     3     2    1
    12     2     1    1
    13     1    16    1
    14    16    17    1
    15    17    18    1
    16    18    19    1
    17    19    20    1
    18    20    23    1
    19    23    24    1
    20    24    25   ar
    21    25    26   ar
    22    26    27   ar
    23    27    28   ar
    24    20    21    1
    25    21    22    1
    26     7     8   ar
    27     8     9   ar
    28     9     4   ar
    29    22    17    1
    30    28    24   ar
    31    28    29    1
@<TRIPOS>MOLECULE
*****
 29 31 0 0 0
SMALL
GASTEIGER

@<TRIPOS>ATOM
      1 C          -9.2566   -4.9527   17.5805 C.3     1  UNL1        0.0646
      2 C          -9.1482   -4.0439   16.3921 C.3     1  UNL1        0.2068
      3 O          -9.9321   -2.7657   16.3515 O.3     1  UNL1       -0.4754
      4 C         -13.7312   -2.3794   18.7321 C.ar    1  UNL1       -0.0059
      5 C         -12.4172   -2.0044   19.3506 C.ar    1  UNL1        0.0002
      6 C         -11.1508   -2.1331   18.5570 C.ar    1  UNL1        0.0366
      7 C         -11.1985   -2.6369   17.1450 C.ar    1  UNL1        0.1385
      8 C         -12.5125   -3.0120   16.5265 C.ar    1  UNL1        0.0366
      9 C         -13.7789   -2.8832   17.3201 C.ar    1  UNL1        0.0002
     10 C         -14.9976   -2.2507   19.5257 C.3     1  UNL1        0.0991
     11 N         -15.9444   -1.1206   19.2491 N.3     1  UNL1       -0.2690
     12 C         -14.6787    1.1076   18.8211 C.3     1  UNL1        0.0188
     13 C         -15.5404   -0.0138   18.3209 C.3     1  UNL1        0.0724
     14 C         -17.2953   -1.0974   19.9007 C.3     1  UNL1        0.0724
     15 C         -17.8323    0.1829   20.4683 C.3     1  UNL1        0.0188
     16 C         -10.0619   -6.2149   17.4884 C.3     1  UNL1        0.0759
     17 N         -11.4954   -6.2239   17.9301 N.3     1  UNL1       -0.2726
     18 C         -12.5680   -6.6810   16.9865 C.3     1  UNL1        0.0721
     19 C         -14.0015   -6.6900   17.4282 C.3     1  UNL1        0.0178
     20 C         -14.3623   -6.2418   18.8134 C.3     1  UNL1        0.0087
     21 C         -13.2896   -5.7846   19.7570 C.3     1  UNL1        0.0178
     22 C         -11.8562   -5.7757   19.3154 C.3     1  UNL1        0.0721
     23 C         -15.7958   -6.2508   19.2550 C.3     1  UNL1        0.0453
     24 C         -16.5041   -7.5542   19.4769 C.ar    1  UNL1        0.0541
     25 C         -17.9869   -7.7414   19.6045 C.ar    1  UNL1        0.1131
     26 N         -18.2532   -9.2022   19.8165 N.ar    1  UNL1       -0.2229
     27 C         -16.9350   -9.9180   19.8199 C.ar    1  UNL1        0.1748
     28 N         -15.8540   -8.8994   19.6100 N.ar    1  UNL1       -0.3382
     29 H         -14.8875   -9.0818   19.5671 H       1  UNL1        0.1672
@<TRIPOS>BOND
     1    12    13    1
     2    13    11    1
     3    11    14    1
     4    14    15    1
     5    11    10    1
     6    10     4    1
     7     4     5   ar
     8     5     6   ar
     9     6     7   ar
    10     7     3    1
    11     3     2    1
    12     2     1    1
    13     1    16    1
    14    16    17    1
    15    17    18    1
    16    18    19    1
    17    19    20    1
    18    20    23    1
    19    23    24    1
    20    24    25   ar
    21    25    26   ar
    22    26    27   ar
    23    27    28   ar
    24    20    21    1
    25    21    22    1
    26     7     8   ar
    27     8     9   ar
    28     9     4   ar
    29    22    17    1
    30    28    24   ar
    31    28    29    1
@<TRIPOS>MOLECULE
*****
 29 31 0 0 0
SMALL
GASTEIGER

@<TRIPOS>ATOM
      1 C          -9.5495   -4.9928   19.0604 C.3     1  UNL1        0.0646
      2 C          -9.9069   -3.9573   18.0357 C.3     1  UNL1        0.2068
      3 O         -10.7754   -2.7948   18.4153 O.3     1  UNL1       -0.4754
      4 C         -15.2482   -3.1089   18.0340 C.ar    1  UNL1       -0.0059
      5 C         -14.6407   -2.5170   19.2711 C.ar    1  UNL1        0.0002
      6 C         -13.1498   -2.4123   19.3983 C.ar    1  UNL1        0.0366
      7 C         -12.2664   -2.8995   18.2882 C.ar    1  UNL1        0.1385
      8 C         -12.8739   -3.4914   17.0511 C.ar    1  UNL1        0.0366
      9 C         -14.3648   -3.5961   16.9240 C.ar    1  UNL1        0.0002
     10 C         -16.7392   -3.2136   17.9069 C.3     1  UNL1        0.0991
     11 N         -17.5413   -3.8601   18.9971 N.3     1  UNL1       -0.2690
     12 C         -18.5048   -1.7799   20.2195 C.3     1  UNL1        0.0188
     13 C         -18.7045   -3.1333   19.6042 C.3     1  UNL1        0.0724
     14 C         -17.1802   -5.2336   19.4802 C.3     1  UNL1        0.0724
     15 C         -18.2186   -6.3156   19.5090 C.3     1  UNL1        0.0188
     16 C          -9.9814   -6.4166   18.8702 C.3     1  UNL1        0.0759
     17 N         -11.3795   -6.7226   18.4211 N.3     1  UNL1       -0.2726
     18 C         -12.5402   -6.4146   19.3199 C.3     1  UNL1        0.0721
     19 C         -13.9384   -6.7206   18.8709 C.3     1  UNL1        0.0178
     20 C         -14.1758   -7.3347   17.5231 C.3     1  UNL1        0.0087
     21 C         -13.0150   -7.6427   16.6242 C.3     1  UNL1        0.0178
     22 C         -11.6169   -7.3367   17.0733 C.3     1  UNL1        0.0721
     23 C         -15.5739   -7.6407   17.0741 C.3     1  UNL1        0.0453
     24 C         -16.2650   -8.8784   17.5642 C.ar    1  UNL1        0.0541
     25 C         -15.6025  -10.0668   18.1956 C.ar    1  UNL1        0.1131
     26 N         -16.6680  -11.0680   18.5306 N.ar    1  UNL1       -0.2229
     27 C         -17.9892  -10.4983   18.1061 C.ar    1  UNL1        0.1748
     28 N         -17.7401   -9.1451   17.5088 N.ar    1  UNL1       -0.3382
     29 H         -18.4245   -8.5385   17.1445 H       1  UNL1        0.1672
@<TRIPOS>BOND
     1    12    13    1
     2    13    11    1
     3    11    14    1
     4    14    15    1
     5    11    10    1
     6    10     4    1
     7     4     5   ar
     8     5     6   ar
     9     6     7   ar
    10     7     3    1
    11     3     2    1
    12     2     1    1
    13     1    16    1
    14    16    17    1
    15    17    18    1
    16    18    19    1
    17    19    20    1
    18    20    23    1
    19    23    24    1
    20    24    25   ar
    21    25    26   ar
    22    26    27   ar
    23    27    28   ar
    24    20    21    1
    25    21    22    1
    26     7     8   ar
    27     8     9   ar
    28     9     4   ar
    29    22    17    1
    30    28    24   ar
    31    28    29    1
