@<TRIPOS>MOLECULE
*****
 23 25 0 0 0
SMALL
GASTEIGER

@<TRIPOS>ATOM
      1 C          -6.4143  -16.4641   23.5535 C.3     1  UNL1        0.1753
      2 O          -4.9603  -16.7232   23.8159 O.3     1  UNL1       -0.3460
      3 C          -4.2551  -17.8354   23.0978 C.3     1  UNL1        0.1685
      4 C          -5.0039  -18.6886   22.1172 C.ar    1  UNL1        0.0067
      5 C          -4.2987  -19.8008   21.3991 C.ar    1  UNL1       -0.0021
      6 C          -5.0475  -20.6538   20.4185 C.ar    1  UNL1       -0.0003
      7 C          -6.5015  -20.3947   20.1561 C.ar    1  UNL1       -0.0002
      8 C          -7.2067  -19.2826   20.8742 C.ar    1  UNL1       -0.0010
      9 C          -6.4579  -18.4295   21.8548 C.ar    1  UNL1        0.0181
     10 C          -7.1630  -17.3172   22.5729 C.3     1  UNL1        0.2161
     11 C          -7.1194  -15.3519   24.2716 C.3     1  UNL1        0.1027
     12 C          -6.3043  -15.3437   26.7384 C.3     1  UNL1        0.0859
     13 N          -6.4466  -14.6521   25.4151 N.3     1  UNL1       -0.2942
     14 H          -5.5044  -14.4169   25.1030 H       1  UNL1        0.1234
     15 O          -8.6170  -17.0581   22.3105 O.3     1  UNL1       -0.4725
     16 C          -9.6634  -17.8069   23.0814 C.ar    1  UNL1        0.1346
     17 C          -9.2684  -18.9571   23.9596 C.ar    1  UNL1        0.0366
     18 C         -10.3147  -19.7059   24.7306 C.ar    1  UNL1        0.0028
     19 C         -11.7561  -19.3046   24.6234 C.ar    1  UNL1       -0.0044
     20 C         -12.1511  -18.1545   23.7453 C.ar    1  UNL1       -0.0229
     21 C         -13.5924  -17.7531   23.6381 C.3     1  UNL1        0.0308
     22 C         -11.1047  -17.4056   22.9742 C.ar    1  UNL1        0.0082
     23 C         -11.4997  -16.2555   22.0961 C.3     1  UNL1        0.0339
@<TRIPOS>BOND
     1    12    13    1
     2    13    11    1
     3     1    11    1
     4     1     2    1
     5     2     3    1
     6     3     4    1
     7     4     5   ar
     8     5     6   ar
     9     6     7   ar
    10     7     8   ar
    11     8     9   ar
    12     9    10    1
    13    10    15    1
    14    15    16    1
    15    16    17   ar
    16    17    18   ar
    17    18    19   ar
    18    19    20   ar
    19    20    21    1
    20    20    22   ar
    21    22    23    1
    22    10     1    1
    23    22    16   ar
    24     9     4   ar
    25    13    14    1
@<TRIPOS>MOLECULE
*****
 23 25 0 0 0
SMALL
GASTEIGER

@<TRIPOS>ATOM
      1 C          -6.3522  -18.8751   21.3421 C.3     1  UNL1        0.1753
      2 O          -4.8995  -18.9424   21.7099 O.3     1  UNL1       -0.3460
      3 C          -4.3538  -18.0418   22.7780 C.3     1  UNL1        0.1685
      4 C          -5.2607  -17.0738   23.4785 C.ar    1  UNL1        0.0067
      5 C          -4.7149  -16.1732   24.5467 C.ar    1  UNL1       -0.0021
      6 C          -5.6218  -15.2053   25.2471 C.ar    1  UNL1       -0.0003
      7 C          -7.0745  -15.1380   24.8794 C.ar    1  UNL1       -0.0002
      8 C          -7.6203  -16.0386   23.8112 C.ar    1  UNL1       -0.0010
      9 C          -6.7134  -17.0065   23.1108 C.ar    1  UNL1        0.0181
     10 C          -7.2591  -17.9072   22.0426 C.3     1  UNL1        0.2161
     11 C          -6.8979  -19.7757   20.2739 C.3     1  UNL1        0.1027
     12 C          -9.1352  -20.0390   18.9798 C.3     1  UNL1        0.0859
     13 N          -7.8978  -19.2491   19.2876 N.3     1  UNL1       -0.2942
     14 H          -8.2068  -18.3421   19.6372 H       1  UNL1        0.1234
     15 O          -8.7118  -17.8398   21.6748 O.3     1  UNL1       -0.4725
     16 C          -9.7531  -18.3221   22.6407 C.ar    1  UNL1        0.1346
     17 C          -9.4019  -19.3588   23.6664 C.ar    1  UNL1        0.0366
     18 C         -10.4432  -19.8411   24.6323 C.ar    1  UNL1        0.0028
     19 C         -11.8357  -19.2868   24.5726 C.ar    1  UNL1       -0.0044
     20 C         -12.1869  -18.2502   23.5470 C.ar    1  UNL1       -0.0229
     21 C         -13.5795  -17.6958   23.4872 C.3     1  UNL1        0.0308
     22 C         -11.1456  -17.7678   22.5810 C.ar    1  UNL1        0.0082
     23 C         -11.4968  -16.7312   21.5553 C.3     1  UNL1        0.0339
@<TRIPOS>BOND
     1    12    13    1
     2    13    11    1
     3     1    11    1
     4     1     2    1
     5     2     3    1
     6     3     4    1
     7     4     5   ar
     8     5     6   ar
     9     6     7   ar
    10     7     8   ar
    11     8     9   ar
    12     9    10    1
    13    10    15    1
    14    15    16    1
    15    16    17   ar
    16    17    18   ar
    17    18    19   ar
    18    19    20   ar
    19    20    21    1
    20    20    22   ar
    21    22    23    1
    22    10     1    1
    23    22    16   ar
    24     9     4   ar
    25    13    14    1
@<TRIPOS>MOLECULE
*****
 23 25 0 0 0
SMALL
GASTEIGER

@<TRIPOS>ATOM
      1 C          -7.6933  -16.0243   22.6189 C.3     1  UNL1        0.1753
      2 O          -8.7067  -15.0669   22.0656 O.3     1  UNL1       -0.3460
      3 C          -9.9633  -15.5875   21.4331 C.3     1  UNL1        0.1685
      4 C         -10.2064  -17.0656   21.3539 C.ar    1  UNL1        0.0067
      5 C         -11.4629  -17.5862   20.7215 C.ar    1  UNL1       -0.0021
      6 C         -11.7060  -19.0642   20.6424 C.ar    1  UNL1       -0.0003
      7 C         -10.6925  -20.0216   21.1958 C.ar    1  UNL1       -0.0002
      8 C          -9.4360  -19.5010   21.8282 C.ar    1  UNL1       -0.0010
      9 C          -9.1929  -18.0230   21.9073 C.ar    1  UNL1        0.0181
     10 C          -7.9364  -17.5023   22.5399 C.3     1  UNL1        0.2161
     11 C          -6.4367  -15.5036   23.2515 C.3     1  UNL1        0.1027
     12 C          -5.8923  -15.2063   25.7743 C.3     1  UNL1        0.0859
     13 N          -6.5117  -14.6902   24.5095 N.3     1  UNL1       -0.2942
     14 H          -6.0670  -13.7946   24.3080 H       1  UNL1        0.1234
     15 O          -6.9229  -18.4598   23.0933 O.3     1  UNL1       -0.4725
     16 C          -5.8704  -19.0396   22.1955 C.ar    1  UNL1        0.1346
     17 C          -6.2606  -19.9725   21.0875 C.ar    1  UNL1        0.0366
     18 C          -5.2081  -20.5524   20.1897 C.ar    1  UNL1        0.0028
     19 C          -3.7655  -20.1994   20.3999 C.ar    1  UNL1       -0.0044
     20 C          -3.3753  -19.2666   21.5079 C.ar    1  UNL1       -0.0229
     21 C          -1.9326  -18.9137   21.7181 C.3     1  UNL1        0.0308
     22 C          -4.4278  -18.6867   22.4057 C.ar    1  UNL1        0.0082
     23 C          -4.0376  -17.7539   23.5137 C.3     1  UNL1        0.0339
@<TRIPOS>BOND
     1    12    13    1
     2    13    11    1
     3     1    11    1
     4     1     2    1
     5     2     3    1
     6     3     4    1
     7     4     5   ar
     8     5     6   ar
     9     6     7   ar
    10     7     8   ar
    11     8     9   ar
    12     9    10    1
    13    10    15    1
    14    15    16    1
    15    16    17   ar
    16    17    18   ar
    17    18    19   ar
    18    19    20   ar
    19    20    21    1
    20    20    22   ar
    21    22    23    1
    22    10     1    1
    23    22    16   ar
    24     9     4   ar
    25    13    14    1
@<TRIPOS>MOLECULE
*****
 23 25 0 0 0
SMALL
GASTEIGER

@<TRIPOS>ATOM
      1 C          -7.1115  -17.6232   23.1673 C.3     1  UNL1        0.1753
      2 O          -5.7794  -16.9373   23.0967 O.3     1  UNL1       -0.3460
      3 C          -4.6662  -17.5418   22.2933 C.3     1  UNL1        0.1685
      4 C          -4.8853  -18.8322   21.5604 C.ar    1  UNL1        0.0067
      5 C          -3.7721  -19.4367   20.7570 C.ar    1  UNL1       -0.0021
      6 C          -3.9912  -20.7270   20.0242 C.ar    1  UNL1       -0.0003
      7 C          -5.3233  -21.4128   20.0948 C.ar    1  UNL1       -0.0002
      8 C          -6.4364  -20.8084   20.8983 C.ar    1  UNL1       -0.0010
      9 C          -6.2174  -19.5180   21.6310 C.ar    1  UNL1        0.0181
     10 C          -7.3306  -18.9135   22.4345 C.3     1  UNL1        0.2161
     11 C          -8.2247  -17.0186   23.9708 C.3     1  UNL1        0.1027
     12 C          -8.7386  -15.3247   22.0692 C.3     1  UNL1        0.0859
     13 N          -8.9011  -15.7681   23.4929 N.3     1  UNL1       -0.2942
     14 H          -9.9009  -15.8960   23.6491 H       1  UNL1        0.1234
     15 O          -8.6627  -19.5993   22.5051 O.3     1  UNL1       -0.4725
     16 C          -9.8969  -18.8913   22.0305 C.ar    1  UNL1        0.1346
     17 C          -9.9659  -18.3627   20.6284 C.ar    1  UNL1        0.0366
     18 C         -11.2001  -17.6546   20.1537 C.ar    1  UNL1        0.0028
     19 C         -12.3654  -17.4751   21.0811 C.ar    1  UNL1       -0.0044
     20 C         -12.2964  -18.0037   22.4832 C.ar    1  UNL1       -0.0229
     21 C         -13.4616  -17.8242   23.4105 C.3     1  UNL1        0.0308
     22 C         -11.0621  -18.7118   22.9579 C.ar    1  UNL1        0.0082
     23 C         -10.9931  -19.2403   24.3599 C.3     1  UNL1        0.0339
@<TRIPOS>BOND
     1    12    13    1
     2    13    11    1
     3     1    11    1
     4     1     2    1
     5     2     3    1
     6     3     4    1
     7     4     5   ar
     8     5     6   ar
     9     6     7   ar
    10     7     8   ar
    11     8     9   ar
    12     9    10    1
    13    10    15    1
    14    15    16    1
    15    16    17   ar
    16    17    18   ar
    17    18    19   ar
    18    19    20   ar
    19    20    21    1
    20    20    22   ar
    21    22    23    1
    22    10     1    1
    23    22    16   ar
    24     9     4   ar
    25    13    14    1
@<TRIPOS>MOLECULE
*****
 23 25 0 0 0
SMALL
GASTEIGER

@<TRIPOS>ATOM
      1 C          -7.6621  -16.1840   24.2059 C.3     1  UNL1        0.1753
      2 O          -8.5240  -16.1672   25.4335 O.3     1  UNL1       -0.3460
      3 C          -9.6204  -17.1781   25.5941 C.3     1  UNL1        0.1685
      4 C          -9.8550  -18.2060   24.5270 C.ar    1  UNL1        0.0067
      5 C         -10.9513  -19.2170   24.6876 C.ar    1  UNL1       -0.0021
      6 C         -11.1859  -20.2448   23.6206 C.ar    1  UNL1       -0.0003
      7 C         -10.3241  -20.2616   22.3930 C.ar    1  UNL1       -0.0002
      8 C          -9.2277  -19.2506   22.2325 C.ar    1  UNL1       -0.0010
      9 C          -8.9931  -18.2228   23.2995 C.ar    1  UNL1        0.0181
     10 C          -7.8967  -17.2118   23.1389 C.3     1  UNL1        0.2161
     11 C          -6.5657  -15.1729   24.0454 C.3     1  UNL1        0.1027
     12 C          -5.2248  -15.4015   26.2588 C.3     1  UNL1        0.0859
     13 N          -5.9406  -14.5459   25.2561 N.3     1  UNL1       -0.2942
     14 H          -5.2646  -13.8613   24.9173 H       1  UNL1        0.1234
     15 O          -7.0349  -17.2286   21.9113 O.3     1  UNL1       -0.4725
     16 C          -5.7717  -18.0373   21.8928 C.ar    1  UNL1        0.1346
     17 C          -4.7149  -17.8016   22.9309 C.ar    1  UNL1        0.0366
     18 C          -3.4517  -18.6102   22.9124 C.ar    1  UNL1        0.0028
     19 C          -3.2453  -19.6547   21.8558 C.ar    1  UNL1       -0.0044
     20 C          -4.3020  -19.8905   20.8177 C.ar    1  UNL1       -0.0229
     21 C          -4.0956  -20.9349   19.7610 C.3     1  UNL1        0.0308
     22 C          -5.5653  -19.0818   20.8362 C.ar    1  UNL1        0.0082
     23 C          -6.6220  -19.3175   19.7980 C.3     1  UNL1        0.0339
@<TRIPOS>BOND
     1    12    13    1
     2    13    11    1
     3     1    11    1
     4     1     2    1
     5     2     3    1
     6     3     4    1
     7     4     5   ar
     8     5     6   ar
     9     6     7   ar
    10     7     8   ar
    11     8     9   ar
    12     9    10    1
    13    10    15    1
    14    15    16    1
    15    16    17   ar
    16    17    18   ar
    17    18    19   ar
    18    19    20   ar
    19    20    21    1
    20    20    22   ar
    21    22    23    1
    22    10     1    1
    23    22    16   ar
    24     9     4   ar
    25    13    14    1
@<TRIPOS>MOLECULE
*****
 23 25 0 0 0
SMALL
GASTEIGER

@<TRIPOS>ATOM
      1 C          -5.6336  -16.6294   23.6017 C.3     1  UNL1        0.1753
      2 O          -4.2045  -16.5210   23.1591 O.3     1  UNL1       -0.3460
      3 C          -3.6364  -17.5290   22.2046 C.3     1  UNL1        0.1685
      4 C          -4.4975  -18.6456   21.6927 C.ar    1  UNL1        0.0067
      5 C          -3.9294  -19.6536   20.7382 C.ar    1  UNL1       -0.0021
      6 C          -4.7904  -20.7701   20.2263 C.ar    1  UNL1       -0.0003
      7 C          -6.2195  -20.8785   20.6688 C.ar    1  UNL1       -0.0002
      8 C          -6.7876  -19.8704   21.6233 C.ar    1  UNL1       -0.0010
      9 C          -5.9266  -18.7540   22.1352 C.ar    1  UNL1        0.0181
     10 C          -6.4947  -17.7459   23.0898 C.3     1  UNL1        0.2161
     11 C          -6.2017  -15.6213   24.5562 C.3     1  UNL1        0.1027
     12 C          -6.7978  -15.7633   27.0809 C.3     1  UNL1        0.0859
     13 N          -5.7736  -15.6253   25.9938 N.3     1  UNL1       -0.2942
     14 H          -5.1205  -16.4009   26.1044 H       1  UNL1        0.1234
     15 O          -7.9238  -17.8543   23.5323 O.3     1  UNL1       -0.4725
     16 C          -9.0159  -17.2596   22.6935 C.ar    1  UNL1        0.1346
     17 C          -8.7506  -16.0271   21.8807 C.ar    1  UNL1        0.0366
     18 C          -9.8427  -15.4324   21.0419 C.ar    1  UNL1        0.0028
     19 C         -11.2000  -16.0702   21.0158 C.ar    1  UNL1       -0.0044
     20 C         -11.4654  -17.3027   21.8285 C.ar    1  UNL1       -0.0229
     21 C         -12.8228  -17.9405   21.8024 C.3     1  UNL1        0.0308
     22 C         -10.3733  -17.8974   22.6674 C.ar    1  UNL1        0.0082
     23 C         -10.6386  -19.1299   23.4801 C.3     1  UNL1        0.0339
@<TRIPOS>BOND
     1    12    13    1
     2    13    11    1
     3     1    11    1
     4     1     2    1
     5     2     3    1
     6     3     4    1
     7     4     5   ar
     8     5     6   ar
     9     6     7   ar
    10     7     8   ar
    11     8     9   ar
    12     9    10    1
    13    10    15    1
    14    15    16    1
    15    16    17   ar
    16    17    18   ar
    17    18    19   ar
    18    19    20   ar
    19    20    21    1
    20    20    22   ar
    21    22    23    1
    22    10     1    1
    23    22    16   ar
    24     9     4   ar
    25    13    14    1
@<TRIPOS>MOLECULE
*****
 23 25 0 0 0
SMALL
GASTEIGER

@<TRIPOS>ATOM
      1 C         -10.1662   -5.5040   18.2344 C.3     1  UNL1        0.1753
      2 O          -9.2497   -5.1543   17.0997 O.3     1  UNL1       -0.3460
      3 C          -9.2665   -3.7705   16.5212 C.3     1  UNL1        0.1685
      4 C         -10.1998   -2.7363   17.0774 C.ar    1  UNL1        0.0067
      5 C         -10.2166   -1.3525   16.4989 C.ar    1  UNL1       -0.0021
      6 C         -11.1499   -0.3184   17.0551 C.ar    1  UNL1       -0.0003
      7 C         -12.0664   -0.6680   18.1899 C.ar    1  UNL1       -0.0002
      8 C         -12.0496   -2.0518   18.7684 C.ar    1  UNL1       -0.0010
      9 C         -11.1163   -3.0860   18.2122 C.ar    1  UNL1        0.0181
     10 C         -11.0995   -4.4699   18.7907 C.3     1  UNL1        0.2161
     11 C         -10.1494   -6.8879   18.8130 C.3     1  UNL1        0.1027
     12 C         -11.2596   -7.9552   16.7206 C.3     1  UNL1        0.0859
     13 N         -10.3720   -8.0753   17.9238 N.3     1  UNL1       -0.2942
     14 H          -9.4548   -8.3657   17.5852 H       1  UNL1        0.1234
     15 O         -12.0160   -4.8196   19.9254 O.3     1  UNL1       -0.4725
     16 C         -13.4161   -5.2789   19.6445 C.ar    1  UNL1        0.1346
     17 C         -13.6520   -6.6039   18.9821 C.ar    1  UNL1        0.0366
     18 C         -15.0521   -7.0632   18.7012 C.ar    1  UNL1        0.0028
     19 C         -16.2162   -6.1975   19.0827 C.ar    1  UNL1       -0.0044
     20 C         -15.9802   -4.8726   19.7451 C.ar    1  UNL1       -0.0229
     21 C         -17.1443   -4.0069   20.1266 C.3     1  UNL1        0.0308
     22 C         -14.5802   -4.4132   20.0260 C.ar    1  UNL1        0.0082
     23 C         -14.3442   -3.0883   20.6884 C.3     1  UNL1        0.0339
@<TRIPOS>BOND
     1    12    13    1
     2    13    11    1
     3     1    11    1
     4     1     2    1
     5     2     3    1
     6     3     4    1
     7     4     5   ar
     8     5     6   ar
     9     6     7   ar
    10     7     8   ar
    11     8     9   ar
    12     9    10    1
    13    10    15    1
    14    15    16    1
    15    16    17   ar
    16    17    18   ar
    17    18    19   ar
    18    19    20   ar
    19    20    21    1
    20    20    22   ar
    21    22    23    1
    22    10     1    1
    23    22    16   ar
    24     9     4   ar
    25    13    14    1
@<TRIPOS>MOLECULE
*****
 23 25 0 0 0
SMALL
GASTEIGER

@<TRIPOS>ATOM
      1 C          -6.4693  -16.2613   23.4826 C.3     1  UNL1        0.1753
      2 O          -5.3608  -15.2508   23.4772 O.3     1  UNL1       -0.3460
      3 C          -3.9799  -15.6545   23.0528 C.3     1  UNL1        0.1685
      4 C          -3.7075  -17.0688   22.6336 C.ar    1  UNL1        0.0067
      5 C          -2.3267  -17.4726   22.2092 C.ar    1  UNL1       -0.0021
      6 C          -2.0544  -18.8868   21.7901 C.ar    1  UNL1       -0.0003
      7 C          -3.1629  -19.8973   21.7955 C.ar    1  UNL1       -0.0002
      8 C          -4.5437  -19.4936   22.2200 C.ar    1  UNL1       -0.0010
      9 C          -4.8160  -18.0794   22.6390 C.ar    1  UNL1        0.0181
     10 C          -6.1970  -17.6756   23.0635 C.3     1  UNL1        0.2161
     11 C          -7.8502  -15.8575   23.9071 C.3     1  UNL1        0.1027
     12 C          -8.2792  -15.5505   26.4510 C.3     1  UNL1        0.0859
     13 N          -8.0375  -14.9594   25.0938 N.3     1  UNL1       -0.2942
     14 H          -7.1953  -14.3886   25.1669 H       1  UNL1        0.1234
     15 O          -7.3055  -18.6861   23.0689 O.3     1  UNL1       -0.4725
     16 C          -8.1953  -18.8296   21.8700 C.ar    1  UNL1        0.1346
     17 C          -7.6205  -19.2766   20.5585 C.ar    1  UNL1        0.0366
     18 C          -8.5104  -19.4201   19.3596 C.ar    1  UNL1        0.0028
     19 C          -9.9751  -19.1167   19.4721 C.ar    1  UNL1       -0.0044
     20 C         -10.5499  -18.6698   20.7834 C.ar    1  UNL1       -0.0229
     21 C         -12.0146  -18.3664   20.8959 C.3     1  UNL1        0.0308
     22 C          -9.6600  -18.5262   21.9825 C.ar    1  UNL1        0.0082
     23 C         -10.2348  -18.0793   23.2939 C.3     1  UNL1        0.0339
@<TRIPOS>BOND
     1    12    13    1
     2    13    11    1
     3     1    11    1
     4     1     2    1
     5     2     3    1
     6     3     4    1
     7     4     5   ar
     8     5     6   ar
     9     6     7   ar
    10     7     8   ar
    11     8     9   ar
    12     9    10    1
    13    10    15    1
    14    15    16    1
    15    16    17   ar
    16    17    18   ar
    17    18    19   ar
    18    19    20   ar
    19    20    21    1
    20    20    22   ar
    21    22    23    1
    22    10     1    1
    23    22    16   ar
    24     9     4   ar
    25    13    14    1
@<TRIPOS>MOLECULE
*****
 23 25 0 0 0
SMALL
GASTEIGER

@<TRIPOS>ATOM
      1 C         -15.0128   -8.1839   18.6278 C.3     1  UNL1        0.1753
      2 O         -15.4585   -9.4630   19.2722 O.3     1  UNL1       -0.3460
      3 C         -16.8385   -9.5706   19.8499 C.3     1  UNL1        0.1685
      4 C         -17.7730   -8.3991   19.7834 C.ar    1  UNL1        0.0067
      5 C         -19.1530   -8.5067   20.3611 C.ar    1  UNL1       -0.0021
      6 C         -20.0874   -7.3352   20.2946 C.ar    1  UNL1       -0.0003
      7 C         -19.6417   -6.0560   19.6502 C.ar    1  UNL1       -0.0002
      8 C         -18.2617   -5.9484   19.0725 C.ar    1  UNL1       -0.0010
      9 C         -17.3273   -7.1199   19.1391 C.ar    1  UNL1        0.0181
     10 C         -15.9472   -7.0123   18.5613 C.3     1  UNL1        0.2161
     11 C         -13.6327   -8.0763   18.0501 C.3     1  UNL1        0.1027
     12 C         -11.2212   -7.1542   18.3405 C.3     1  UNL1        0.0859
     13 N         -12.4741   -7.7251   18.9357 N.3     1  UNL1       -0.2942
     14 H         -12.8166   -7.0423   19.6116 H       1  UNL1        0.1234
     15 O         -15.5015   -5.7332   17.9169 O.3     1  UNL1       -0.4725
     16 C         -14.6497   -4.7647   18.6827 C.ar    1  UNL1        0.1346
     17 C         -14.9786   -4.4428   20.1104 C.ar    1  UNL1        0.0366
     18 C         -14.1268   -3.4743   20.8762 C.ar    1  UNL1        0.0028
     19 C         -12.9461   -2.8278   20.2144 C.ar    1  UNL1       -0.0044
     20 C         -12.6172   -3.1497   18.7868 C.ar    1  UNL1       -0.0229
     21 C         -11.4366   -2.5031   18.1250 C.3     1  UNL1        0.0308
     22 C         -13.4690   -4.1182   18.0209 C.ar    1  UNL1        0.0082
     23 C         -13.1401   -4.4401   16.5933 C.3     1  UNL1        0.0339
@<TRIPOS>BOND
     1    12    13    1
     2    13    11    1
     3     1    11    1
     4     1     2    1
     5     2     3    1
     6     3     4    1
     7     4     5   ar
     8     5     6   ar
     9     6     7   ar
    10     7     8   ar
    11     8     9   ar
    12     9    10    1
    13    10    15    1
    14    15    16    1
    15    16    17   ar
    16    17    18   ar
    17    18    19   ar
    18    19    20   ar
    19    20    21    1
    20    20    22   ar
    21    22    23    1
    22    10     1    1
    23    22    16   ar
    24     9     4   ar
    25    13    14    1
