@<TRIPOS>MOLECULE
*****
 36 38 0 0 0
SMALL
GASTEIGER

@<TRIPOS>ATOM
      1 C          -9.9114  -18.5089   26.1073 C.3     1  UNL1        0.1152
      2 N          -9.7230  -18.3442   24.6283 N.am    1  UNL1       -0.2739
      3 C          -9.3742  -19.5310   23.7799 C.2     1  UNL1        0.2352
      4 O          -9.2137  -20.8826   24.4105 O.2     1  UNL1       -0.2743
      5 C          -9.1859  -19.3663   22.3010 C.3     1  UNL1        0.1703
      6 C          -7.8132  -19.1394   21.7404 C.2     1  UNL1        0.2354
      7 O          -7.5569  -17.9724   20.8334 O.2     1  UNL1       -0.2742
      8 N          -6.6968  -20.0795   22.0867 N.am    1  UNL1       -0.2835
      9 H          -6.8650  -20.8454   22.6819 H       1  UNL1        0.1549
     10 C          -5.3240  -19.8525   21.5260 C.ar    1  UNL1        0.0504
     11 C          -4.2867  -19.1444   22.3460 C.ar    1  UNL1        0.0160
     12 C          -2.9140  -18.9176   21.7853 C.ar    1  UNL1        0.0171
     13 C          -2.5788  -19.3988   20.4047 C.ar    1  UNL1        0.0645
     14 C          -3.6162  -20.1069   19.5848 C.ar    1  UNL1        0.0171
     15 C          -4.9888  -20.3337   20.1454 C.ar    1  UNL1        0.0160
     16 N          -1.2061  -19.1718   19.8441 N.pl3   1  UNL1       -0.2187
     17 H          -0.7150  -19.9167   19.4279 H       1  UNL1        0.1734
     18 S          -0.5816  -17.8101   19.9177 S.O2    1  UNL1        0.0558
     19 C           0.0429  -16.4482   19.9913 C.3     1  UNL1        0.1996
     20 O           0.6790  -18.4174   20.4580 O.2     1  UNL1       -0.1544
     21 O          -1.8422  -17.2027   19.3774 O.2     1  UNL1       -0.1544
     22 C          -9.8836  -16.9927   23.9977 C.3     1  UNL1        0.1138
     23 C         -10.7305  -16.8338   22.7698 C.ar    1  UNL1       -0.0029
     24 C         -10.2078  -16.0654   21.5925 C.ar    1  UNL1       -0.0026
     25 C         -11.0547  -15.9066   20.3647 C.ar    1  UNL1       -0.0003
     26 C         -12.4243  -16.5161   20.3143 C.ar    1  UNL1       -0.0000
     27 C         -12.9470  -17.2846   21.4917 C.ar    1  UNL1       -0.0003
     28 C         -12.1001  -17.4434   22.7194 C.ar    1  UNL1       -0.0026
     29 C          -9.1973  -15.8002   24.5949 C.3     1  UNL1        0.0968
     30 N          -7.6991  -15.7422   24.6412 N.3     1  UNL1       -0.2689
     31 C          -6.8618  -15.5494   25.8707 C.3     1  UNL1        0.0748
     32 C          -5.4204  -15.5549   25.4555 C.3     1  UNL1        0.0480
     33 C          -5.3669  -15.7511   23.9693 C.3     1  UNL1        0.1278
     34 O          -4.1234  -15.8195   23.1332 O.3     1  UNL1       -0.3830
     35 C          -6.7752  -15.8668   23.4661 C.3     1  UNL1        0.1017
     36 H          -4.3659  -15.9518   22.2034 H       1  UNL1        0.2104
@<TRIPOS>BOND
     1     1     2    1
     2     2     3   am
     3     3     4    2
     4     3     5    1
     5     5     6    1
     6     6     7    2
     7     6     8   am
     8     8    10    1
     9    10    11   ar
    10    11    12   ar
    11    12    13   ar
    12    13    16    1
    13    16    18    1
    14    18    19    1
    15    18    20    2
    16    18    21    2
    17    13    14   ar
    18    14    15   ar
    19     2    22    1
    20    22    29    1
    21    29    30    1
    22    30    31    1
    23    31    32    1
    24    32    33    1
    25    33    34    1
    26    33    35    1
    27    22    23    1
    28    23    24   ar
    29    24    25   ar
    30    25    26   ar
    31    26    27   ar
    32    27    28   ar
    33    15    10   ar
    34    35    30    1
    35    28    23   ar
    36     8     9    1
    37    16    17    1
    38    34    36    1
@<TRIPOS>MOLECULE
*****
 36 38 0 0 0
SMALL
GASTEIGER

@<TRIPOS>ATOM
      1 C         -11.8930  -15.7163   21.0948 C.3     1  UNL1        0.1152
      2 N         -11.1903  -17.0349   21.2276 N.am    1  UNL1       -0.2739
      3 C         -11.1102  -17.9638   20.0526 C.2     1  UNL1        0.2352
      4 O         -11.7328  -17.5742   18.7447 O.2     1  UNL1       -0.2743
      5 C         -10.4074  -19.2823   20.1854 C.3     1  UNL1        0.1703
      6 C          -8.9134  -19.3509   20.0699 C.2     1  UNL1        0.2354
      7 O          -8.2537  -19.1421   18.7391 O.2     1  UNL1       -0.2742
      8 N          -8.0792  -19.6282   21.2853 N.am    1  UNL1       -0.2835
      9 H          -8.5122  -19.7652   22.1588 H       1  UNL1        0.1549
     10 C          -6.5852  -19.6968   21.1698 C.ar    1  UNL1        0.0504
     11 C          -5.9505  -20.6597   20.2108 C.ar    1  UNL1        0.0160
     12 C          -4.4565  -20.7282   20.0953 C.ar    1  UNL1        0.0171
     13 C          -3.5973  -19.8339   20.9390 C.ar    1  UNL1        0.0645
     14 C          -4.2320  -18.8709   21.8981 C.ar    1  UNL1        0.0171
     15 C          -5.7259  -18.8024   22.0135 C.ar    1  UNL1        0.0160
     16 N          -2.1032  -19.9024   20.8235 N.pl3   1  UNL1       -0.2187
     17 H          -1.6372  -20.7577   20.9669 H       1  UNL1        0.1734
     18 S          -1.3193  -18.6680   20.4897 S.O2    1  UNL1        0.0558
     19 C          -0.5354  -17.4334   20.1559 C.3     1  UNL1        0.1996
     20 O          -1.8070  -18.7413   19.0731 O.2     1  UNL1       -0.1544
     21 O          -0.8316  -18.5946   21.9063 O.2     1  UNL1       -0.1544
     22 C         -10.5676  -17.4245   22.5355 C.3     1  UNL1        0.1138
     23 C          -9.4198  -16.6309   23.0856 C.ar    1  UNL1       -0.0029
     24 C          -9.2513  -16.4852   24.5690 C.ar    1  UNL1       -0.0026
     25 C          -8.1035  -15.6915   25.1190 C.ar    1  UNL1       -0.0003
     26 C          -7.1242  -15.0435   24.1858 C.ar    1  UNL1       -0.0000
     27 C          -7.2926  -15.1892   22.7024 C.ar    1  UNL1       -0.0003
     28 C          -8.4404  -15.9829   22.1524 C.ar    1  UNL1       -0.0026
     29 C         -11.0927  -18.6078   23.2932 C.3     1  UNL1        0.0968
     30 N         -12.4239  -18.5281   23.9799 N.3     1  UNL1       -0.2689
     31 C         -13.7214  -18.1254   23.3439 C.3     1  UNL1        0.0748
     32 C         -14.7907  -18.1855   24.3941 C.3     1  UNL1        0.0480
     33 C         -14.1542  -18.6253   25.6791 C.3     1  UNL1        0.1278
     34 O         -14.8569  -18.8193   26.9900 O.3     1  UNL1       -0.3830
     35 C         -12.6914  -18.8370   25.4231 C.3     1  UNL1        0.1017
     36 H         -14.2174  -19.1066   27.6604 H       1  UNL1        0.2104
@<TRIPOS>BOND
     1     1     2    1
     2     2     3   am
     3     3     4    2
     4     3     5    1
     5     5     6    1
     6     6     7    2
     7     6     8   am
     8     8    10    1
     9    10    11   ar
    10    11    12   ar
    11    12    13   ar
    12    13    16    1
    13    16    18    1
    14    18    19    1
    15    18    20    2
    16    18    21    2
    17    13    14   ar
    18    14    15   ar
    19     2    22    1
    20    22    29    1
    21    29    30    1
    22    30    31    1
    23    31    32    1
    24    32    33    1
    25    33    34    1
    26    33    35    1
    27    22    23    1
    28    23    24   ar
    29    24    25   ar
    30    25    26   ar
    31    26    27   ar
    32    27    28   ar
    33    15    10   ar
    34    35    30    1
    35    28    23   ar
    36     8     9    1
    37    16    17    1
    38    34    36    1
@<TRIPOS>MOLECULE
*****
 36 38 0 0 0
SMALL
GASTEIGER

@<TRIPOS>ATOM
      1 C         -10.5986  -19.1554   25.7217 C.3     1  UNL1        0.1152
      2 N         -10.2749  -18.6989   24.3300 N.am    1  UNL1       -0.2739
      3 C         -10.1554  -19.7013   23.2206 C.2     1  UNL1        0.2352
      4 O         -10.3597  -21.1603   23.5028 O.2     1  UNL1       -0.2743
      5 C          -9.8317  -19.2447   21.8290 C.3     1  UNL1        0.1703
      6 C          -8.4027  -19.1603   21.3807 C.2     1  UNL1        0.2354
      7 O          -8.0241  -18.2516   20.2489 O.2     1  UNL1       -0.2742
      8 N          -7.3523  -19.9846   22.0642 N.am    1  UNL1       -0.2835
      9 H          -7.6007  -20.5810   22.8071 H       1  UNL1        0.1549
     10 C          -5.9232  -19.9001   21.6159 C.ar    1  UNL1        0.0504
     11 C          -4.9537  -19.0311   22.3607 C.ar    1  UNL1        0.0160
     12 C          -3.5248  -18.9467   21.9124 C.ar    1  UNL1        0.0171
     13 C          -3.0654  -19.7314   20.7194 C.ar    1  UNL1        0.0645
     14 C          -4.0350  -20.6004   19.9746 C.ar    1  UNL1        0.0171
     15 C          -5.4639  -20.6848   20.4229 C.ar    1  UNL1        0.0160
     16 N          -1.6364  -19.6469   20.2711 N.pl3   1  UNL1       -0.2187
     17 H          -1.1058  -20.4688   20.1606 H       1  UNL1        0.1734
     18 S          -1.0159  -18.3103   19.9912 S.O2    1  UNL1        0.0558
     19 C          -0.3953  -16.9736   19.7113 C.3     1  UNL1        0.1996
     20 O          -0.3768  -18.3229   21.3482 O.2     1  UNL1       -0.1544
     21 O          -1.6549  -18.2978   18.6343 O.2     1  UNL1       -0.1544
     22 C         -10.0705  -17.2399   24.0478 C.3     1  UNL1        0.1138
     23 C          -8.7456  -16.5985   24.3364 C.ar    1  UNL1       -0.0029
     24 C          -8.4052  -16.1772   25.7352 C.ar    1  UNL1       -0.0026
     25 C          -7.0803  -15.5359   26.0238 C.ar    1  UNL1       -0.0003
     26 C          -6.0959  -15.3158   24.9137 C.ar    1  UNL1       -0.0000
     27 C          -6.4363  -15.7371   23.5149 C.ar    1  UNL1       -0.0003
     28 C          -7.7612  -16.3784   23.2263 C.ar    1  UNL1       -0.0026
     29 C         -11.1911  -16.4223   23.4769 C.3     1  UNL1        0.0968
     30 N         -11.3314  -16.2764   21.9906 N.3     1  UNL1       -0.2689
     31 C         -12.2916  -17.0286   21.1176 C.3     1  UNL1        0.0748
     32 C         -12.0898  -16.5698   19.7038 C.3     1  UNL1        0.0480
     33 C         -11.0049  -15.5340   19.7030 C.3     1  UNL1        0.1278
     34 O         -10.4807  -14.8071   18.5002 O.3     1  UNL1       -0.3830
     35 C         -10.5362  -15.3527   21.1164 C.3     1  UNL1        0.1017
     36 H          -9.7822  -14.1918   18.7732 H       1  UNL1        0.2104
@<TRIPOS>BOND
     1     1     2    1
     2     2     3   am
     3     3     4    2
     4     3     5    1
     5     5     6    1
     6     6     7    2
     7     6     8   am
     8     8    10    1
     9    10    11   ar
    10    11    12   ar
    11    12    13   ar
    12    13    16    1
    13    16    18    1
    14    18    19    1
    15    18    20    2
    16    18    21    2
    17    13    14   ar
    18    14    15   ar
    19     2    22    1
    20    22    29    1
    21    29    30    1
    22    30    31    1
    23    31    32    1
    24    32    33    1
    25    33    34    1
    26    33    35    1
    27    22    23    1
    28    23    24   ar
    29    24    25   ar
    30    25    26   ar
    31    26    27   ar
    32    27    28   ar
    33    15    10   ar
    34    35    30    1
    35    28    23   ar
    36     8     9    1
    37    16    17    1
    38    34    36    1
@<TRIPOS>MOLECULE
*****
 36 38 0 0 0
SMALL
GASTEIGER

@<TRIPOS>ATOM
      1 C         -10.1257  -20.4380   25.0403 C.3     1  UNL1        0.1152
      2 N          -9.7891  -19.2899   24.1354 N.am    1  UNL1       -0.2739
      3 C          -9.4079  -17.9617   24.7191 C.2     1  UNL1        0.2352
      4 O          -9.3631  -17.7816   26.2075 O.2     1  UNL1       -0.2743
      5 C          -9.0714  -16.8137   23.8142 C.3     1  UNL1        0.1703
      6 C          -7.7200  -16.7398   23.1673 C.2     1  UNL1        0.2354
      7 O          -7.6017  -16.3740   21.7174 O.2     1  UNL1       -0.2742
      8 N          -6.4871  -17.0316   23.9702 N.am    1  UNL1       -0.2835
      9 H          -6.5648  -17.2717   24.9218 H       1  UNL1        0.1549
     10 C          -5.1358  -16.9577   23.3233 C.ar    1  UNL1        0.0504
     11 C          -4.4893  -15.6249   23.0869 C.ar    1  UNL1        0.0160
     12 C          -3.1381  -15.5510   22.4400 C.ar    1  UNL1        0.0171
     13 C          -2.4332  -16.8099   22.0294 C.ar    1  UNL1        0.0645
     14 C          -3.0796  -18.1426   22.2658 C.ar    1  UNL1        0.0171
     15 C          -4.4309  -18.2165   22.9127 C.ar    1  UNL1        0.0160
     16 N          -1.0819  -16.7359   21.3825 N.pl3   1  UNL1       -0.2187
     17 H          -0.3471  -16.2579   21.8306 H       1  UNL1        0.1734
     18 S          -0.8501  -17.3902   20.0528 S.O2    1  UNL1        0.0558
     19 C          -0.6184  -18.0446   18.7231 C.3     1  UNL1        0.1996
     20 O           0.4941  -17.8640   20.5203 O.2     1  UNL1       -0.1544
     21 O          -2.1943  -16.9165   19.5854 O.2     1  UNL1       -0.1544
     22 C          -9.8338  -19.4700   22.6470 C.3     1  UNL1        0.1138
     23 C          -8.5670  -19.7189   21.8832 C.ar    1  UNL1       -0.0029
     24 C          -7.4059  -20.3902   22.5549 C.ar    1  UNL1       -0.0026
     25 C          -6.1391  -20.6390   21.7911 C.ar    1  UNL1       -0.0003
     26 C          -6.0335  -20.2167   20.3557 C.ar    1  UNL1       -0.0000
     27 C          -7.1946  -19.5454   19.6840 C.ar    1  UNL1       -0.0003
     28 C          -8.4614  -19.2966   20.4478 C.ar    1  UNL1       -0.0026
     29 C         -11.1453  -19.4012   21.9222 C.3     1  UNL1        0.0968
     30 N         -11.6708  -18.0793   21.4464 N.3     1  UNL1       -0.2689
     31 C         -12.4258  -17.0813   22.2734 C.3     1  UNL1        0.0748
     32 C         -12.7553  -15.9085   21.3981 C.3     1  UNL1        0.0480
     33 C         -12.2039  -16.1817   20.0302 C.3     1  UNL1        0.1278
     34 O         -12.3049  -15.2729   18.8411 O.3     1  UNL1       -0.3830
     35 C         -11.5337  -17.5233   20.0600 C.3     1  UNL1        0.1017
     36 H         -11.8664  -15.6855   18.0806 H       1  UNL1        0.2104
@<TRIPOS>BOND
     1     1     2    1
     2     2     3   am
     3     3     4    2
     4     3     5    1
     5     5     6    1
     6     6     7    2
     7     6     8   am
     8     8    10    1
     9    10    11   ar
    10    11    12   ar
    11    12    13   ar
    12    13    16    1
    13    16    18    1
    14    18    19    1
    15    18    20    2
    16    18    21    2
    17    13    14   ar
    18    14    15   ar
    19     2    22    1
    20    22    29    1
    21    29    30    1
    22    30    31    1
    23    31    32    1
    24    32    33    1
    25    33    34    1
    26    33    35    1
    27    22    23    1
    28    23    24   ar
    29    24    25   ar
    30    25    26   ar
    31    26    27   ar
    32    27    28   ar
    33    15    10   ar
    34    35    30    1
    35    28    23   ar
    36     8     9    1
    37    16    17    1
    38    34    36    1
@<TRIPOS>MOLECULE
*****
 36 38 0 0 0
SMALL
GASTEIGER

@<TRIPOS>ATOM
      1 C         -11.8423  -17.1861   19.3472 C.3     1  UNL1        0.1152
      2 N         -10.8982  -17.7952   20.3411 N.am    1  UNL1       -0.2739
      3 C         -10.1163  -19.0227   19.9780 C.2     1  UNL1        0.2352
      4 O         -10.2784  -19.6411   18.6210 O.2     1  UNL1       -0.2743
      5 C          -9.1723  -19.6318   20.9718 C.3     1  UNL1        0.1703
      6 C          -7.7261  -19.2332   20.9744 C.2     1  UNL1        0.2354
      7 O          -7.3143  -17.9014   20.4208 O.2     1  UNL1       -0.2742
      8 N          -6.6919  -20.1666   21.5305 N.am    1  UNL1       -0.2835
      9 H          -6.9623  -21.0407   21.8938 H       1  UNL1        0.1549
     10 C          -5.2458  -19.7680   21.5331 C.ar    1  UNL1        0.0504
     11 C          -4.3499  -20.1885   20.4060 C.ar    1  UNL1        0.0160
     12 C          -2.9039  -19.7900   20.4086 C.ar    1  UNL1        0.0171
     13 C          -2.3537  -18.9709   21.5384 C.ar    1  UNL1        0.0645
     14 C          -3.2496  -18.5504   22.6656 C.ar    1  UNL1        0.0171
     15 C          -4.6956  -18.9490   22.6629 C.ar    1  UNL1        0.0160
     16 N          -0.9076  -18.5724   21.5410 N.pl3   1  UNL1       -0.2187
     17 H          -0.3136  -18.8796   22.2635 H       1  UNL1        0.1734
     18 S          -0.3665  -17.7057   20.4428 S.O2    1  UNL1        0.0558
     19 C           0.1746  -16.8391   19.3445 C.3     1  UNL1        0.1996
     20 O          -1.0960  -16.5262   21.0141 O.2     1  UNL1       -0.1544
     21 O           0.3630  -18.8852   19.8714 O.2     1  UNL1       -0.1544
     22 C         -10.7361  -17.1769   21.6980 C.3     1  UNL1        0.1138
     23 C         -11.5503  -17.6793   22.8533 C.ar    1  UNL1       -0.0029
     24 C         -10.9121  -18.5412   23.9021 C.ar    1  UNL1       -0.0026
     25 C         -11.7264  -19.0435   25.0573 C.ar    1  UNL1       -0.0003
     26 C         -13.1788  -18.6840   25.1638 C.ar    1  UNL1       -0.0000
     27 C         -13.8169  -17.8221   24.1151 C.ar    1  UNL1       -0.0003
     28 C         -13.0027  -17.3197   22.9599 C.ar    1  UNL1       -0.0026
     29 C          -9.7598  -16.0561   21.8997 C.3     1  UNL1        0.0968
     30 N          -8.9552  -15.9806   23.1634 N.3     1  UNL1       -0.2689
     31 C          -7.5401  -16.4468   23.3369 C.3     1  UNL1        0.0748
     32 C          -7.1348  -16.1799   24.7562 C.3     1  UNL1        0.0480
     33 C          -8.2994  -15.5487   25.4600 C.3     1  UNL1        0.1278
     34 O          -8.3331  -15.1166   26.8960 O.3     1  UNL1       -0.3830
     35 C          -9.4245  -15.4255   24.4755 C.3     1  UNL1        0.1017
     36 H          -9.2031  -14.7392   27.0997 H       1  UNL1        0.2104
@<TRIPOS>BOND
     1     1     2    1
     2     2     3   am
     3     3     4    2
     4     3     5    1
     5     5     6    1
     6     6     7    2
     7     6     8   am
     8     8    10    1
     9    10    11   ar
    10    11    12   ar
    11    12    13   ar
    12    13    16    1
    13    16    18    1
    14    18    19    1
    15    18    20    2
    16    18    21    2
    17    13    14   ar
    18    14    15   ar
    19     2    22    1
    20    22    29    1
    21    29    30    1
    22    30    31    1
    23    31    32    1
    24    32    33    1
    25    33    34    1
    26    33    35    1
    27    22    23    1
    28    23    24   ar
    29    24    25   ar
    30    25    26   ar
    31    26    27   ar
    32    27    28   ar
    33    15    10   ar
    34    35    30    1
    35    28    23   ar
    36     8     9    1
    37    16    17    1
    38    34    36    1
@<TRIPOS>MOLECULE
*****
 36 38 0 0 0
SMALL
GASTEIGER

@<TRIPOS>ATOM
      1 C          -9.9569  -19.9588   24.9484 C.3     1  UNL1        0.1152
      2 N          -9.4479  -18.6551   24.4086 N.am    1  UNL1       -0.2739
      3 C          -9.0675  -17.5510   25.3499 C.2     1  UNL1        0.2352
      4 O          -9.1959  -17.7505   26.8310 O.2     1  UNL1       -0.2743
      5 C          -8.5585  -16.2473   24.8102 C.3     1  UNL1        0.1703
      6 C          -7.3111  -16.2161   23.9776 C.2     1  UNL1        0.2354
      7 O          -7.3054  -15.4956   22.6620 O.2     1  UNL1       -0.2742
      8 N          -6.0695  -16.9053   24.4606 N.am    1  UNL1       -0.2835
      9 H          -6.0733  -17.3782   25.3241 H       1  UNL1        0.1549
     10 C          -4.8221  -16.8740   23.6280 C.ar    1  UNL1        0.0504
     11 C          -4.2497  -15.5607   23.1837 C.ar    1  UNL1        0.0160
     12 C          -3.0024  -15.5295   22.3512 C.ar    1  UNL1        0.0171
     13 C          -2.3275  -16.8116   21.9629 C.ar    1  UNL1        0.0645
     14 C          -2.8999  -18.1250   22.4073 C.ar    1  UNL1        0.0171
     15 C          -4.1472  -18.1562   23.2398 C.ar    1  UNL1        0.0160
     16 N          -1.0801  -16.7804   21.1304 N.pl3   1  UNL1       -0.2187
     17 H          -0.2793  -16.3127   21.4608 H       1  UNL1        0.1734
     18 S          -1.0528  -17.4617   19.7943 S.O2    1  UNL1        0.0558
     19 C          -1.0256  -18.1431   18.4582 C.3     1  UNL1        0.1996
     20 O           0.2771  -18.0684   20.1308 O.2     1  UNL1       -0.1544
     21 O          -2.3828  -16.8551   19.4579 O.2     1  UNL1       -0.1544
     22 C          -9.3195  -18.4555   22.9275 C.3     1  UNL1        0.1138
     23 C          -8.1598  -19.0541   22.1879 C.ar    1  UNL1       -0.0029
     24 C          -7.7103  -18.4563   20.8877 C.ar    1  UNL1       -0.0026
     25 C          -6.5507  -19.0548   20.1481 C.ar    1  UNL1       -0.0003
     26 C          -5.8405  -20.2512   20.7088 C.ar    1  UNL1       -0.0000
     27 C          -6.2899  -20.8490   22.0090 C.ar    1  UNL1       -0.0003
     28 C          -7.4496  -20.2504   22.7486 C.ar    1  UNL1       -0.0026
     29 C         -10.3506  -17.6575   22.1860 C.3     1  UNL1        0.0968
     30 N         -11.8043  -17.8157   22.5201 N.3     1  UNL1       -0.2689
     31 C         -12.9340  -17.8752   21.5351 C.3     1  UNL1        0.0748
     32 C         -14.2115  -18.0385   22.3041 C.3     1  UNL1        0.0480
     33 C         -13.8714  -18.0798   23.7644 C.3     1  UNL1        0.1278
     34 O         -14.8475  -18.2321   24.8931 O.3     1  UNL1       -0.3830
     35 C         -12.3837  -17.9421   23.8979 C.3     1  UNL1        0.1017
     36 H         -14.3692  -18.2286   25.7370 H       1  UNL1        0.2104
@<TRIPOS>BOND
     1     1     2    1
     2     2     3   am
     3     3     4    2
     4     3     5    1
     5     5     6    1
     6     6     7    2
     7     6     8   am
     8     8    10    1
     9    10    11   ar
    10    11    12   ar
    11    12    13   ar
    12    13    16    1
    13    16    18    1
    14    18    19    1
    15    18    20    2
    16    18    21    2
    17    13    14   ar
    18    14    15   ar
    19     2    22    1
    20    22    29    1
    21    29    30    1
    22    30    31    1
    23    31    32    1
    24    32    33    1
    25    33    34    1
    26    33    35    1
    27    22    23    1
    28    23    24   ar
    29    24    25   ar
    30    25    26   ar
    31    26    27   ar
    32    27    28   ar
    33    15    10   ar
    34    35    30    1
    35    28    23   ar
    36     8     9    1
    37    16    17    1
    38    34    36    1
@<TRIPOS>MOLECULE
*****
 36 38 0 0 0
SMALL
GASTEIGER

@<TRIPOS>ATOM
      1 C           5.9156    0.6183   17.8017 C.3     1  UNL1        0.1152
      2 N           5.1656   -0.5542   18.3610 N.am    1  UNL1       -0.2739
      3 C           5.6420   -1.9497   18.0859 C.2     1  UNL1        0.2352
      4 O           6.8684   -2.1727   17.2515 O.2     1  UNL1       -0.2743
      5 C           4.8919   -3.1221   18.6451 C.3     1  UNL1        0.1703
      6 C           5.2992   -3.7141   19.9619 C.2     1  UNL1        0.2354
      7 O           4.5312   -4.8681   20.5350 O.2     1  UNL1       -0.2742
      8 N           6.4745   -3.1521   20.7055 N.am    1  UNL1       -0.2835
      9 H           6.9785   -2.3947   20.3293 H       1  UNL1        0.1549
     10 C           6.8817   -3.7441   22.0222 C.ar    1  UNL1        0.0504
     11 C           8.0658   -4.6618   22.0978 C.ar    1  UNL1        0.0160
     12 C           8.4730   -5.2537   23.4144 C.ar    1  UNL1        0.0171
     13 C           7.6962   -4.9280   24.6556 C.ar    1  UNL1        0.0645
     14 C           6.5121   -4.0103   24.5800 C.ar    1  UNL1        0.0171
     15 C           6.1049   -3.4184   23.2633 C.ar    1  UNL1        0.0160
     16 N           8.1035   -5.5200   25.9723 N.pl3   1  UNL1       -0.2187
     17 H           8.9574   -6.0035   26.0516 H       1  UNL1        0.1734
     18 S           7.2097   -5.3754   27.1682 S.O2    1  UNL1        0.0558
     19 C           6.3159   -5.2307   28.3642 C.3     1  UNL1        0.1996
     20 O           7.9875   -4.1690   27.6036 O.2     1  UNL1       -0.1544
     21 O           6.4319   -6.5817   26.7328 O.2     1  UNL1       -0.1544
     22 C           3.9392   -0.3312   19.1954 C.3     1  UNL1        0.1138
     23 C           4.0465   -0.2921   20.6911 C.ar    1  UNL1       -0.0029
     24 C           5.0491    0.6099   21.3477 C.ar    1  UNL1       -0.0026
     25 C           5.1564    0.6490   22.8433 C.ar    1  UNL1       -0.0003
     26 C           4.2612   -0.2140   23.6823 C.ar    1  UNL1       -0.0000
     27 C           3.2587   -1.1160   23.0257 C.ar    1  UNL1       -0.0003
     28 C           3.1513   -1.1551   21.5300 C.ar    1  UNL1       -0.0026
     29 C           2.6054   -0.1473   18.5341 C.3     1  UNL1        0.0968
     30 N           1.6855    0.9453   18.9922 N.3     1  UNL1       -0.2689
     31 C           1.8184    2.4038   18.6678 C.3     1  UNL1        0.0748
     32 C           0.6861    3.1311   19.3303 C.3     1  UNL1        0.0480
     33 C          -0.1466    2.1222   20.0642 C.3     1  UNL1        0.1278
     34 O          -1.3804    2.4131   20.8662 O.3     1  UNL1       -0.3830
     35 C           0.4710    0.7714   19.8553 C.3     1  UNL1        0.1017
     36 H          -1.7274    1.5866   21.2369 H       1  UNL1        0.2104
@<TRIPOS>BOND
     1     1     2    1
     2     2     3   am
     3     3     4    2
     4     3     5    1
     5     5     6    1
     6     6     7    2
     7     6     8   am
     8     8    10    1
     9    10    11   ar
    10    11    12   ar
    11    12    13   ar
    12    13    16    1
    13    16    18    1
    14    18    19    1
    15    18    20    2
    16    18    21    2
    17    13    14   ar
    18    14    15   ar
    19     2    22    1
    20    22    29    1
    21    29    30    1
    22    30    31    1
    23    31    32    1
    24    32    33    1
    25    33    34    1
    26    33    35    1
    27    22    23    1
    28    23    24   ar
    29    24    25   ar
    30    25    26   ar
    31    26    27   ar
    32    27    28   ar
    33    15    10   ar
    34    35    30    1
    35    28    23   ar
    36     8     9    1
    37    16    17    1
    38    34    36    1
@<TRIPOS>MOLECULE
*****
 36 38 0 0 0
SMALL
GASTEIGER

@<TRIPOS>ATOM
      1 C           4.6606    4.7229   35.5197 C.3     1  UNL1        0.1152
      2 N           3.8752    3.4712   35.2612 N.am    1  UNL1       -0.2739
      3 C           2.9930    3.3757   34.0519 C.2     1  UNL1        0.2352
      4 O           2.8961    4.5317   33.1010 O.2     1  UNL1       -0.2743
      5 C           2.2077    2.1241   33.7936 C.3     1  UNL1        0.1703
      6 C           1.9388    1.6847   32.3847 C.2     1  UNL1        0.2354
      7 O           2.4644    0.3673   31.8967 O.2     1  UNL1       -0.2742
      8 N           1.1444    2.5628   31.4640 N.am    1  UNL1       -0.2835
      9 H           0.7994    3.4275   31.7843 H       1  UNL1        0.1549
     10 C           0.8755    2.1234   30.0551 C.ar    1  UNL1        0.0504
     11 C          -0.2319    1.1526   29.7707 C.ar    1  UNL1        0.0160
     12 C          -0.5007    0.7133   28.3619 C.ar    1  UNL1        0.0171
     13 C           0.3379    1.2448   27.2376 C.ar    1  UNL1        0.0645
     14 C           1.4453    2.2157   27.5220 C.ar    1  UNL1        0.0171
     15 C           1.7141    2.6550   28.9308 C.ar    1  UNL1        0.0160
     16 N           0.0690    0.8055   25.8287 N.pl3   1  UNL1       -0.2187
     17 H          -0.0941   -0.1453   25.6322 H       1  UNL1        0.1734
     18 S           0.0486    1.8148   24.7193 S.O2    1  UNL1        0.0558
     19 C           0.0282    2.8242   23.6098 C.3     1  UNL1        0.1996
     20 O           1.2996    1.2141   24.1499 O.2     1  UNL1       -0.1544
     21 O          -1.2023    2.4154   25.2888 O.2     1  UNL1       -0.1544
     22 C           3.9722    2.3152   36.2122 C.3     1  UNL1        0.1138
     23 C           2.9371    2.1362   37.2830 C.ar    1  UNL1       -0.0029
     24 C           1.9651    3.2397   37.5787 C.ar    1  UNL1       -0.0026
     25 C           0.9302    3.0606   38.6495 C.ar    1  UNL1       -0.0003
     26 C           0.8672    1.7779   39.4246 C.ar    1  UNL1       -0.0000
     27 C           1.8391    0.6744   39.1290 C.ar    1  UNL1       -0.0003
     28 C           2.8741    0.8535   38.0582 C.ar    1  UNL1       -0.0026
     29 C           5.1041    1.3383   36.0923 C.3     1  UNL1        0.0968
     30 N           5.0826    0.2939   35.0159 N.3     1  UNL1       -0.2689
     31 C           5.8155    0.3596   33.7088 C.3     1  UNL1        0.0748
     32 C           5.5103   -0.8933   32.9426 C.3     1  UNL1        0.0480
     33 C           4.5887   -1.7334   33.7762 C.3     1  UNL1        0.1278
     34 O           4.0295   -3.0722   33.3953 O.3     1  UNL1       -0.3830
     35 C           4.3243   -0.9997   35.0575 C.3     1  UNL1        0.1017
     36 H           3.4622   -3.4008   34.1101 H       1  UNL1        0.2104
@<TRIPOS>BOND
     1     1     2    1
     2     2     3   am
     3     3     4    2
     4     3     5    1
     5     5     6    1
     6     6     7    2
     7     6     8   am
     8     8    10    1
     9    10    11   ar
    10    11    12   ar
    11    12    13   ar
    12    13    16    1
    13    16    18    1
    14    18    19    1
    15    18    20    2
    16    18    21    2
    17    13    14   ar
    18    14    15   ar
    19     2    22    1
    20    22    29    1
    21    29    30    1
    22    30    31    1
    23    31    32    1
    24    32    33    1
    25    33    34    1
    26    33    35    1
    27    22    23    1
    28    23    24   ar
    29    24    25   ar
    30    25    26   ar
    31    26    27   ar
    32    27    28   ar
    33    15    10   ar
    34    35    30    1
    35    28    23   ar
    36     8     9    1
    37    16    17    1
    38    34    36    1
@<TRIPOS>MOLECULE
*****
 36 38 0 0 0
SMALL
GASTEIGER

@<TRIPOS>ATOM
      1 C           5.6767    1.8269   18.6572 C.3     1  UNL1        0.1152
      2 N           5.0746    0.6736   19.4040 N.am    1  UNL1       -0.2739
      3 C           5.7598    0.1292   20.6222 C.2     1  UNL1        0.2352
      4 O           7.0470    0.7380   21.0938 O.2     1  UNL1       -0.2743
      5 C           5.1577   -1.0240   21.3689 C.3     1  UNL1        0.1703
      6 C           4.3383   -0.7744   22.6003 C.2     1  UNL1        0.2354
      7 O           4.0091   -1.9089   23.5247 O.2     1  UNL1       -0.2742
      8 N           3.8481    0.6096   22.9072 N.am    1  UNL1       -0.2835
      9 H           4.0642    1.3541   22.3005 H       1  UNL1        0.1549
     10 C           3.0286    0.8591   24.1387 C.ar    1  UNL1        0.0504
     11 C           1.5312    0.8748   24.0526 C.ar    1  UNL1        0.0160
     12 C           0.7119    1.1244   25.2840 C.ar    1  UNL1        0.0171
     13 C           1.3899    1.3582   26.6014 C.ar    1  UNL1        0.0645
     14 C           2.8874    1.3425   26.6874 C.ar    1  UNL1        0.0171
     15 C           3.7067    1.0929   25.4561 C.ar    1  UNL1        0.0160
     16 N           0.5705    1.6078   27.8328 N.pl3   1  UNL1       -0.2187
     17 H           0.6538    2.4622   28.3147 H       1  UNL1        0.1734
     18 S          -0.3758    0.5555   28.3300 S.O2    1  UNL1        0.0558
     19 C          -1.3221   -0.4968   28.8272 C.3     1  UNL1        0.1996
     20 O          -1.5396    1.4135   27.9308 O.2     1  UNL1       -0.1544
     21 O           0.7880   -0.3024   28.7292 O.2     1  UNL1       -0.1544
     22 C           3.7874    0.0648   18.9324 C.3     1  UNL1        0.1138
     23 C           2.4777    0.6008   19.4300 C.ar    1  UNL1       -0.0029
     24 C           2.1112    2.0341   19.1826 C.ar    1  UNL1       -0.0026
     25 C           0.8016    2.5700   19.6801 C.ar    1  UNL1       -0.0003
     26 C          -0.1416    1.6726   20.4250 C.ar    1  UNL1       -0.0000
     27 C           0.2248    0.2392   20.6725 C.ar    1  UNL1       -0.0003
     28 C           1.5345   -0.2966   20.1749 C.ar    1  UNL1       -0.0026
     29 C           3.8098   -1.0799   17.9634 C.3     1  UNL1        0.0968
     30 N           4.1215   -2.4654   18.4463 N.3     1  UNL1       -0.2689
     31 C           5.4248   -3.1873   18.2725 C.3     1  UNL1        0.0748
     32 C           5.2935   -4.5403   18.9066 C.3     1  UNL1        0.0480
     33 C           3.9090   -4.6546   19.4724 C.3     1  UNL1        0.1278
     34 O           3.3474   -5.8427   20.1956 O.3     1  UNL1       -0.3830
     35 C           3.1847   -3.3723   19.1879 C.3     1  UNL1        0.1017
     36 H           2.4317   -5.6586   20.4575 H       1  UNL1        0.2104
@<TRIPOS>BOND
     1     1     2    1
     2     2     3   am
     3     3     4    2
     4     3     5    1
     5     5     6    1
     6     6     7    2
     7     6     8   am
     8     8    10    1
     9    10    11   ar
    10    11    12   ar
    11    12    13   ar
    12    13    16    1
    13    16    18    1
    14    18    19    1
    15    18    20    2
    16    18    21    2
    17    13    14   ar
    18    14    15   ar
    19     2    22    1
    20    22    29    1
    21    29    30    1
    22    30    31    1
    23    31    32    1
    24    32    33    1
    25    33    34    1
    26    33    35    1
    27    22    23    1
    28    23    24   ar
    29    24    25   ar
    30    25    26   ar
    31    26    27   ar
    32    27    28   ar
    33    15    10   ar
    34    35    30    1
    35    28    23   ar
    36     8     9    1
    37    16    17    1
    38    34    36    1
