@<TRIPOS>MOLECULE
*****
 42 45 0 0 0
SMALL
GASTEIGER

@<TRIPOS>ATOM
      1 C           6.8482   -4.7184   23.4248 C.3     1  UNL1        0.0314
      2 C           6.1479   -3.8322   24.4119 C.3     1  UNL1        0.1519
      3 C           5.2545   -3.0636   23.4839 C.2     1  UNL1        0.2409
      4 O           5.6445   -3.6828   22.1745 O.2     1  UNL1       -0.2733
      5 N           4.2257   -2.0800   23.0108 N.am    1  UNL1       -0.2967
      6 C           3.1855   -0.9999   23.0494 C.3     1  UNL1        0.1530
      7 C           2.2594    0.0463   23.5951 C.2     1  UNL1        0.2407
      8 O           1.6092    0.5071   22.3244 O.2     1  UNL1       -0.2733
      9 N           1.5591    0.9324   24.5822 N.am    1  UNL1       -0.3030
     10 C           1.1692    1.5516   25.8916 C.3     1  UNL1        0.0898
     11 C           1.1364    1.8293   27.3654 C.3     1  UNL1        0.0260
     12 C           1.4651    1.7317   28.8256 C.3     1  UNL1        0.0312
     13 C           2.1152    1.2709   30.0964 C.ar    1  UNL1        0.0120
     14 C           1.1891    2.3171   30.6422 C.ar    1  UNL1        0.0010
     15 C           1.1565    2.5947   32.1159 C.ar    1  UNL1        0.0295
     16 C           2.0499    1.8261   33.0438 C.ar    1  UNL1        0.1431
     17 F           2.0172    2.1037   34.5176 F       1  UNL1       -0.2041
     18 C           2.9759    0.7799   32.4981 C.ar    1  UNL1        0.0662
     19 C           3.0086    0.5023   31.0244 C.ar    1  UNL1        0.1368
     20 O           4.0374   -0.4813   31.4975 O.3     1  UNL1       -0.4742
     21 C           5.0776   -1.5614   31.4590 C.3     1  UNL1        0.2224
     22 C           6.0037   -2.6076   30.9132 C.3     1  UNL1        0.1168
     23 N           6.7040   -3.4938   29.9261 N.3     1  UNL1       -0.2882
     24 C           7.0940   -4.1129   28.6167 C.3     1  UNL1        0.1317
     25 C           7.1266   -4.3905   27.1430 C.2     1  UNL1        0.2403
     26 O           8.1668   -5.4706   27.1045 O.2     1  UNL1       -0.2734
     27 N           6.7981   -4.2930   25.6827 N.am    1  UNL1       -0.2701
     28 C           7.7242   -5.3392   25.1369 C.3     1  UNL1        0.1153
     29 H           4.2471   -2.2621   22.0435 H       1  UNL1        0.1499
     30 H           0.9728    1.4369   23.9731 H       1  UNL1        0.1495
     31 H           6.4605   -4.3712   30.3857 H       1  UNL1        0.1237
     32 C           8.1228   -5.0966   29.0900 C.3     1  UNL1        0.0233
     33 C           8.4986   -6.4934   29.4870 C.3     1  UNL1        0.0019
     34 C           9.5289   -5.4036   29.5126 C.3     1  UNL1        0.0019
     35 C           2.8569   -0.9024   21.5890 C.3     1  UNL1        0.0553
     36 C           3.8725   -1.3094   20.5630 C.ar    1  UNL1       -0.0199
     37 C           3.6028   -2.4789   19.6633 C.ar    1  UNL1       -0.0019
     38 C           4.6184   -2.8859   18.6372 C.ar    1  UNL1        0.0293
     39 C           5.9040   -2.1233   18.5109 C.ar    1  UNL1        0.1401
     40 F           6.9196   -2.5304   17.4848 F       1  UNL1       -0.2042
     41 C           6.1738   -0.9538   19.4106 C.ar    1  UNL1        0.0293
     42 C           5.1581   -0.5468   20.4366 C.ar    1  UNL1       -0.0019
@<TRIPOS>BOND
     1     2     1    1
     2     2     3    1
     3     3     4    2
     4     3     5   am
     5     5     6    1
     6     6    35    1
     7    35    36    1
     8    36    37   ar
     9    37    38   ar
    10    38    39   ar
    11    39    40    1
    12    39    41   ar
    13    41    42   ar
    14     6     7    1
    15     7     8    2
    16     7     9   am
    17     9    10    1
    18    10    11    1
    19    11    12    1
    20    12    13    1
    21    13    14   ar
    22    14    15   ar
    23    15    16   ar
    24    16    17    1
    25    16    18   ar
    26    18    19   ar
    27    19    20    1
    28    20    21    1
    29    21    22    1
    30    22    23    1
    31    23    24    1
    32    24    32    1
    33    32    33    1
    34    33    34    1
    35    24    25    1
    36    25    26    2
    37    25    27   am
    38    27    28    1
    39    27     2    1
    40    42    36   ar
    41    19    13   ar
    42    34    32    1
    43     5    29    1
    44     9    30    1
    45    23    31    1
@<TRIPOS>MOLECULE
*****
 42 45 0 0 0
SMALL
GASTEIGER

@<TRIPOS>ATOM
      1 C           7.2772   -4.4353   31.7193 C.3     1  UNL1        0.0314
      2 C           6.5265   -3.7436   30.6202 C.3     1  UNL1        0.1519
      3 C           5.7348   -2.7570   31.4263 C.2     1  UNL1        0.2409
      4 O           6.2105   -3.1060   32.8054 O.2     1  UNL1       -0.2733
      5 N           4.7778   -1.6492   31.7534 N.am    1  UNL1       -0.2967
      6 C           3.7711   -0.5538   31.5621 C.3     1  UNL1        0.1530
      7 C           2.8360    0.3971   30.8755 C.2     1  UNL1        0.2407
      8 O           2.3050    1.1435   32.0633 O.2     1  UNL1       -0.2733
      9 N           2.0853    1.0887   29.7764 N.am    1  UNL1       -0.3030
     10 C           1.6096    1.4377   28.3973 C.3     1  UNL1        0.0898
     11 C           1.4661    1.4020   26.9046 C.3     1  UNL1        0.0260
     12 C           1.6724    0.9857   25.4784 C.3     1  UNL1        0.0312
     13 C           2.2033    0.2394   24.2905 C.ar    1  UNL1        0.0120
     14 C           1.2682    1.1902   23.6039 C.ar    1  UNL1        0.0010
     15 C           1.1249    1.1545   22.1113 C.ar    1  UNL1        0.0295
     16 C           1.9166    0.1679   21.3052 C.ar    1  UNL1        0.1431
     17 F           1.7731    0.1321   19.8124 F       1  UNL1       -0.2041
     18 C           2.8517   -0.7830   21.9917 C.ar    1  UNL1        0.0662
     19 C           2.9951   -0.7472   23.4844 C.ar    1  UNL1        0.1368
     20 O           3.9520   -1.8550   23.1573 O.3     1  UNL1       -0.4742
     21 C           4.9587   -2.9504   23.3485 C.3     1  UNL1        0.2224
     22 C           5.8939   -3.9013   24.0352 C.3     1  UNL1        0.1168
     23 N           6.6446   -4.5930   25.1343 N.3     1  UNL1       -0.2882
     24 C           7.1203   -4.9419   26.5134 C.3     1  UNL1        0.1317
     25 C           7.2637   -4.9062   28.0060 C.2     1  UNL1        0.2403
     26 O           8.2704   -6.0016   28.1973 O.2     1  UNL1       -0.2734
     27 N           7.0574   -4.4900   29.4323 N.am    1  UNL1       -0.2701
     28 C           7.9926   -5.4409   30.1190 C.3     1  UNL1        0.1153
     29 H           4.8720   -1.6257   32.7331 H       1  UNL1        0.1499
     30 H           1.5657    1.7363   30.3055 H       1  UNL1        0.1495
     31 H           7.5725   -4.4258   24.7452 H       1  UNL1        0.1237
     32 C           8.0772   -6.0497   26.1862 C.3     1  UNL1        0.0233
     33 C           9.4633   -6.5106   25.8452 C.3     1  UNL1        0.0019
     34 C           8.3487   -7.5077   25.9606 C.3     1  UNL1        0.0019
     35 C           3.5648   -0.1376   32.9884 C.3     1  UNL1        0.0553
     36 C           4.7474    0.0713   33.8872 C.ar    1  UNL1       -0.0199
     37 C           4.7712   -0.5502   35.2522 C.ar    1  UNL1       -0.0019
     38 C           5.9538   -0.3414   36.1510 C.ar    1  UNL1        0.0293
     39 C           7.1128    0.4891   35.6848 C.ar    1  UNL1        0.1401
     40 F           8.2954    0.6979   36.5835 F       1  UNL1       -0.2042
     41 C           7.0890    1.1106   34.3198 C.ar    1  UNL1        0.0293
     42 C           5.9064    0.9017   33.4210 C.ar    1  UNL1       -0.0019
@<TRIPOS>BOND
     1     2     1    1
     2     2     3    1
     3     3     4    2
     4     3     5   am
     5     5     6    1
     6     6    35    1
     7    35    36    1
     8    36    37   ar
     9    37    38   ar
    10    38    39   ar
    11    39    40    1
    12    39    41   ar
    13    41    42   ar
    14     6     7    1
    15     7     8    2
    16     7     9   am
    17     9    10    1
    18    10    11    1
    19    11    12    1
    20    12    13    1
    21    13    14   ar
    22    14    15   ar
    23    15    16   ar
    24    16    17    1
    25    16    18   ar
    26    18    19   ar
    27    19    20    1
    28    20    21    1
    29    21    22    1
    30    22    23    1
    31    23    24    1
    32    24    32    1
    33    32    33    1
    34    33    34    1
    35    24    25    1
    36    25    26    2
    37    25    27   am
    38    27    28    1
    39    27     2    1
    40    42    36   ar
    41    19    13   ar
    42    34    32    1
    43     5    29    1
    44     9    30    1
    45    23    31    1
@<TRIPOS>MOLECULE
*****
 42 45 0 0 0
SMALL
GASTEIGER

@<TRIPOS>ATOM
      1 C           5.1126   -1.8593   33.1453 C.3     1  UNL1        0.0314
      2 C           4.8658   -1.7685   31.6685 C.3     1  UNL1        0.1519
      3 C           3.8031   -0.7101   31.6465 C.2     1  UNL1        0.2409
      4 O           3.6807   -0.4333   33.1157 O.2     1  UNL1       -0.2733
      5 N           2.7828    0.2521   31.1143 N.am    1  UNL1       -0.2967
      6 C           1.9281    1.0021   30.1360 C.3     1  UNL1        0.1530
      7 C           1.3420    1.4495   28.8298 C.2     1  UNL1        0.2407
      8 O           0.3651    2.4764   29.3207 O.2     1  UNL1       -0.2733
      9 N           1.0952    1.5403   27.3530 N.am    1  UNL1       -0.3030
     10 C           1.2176    1.2634   25.8839 C.3     1  UNL1        0.0898
     11 C           1.6942    0.6524   24.5995 C.3     1  UNL1        0.0260
     12 C           2.4677   -0.2191   23.6550 C.3     1  UNL1        0.0312
     13 C           3.4446   -1.2460   23.1640 C.ar    1  UNL1        0.0120
     14 C           2.8585   -0.7986   21.8578 C.ar    1  UNL1        0.0010
     15 C           3.3352   -1.4096   20.5735 C.ar    1  UNL1        0.0295
     16 C           4.3979   -2.4680   20.5954 C.ar    1  UNL1        0.1431
     17 F           4.8745   -3.0790   19.3110 F       1  UNL1       -0.2041
     18 C           4.9840   -2.9154   21.9017 C.ar    1  UNL1        0.0662
     19 C           4.5073   -2.3044   23.1860 C.ar    1  UNL1        0.1368
     20 O           5.5275   -3.2666   23.7182 O.3     1  UNL1       -0.4742
     21 C           6.3823   -4.0166   24.6964 C.3     1  UNL1        0.2224
     22 C           6.9683   -4.4640   26.0027 C.3     1  UNL1        0.1168
     23 N           7.2151   -4.5548   27.4795 N.3     1  UNL1       -0.2882
     24 C           7.0928   -4.2779   28.9486 C.3     1  UNL1        0.1317
     25 C           6.6162   -3.6669   30.2329 C.2     1  UNL1        0.2403
     26 O           7.4709   -4.4169   31.2111 O.2     1  UNL1       -0.2734
     27 N           5.8427   -2.7954   31.1775 N.am    1  UNL1       -0.2701
     28 C           6.4288   -3.2427   32.4838 C.3     1  UNL1        0.1153
     29 H           2.4700    0.6531   31.9572 H       1  UNL1        0.1499
     30 H           0.3978    2.2349   27.3386 H       1  UNL1        0.1495
     31 H           8.2191   -4.3825   27.4262 H       1  UNL1        0.1237
     32 C           8.1130   -5.2401   29.4808 C.3     1  UNL1        0.0233
     33 C           9.5103   -5.5270   29.9449 C.3     1  UNL1        0.0019
     34 C           8.4830   -6.6199   29.9384 C.3     1  UNL1        0.0019
     35 C           1.1546    1.8737   31.0806 C.3     1  UNL1        0.0553
     36 C           1.8806    2.7396   32.0671 C.ar    1  UNL1       -0.0199
     37 C           2.7657    3.8493   31.5821 C.ar    1  UNL1       -0.0019
     38 C           3.4917    4.7153   32.5685 C.ar    1  UNL1        0.0293
     39 C           3.3326    4.4716   34.0401 C.ar    1  UNL1        0.1401
     40 F           4.0585    5.3375   35.0265 F       1  UNL1       -0.2042
     41 C           2.4475    3.3619   34.5250 C.ar    1  UNL1        0.0293
     42 C           1.7215    2.4959   33.5386 C.ar    1  UNL1       -0.0019
@<TRIPOS>BOND
     1     2     1    1
     2     2     3    1
     3     3     4    2
     4     3     5   am
     5     5     6    1
     6     6    35    1
     7    35    36    1
     8    36    37   ar
     9    37    38   ar
    10    38    39   ar
    11    39    40    1
    12    39    41   ar
    13    41    42   ar
    14     6     7    1
    15     7     8    2
    16     7     9   am
    17     9    10    1
    18    10    11    1
    19    11    12    1
    20    12    13    1
    21    13    14   ar
    22    14    15   ar
    23    15    16   ar
    24    16    17    1
    25    16    18   ar
    26    18    19   ar
    27    19    20    1
    28    20    21    1
    29    21    22    1
    30    22    23    1
    31    23    24    1
    32    24    32    1
    33    32    33    1
    34    33    34    1
    35    24    25    1
    36    25    26    2
    37    25    27   am
    38    27    28    1
    39    27     2    1
    40    42    36   ar
    41    19    13   ar
    42    34    32    1
    43     5    29    1
    44     9    30    1
    45    23    31    1
@<TRIPOS>MOLECULE
*****
 42 45 0 0 0
SMALL
GASTEIGER

@<TRIPOS>ATOM
      1 C           5.5296   -1.5663   24.4501 C.3     1  UNL1        0.0314
      2 C           4.2557   -0.7817   24.3426 C.3     1  UNL1        0.1519
      3 C           4.1500   -0.6596   22.8513 C.2     1  UNL1        0.2409
      4 O           5.3871   -1.4018   22.4408 O.2     1  UNL1       -0.2733
      5 N           3.6145   -0.2798   21.5026 N.am    1  UNL1       -0.2967
      6 C           2.7140    0.3120   20.4591 C.3     1  UNL1        0.1530
      7 C           1.5571    1.0444   19.8466 C.2     1  UNL1        0.2407
      8 O           1.8938    0.8939   18.3927 O.2     1  UNL1       -0.2733
      9 N           0.2832    1.8290   19.7391 N.am    1  UNL1       -0.3030
     10 C          -0.9540    2.5712   20.1496 C.3     1  UNL1        0.0898
     11 C          -2.0053    3.1815   21.0285 C.3     1  UNL1        0.0260
     12 C          -2.7438    3.5862   22.2698 C.3     1  UNL1        0.0312
     13 C          -3.0806    3.7367   23.7237 C.ar    1  UNL1        0.0120
     14 C          -4.2375    4.4690   23.1113 C.ar    1  UNL1        0.0010
     15 C          -5.2887    5.0793   23.9901 C.ar    1  UNL1        0.0295
     16 C          -5.1830    4.9572   25.4814 C.ar    1  UNL1        0.1431
     17 F          -6.2343    5.5676   26.3603 F       1  UNL1       -0.2041
     18 C          -4.0261    4.2249   26.0938 C.ar    1  UNL1        0.0662
     19 C          -2.9748    3.6146   25.2150 C.ar    1  UNL1        0.1368
     20 O          -2.4394    3.2348   26.5637 O.3     1  UNL1       -0.4742
     21 C          -1.5390    2.6430   27.6072 C.3     1  UNL1        0.2224
     22 C          -0.3820    1.9106   28.2196 C.3     1  UNL1        0.1168
     23 N           0.8920    1.1260   28.3271 N.3     1  UNL1       -0.2882
     24 C           2.1291    0.3838   27.9167 C.3     1  UNL1        0.1317
     25 C           3.1804   -0.2264   27.0378 C.2     1  UNL1        0.2403
     26 O           4.0809   -0.8182   28.0814 O.2     1  UNL1       -0.2734
     27 N           3.9189   -0.6312   25.7965 N.am    1  UNL1       -0.2701
     28 C           5.0759   -1.3636   26.4089 C.3     1  UNL1        0.1153
     29 H           4.3045   -0.6803   20.9258 H       1  UNL1        0.1499
     30 H           0.2138    1.9091   18.7604 H       1  UNL1        0.1495
     31 H           0.4986    0.3683   28.8853 H       1  UNL1        0.1237
     32 C           2.6645    0.0040   29.2654 C.3     1  UNL1        0.0233
     33 C           2.6642   -0.9140   30.4517 C.3     1  UNL1        0.0019
     34 C           3.5920    0.2641   30.4153 C.3     1  UNL1        0.0019
     35 C           3.4526   -0.0928   19.2178 C.3     1  UNL1        0.0553
     36 C           3.8486   -1.5251   19.0142 C.ar    1  UNL1       -0.0199
     37 C           2.9010   -2.6259   19.3889 C.ar    1  UNL1       -0.0019
     38 C           3.2971   -4.0583   19.1853 C.ar    1  UNL1        0.0293
     39 C           4.6409   -4.3899   18.6070 C.ar    1  UNL1        0.1401
     40 F           5.0369   -5.8223   18.4035 F       1  UNL1       -0.2042
     41 C           5.5884   -3.2892   18.2324 C.ar    1  UNL1        0.0293
     42 C           5.1924   -1.8568   18.4359 C.ar    1  UNL1       -0.0019
@<TRIPOS>BOND
     1     2     1    1
     2     2     3    1
     3     3     4    2
     4     3     5   am
     5     5     6    1
     6     6    35    1
     7    35    36    1
     8    36    37   ar
     9    37    38   ar
    10    38    39   ar
    11    39    40    1
    12    39    41   ar
    13    41    42   ar
    14     6     7    1
    15     7     8    2
    16     7     9   am
    17     9    10    1
    18    10    11    1
    19    11    12    1
    20    12    13    1
    21    13    14   ar
    22    14    15   ar
    23    15    16   ar
    24    16    17    1
    25    16    18   ar
    26    18    19   ar
    27    19    20    1
    28    20    21    1
    29    21    22    1
    30    22    23    1
    31    23    24    1
    32    24    32    1
    33    32    33    1
    34    33    34    1
    35    24    25    1
    36    25    26    2
    37    25    27   am
    38    27    28    1
    39    27     2    1
    40    42    36   ar
    41    19    13   ar
    42    34    32    1
    43     5    29    1
    44     9    30    1
    45    23    31    1
@<TRIPOS>MOLECULE
*****
 42 45 0 0 0
SMALL
GASTEIGER

@<TRIPOS>ATOM
      1 C          -1.4209    3.8573   26.8559 C.3     1  UNL1        0.0314
      2 C          -0.6290    3.0394   25.8792 C.3     1  UNL1        0.1519
      3 C          -1.2207    3.5279   24.5903 C.2     1  UNL1        0.2409
      4 O          -2.2181    4.5155   25.1193 O.2     1  UNL1       -0.2733
      5 N          -1.4659    3.6734   23.1177 N.am    1  UNL1       -0.2967
      6 C          -1.3353    3.4583   21.6389 C.3     1  UNL1        0.1530
      7 C          -0.8444    2.9088   20.3324 C.2     1  UNL1        0.2407
      8 O          -1.7111    3.6813   19.3827 O.2     1  UNL1       -0.2733
      9 N          -0.0525    2.0909   19.3557 N.am    1  UNL1       -0.3030
     10 C           0.9449    1.1033   18.8267 C.3     1  UNL1        0.0898
     11 C           2.0276    0.0652   18.8091 C.3     1  UNL1        0.0260
     12 C           3.0648   -0.8982   19.3051 C.3     1  UNL1        0.0312
     13 C           3.9316   -1.6708   20.2547 C.ar    1  UNL1        0.0120
     14 C           4.4225   -2.2203   18.9483 C.ar    1  UNL1        0.0010
     15 C           5.5050   -3.2584   18.9307 C.ar    1  UNL1        0.0295
     16 C           6.0968   -3.7469   20.2196 C.ar    1  UNL1        0.1431
     17 F           7.1794   -4.7850   20.2020 F       1  UNL1       -0.2041
     18 C           5.6059   -3.1973   21.5261 C.ar    1  UNL1        0.0662
     19 C           4.5233   -2.1592   21.5436 C.ar    1  UNL1        0.1368
     20 O           4.7685   -2.3047   23.0163 O.3     1  UNL1       -0.4742
     21 C           4.6379   -2.0897   24.4950 C.3     1  UNL1        0.2224
     22 C           4.1470   -1.5401   25.8015 C.3     1  UNL1        0.1168
     23 N           3.3551   -0.7222   26.7782 N.3     1  UNL1       -0.2882
     24 C           2.3577    0.2654   27.3072 C.3     1  UNL1        0.1317
     25 C           1.2751    1.3034   27.3248 C.2     1  UNL1        0.2403
     26 O           1.1444    1.5185   28.8036 O.2     1  UNL1       -0.2734
     27 N           0.2378    2.2669   26.8288 N.am    1  UNL1       -0.2701
     28 C          -0.2531    2.8165   28.1354 C.3     1  UNL1        0.1153
     29 H          -2.1765    4.3547   23.1292 H       1  UNL1        0.1499
     30 H          -0.4409    2.4115   18.5098 H       1  UNL1        0.1495
     31 H           4.1629   -0.3131   27.2477 H       1  UNL1        0.1237
     32 C           2.6030    0.1199   28.7798 C.3     1  UNL1        0.0233
     33 C           2.2958   -0.5460   30.0884 C.3     1  UNL1        0.0019
     34 C           3.3350    0.5336   30.0221 C.3     1  UNL1        0.0019
     35 C          -2.3725    4.4218   21.1429 C.3     1  UNL1        0.0553
     36 C          -3.6559    4.5972   21.8994 C.ar    1  UNL1       -0.0199
     37 C          -4.5885    3.4354   22.0739 C.ar    1  UNL1       -0.0019
     38 C          -5.8718    3.6108   22.8304 C.ar    1  UNL1        0.0293
     39 C          -6.2226    4.9481   23.4123 C.ar    1  UNL1        0.1401
     40 F          -7.5060    5.1236   24.1688 F       1  UNL1       -0.2042
     41 C          -5.2900    6.1099   23.2377 C.ar    1  UNL1        0.0293
     42 C          -4.0067    5.9345   22.4813 C.ar    1  UNL1       -0.0019
@<TRIPOS>BOND
     1     2     1    1
     2     2     3    1
     3     3     4    2
     4     3     5   am
     5     5     6    1
     6     6    35    1
     7    35    36    1
     8    36    37   ar
     9    37    38   ar
    10    38    39   ar
    11    39    40    1
    12    39    41   ar
    13    41    42   ar
    14     6     7    1
    15     7     8    2
    16     7     9   am
    17     9    10    1
    18    10    11    1
    19    11    12    1
    20    12    13    1
    21    13    14   ar
    22    14    15   ar
    23    15    16   ar
    24    16    17    1
    25    16    18   ar
    26    18    19   ar
    27    19    20    1
    28    20    21    1
    29    21    22    1
    30    22    23    1
    31    23    24    1
    32    24    32    1
    33    32    33    1
    34    33    34    1
    35    24    25    1
    36    25    26    2
    37    25    27   am
    38    27    28    1
    39    27     2    1
    40    42    36   ar
    41    19    13   ar
    42    34    32    1
    43     5    29    1
    44     9    30    1
    45    23    31    1
@<TRIPOS>MOLECULE
*****
 42 45 0 0 0
SMALL
GASTEIGER

@<TRIPOS>ATOM
      1 C           1.4805    1.7154   31.7477 C.3     1  UNL1        0.0314
      2 C           2.1931    0.9405   30.6793 C.3     1  UNL1        0.1519
      3 C           3.1540    0.1564   31.5231 C.2     1  UNL1        0.2409
      4 O           2.7751    0.6591   32.8846 O.2     1  UNL1       -0.2733
      5 N           4.2464   -0.8022   31.8939 N.am    1  UNL1       -0.2967
      6 C           5.3388   -1.8197   31.7473 C.3     1  UNL1        0.1530
      7 C           6.2991   -2.7735   31.1008 C.2     1  UNL1        0.2407
      8 O           7.0125   -3.2884   32.3156 O.2     1  UNL1       -0.2733
      9 N           7.0117   -3.5484   30.0323 N.am    1  UNL1       -0.3030
     10 C           7.3906   -4.0511   28.6708 C.3     1  UNL1        0.0898
     11 C           7.3901   -4.2208   27.1803 C.3     1  UNL1        0.0260
     12 C           7.0102   -4.0371   25.7410 C.3     1  UNL1        0.0312
     13 C           6.2968   -3.5223   24.5260 C.ar    1  UNL1        0.0120
     14 C           7.2572   -4.4760   23.8795 C.ar    1  UNL1        0.0010
     15 C           7.2566   -4.6458   22.3892 C.ar    1  UNL1        0.0295
     16 C           6.2958   -3.8617   21.5454 C.ar    1  UNL1        0.1431
     17 F           6.2953   -4.0315   20.0550 F       1  UNL1       -0.2041
     18 C           5.3354   -2.9080   22.1919 C.ar    1  UNL1        0.0662
     19 C           5.3359   -2.7383   23.6822 C.ar    1  UNL1        0.1368
     20 O           4.2435   -1.7797   23.3114 O.3     1  UNL1       -0.4742
     21 C           3.1512   -0.7621   23.4579 C.3     1  UNL1        0.2224
     22 C           2.1908    0.1916   24.1045 C.3     1  UNL1        0.1168
     23 N           1.4782    0.9666   25.1730 N.3     1  UNL1       -0.2882
     24 C           1.0993    1.4692   26.5345 C.3     1  UNL1        0.1317
     25 C           1.0998    1.6390   28.0249 C.2     1  UNL1        0.2403
     26 O           0.0075    2.6565   28.1715 O.2     1  UNL1       -0.2734
     27 N           1.4797    1.4553   29.4643 N.am    1  UNL1       -0.2701
     28 C           0.5193    2.4091   30.1110 C.3     1  UNL1        0.1153
     29 H           4.2468   -0.6908   32.8721 H       1  UNL1        0.1499
     30 H           7.6424   -4.0630   30.5861 H       1  UNL1        0.1495
     31 H           0.5403    0.6625   24.9116 H       1  UNL1        0.1237
     32 C           0.0069    2.4278   26.1636 C.3     1  UNL1        0.0233
     33 C          -0.4377    3.8142   25.8025 C.3     1  UNL1        0.0019
     34 C          -1.4408    2.7019   25.8821 C.3     1  UNL1        0.0019
     35 C           5.7187   -2.0034   33.1868 C.3     1  UNL1        0.0553
     36 C           5.7112   -0.8291   34.1201 C.ar    1  UNL1       -0.0199
     37 C           4.7803   -0.8115   35.2961 C.ar    1  UNL1       -0.0019
     38 C           4.7729    0.3627   36.2294 C.ar    1  UNL1        0.0293
     39 C           5.6965    1.5195   35.9866 C.ar    1  UNL1        0.1401
     40 F           5.6891    2.6938   36.9199 F       1  UNL1       -0.2042
     41 C           6.6275    1.5019   34.8106 C.ar    1  UNL1        0.0293
     42 C           6.6349    0.3276   33.8773 C.ar    1  UNL1       -0.0019
@<TRIPOS>BOND
     1     2     1    1
     2     2     3    1
     3     3     4    2
     4     3     5   am
     5     5     6    1
     6     6    35    1
     7    35    36    1
     8    36    37   ar
     9    37    38   ar
    10    38    39   ar
    11    39    40    1
    12    39    41   ar
    13    41    42   ar
    14     6     7    1
    15     7     8    2
    16     7     9   am
    17     9    10    1
    18    10    11    1
    19    11    12    1
    20    12    13    1
    21    13    14   ar
    22    14    15   ar
    23    15    16   ar
    24    16    17    1
    25    16    18   ar
    26    18    19   ar
    27    19    20    1
    28    20    21    1
    29    21    22    1
    30    22    23    1
    31    23    24    1
    32    24    32    1
    33    32    33    1
    34    33    34    1
    35    24    25    1
    36    25    26    2
    37    25    27   am
    38    27    28    1
    39    27     2    1
    40    42    36   ar
    41    19    13   ar
    42    34    32    1
    43     5    29    1
    44     9    30    1
    45    23    31    1
@<TRIPOS>MOLECULE
*****
 42 45 0 0 0
SMALL
GASTEIGER

@<TRIPOS>ATOM
      1 C           1.5691    0.2673   21.5164 C.3     1  UNL1        0.0314
      2 C           2.1874   -0.1035   22.8318 C.3     1  UNL1        0.1519
      3 C           3.1749   -1.1355   22.3738 C.2     1  UNL1        0.2409
      4 O           2.8996   -1.1232   20.8993 O.2     1  UNL1       -0.2733
      5 N           4.2579   -2.1719   22.4280 N.am    1  UNL1       -0.2967
      6 C           5.3060   -3.0875   22.9876 C.3     1  UNL1        0.1530
      7 C           6.1926   -3.7720   23.9852 C.2     1  UNL1        0.2407
      8 O           6.9654   -4.6753   23.0705 O.2     1  UNL1       -0.2733
      9 N           6.8109   -4.1428   25.3006 N.am    1  UNL1       -0.3030
     10 C           7.0862   -4.1551   26.7751 C.3     1  UNL1        0.0898
     11 C           6.9853   -3.8075   28.2308 C.3     1  UNL1        0.0260
     12 C           6.5205   -3.1419   29.4921 C.3     1  UNL1        0.0312
     13 C           5.7478   -2.2387   30.4070 C.ar    1  UNL1        0.0120
     14 C           6.6344   -2.9231   31.4046 C.ar    1  UNL1        0.0010
     15 C           6.5335   -2.5756   32.8603 C.ar    1  UNL1        0.0295
     16 C           5.5461   -1.5435   33.3183 C.ar    1  UNL1        0.1431
     17 F           5.4452   -1.1959   34.7740 F       1  UNL1       -0.2041
     18 C           4.6594   -0.8590   32.3206 C.ar    1  UNL1        0.0662
     19 C           4.7603   -1.2066   30.8650 C.ar    1  UNL1        0.1368
     20 O           3.6772   -0.1703   30.8108 O.3     1  UNL1       -0.4742
     21 C           2.6292    0.7454   30.2513 C.3     1  UNL1        0.2224
     22 C           1.7425    1.4298   29.2535 C.3     1  UNL1        0.1168
     23 N           1.1243    1.8006   27.9381 N.3     1  UNL1       -0.2882
     24 C           0.8490    1.8130   26.4637 C.3     1  UNL1        0.1317
     25 C           0.9498    1.4654   25.0080 C.2     1  UNL1        0.2403
     26 O          -0.0983    2.3810   24.4484 O.2     1  UNL1       -0.2734
     27 N           1.4147    0.7998   23.7467 N.am    1  UNL1       -0.2701
     28 C           0.5280    1.4843   22.7489 C.3     1  UNL1        0.1153
     29 H           4.3241   -2.4000   21.4725 H       1  UNL1        0.1499
     30 H           7.4590   -4.8202   25.0000 H       1  UNL1        0.1495
     31 H           1.3107    2.8005   28.0157 H       1  UNL1        0.1237
     32 C          -0.2341    2.8493   26.4096 C.3     1  UNL1        0.0233
     33 C          -0.6570    4.2788   26.2436 C.3     1  UNL1        0.0019
     34 C          -1.6871    3.2149   26.4820 C.3     1  UNL1        0.0019
     35 C           5.7709   -3.7531   21.7262 C.3     1  UNL1        0.0553
     36 C           5.9969   -2.9380   20.4875 C.ar    1  UNL1       -0.0199
     37 C           5.1967   -3.2167   19.2498 C.ar    1  UNL1       -0.0019
     38 C           5.4227   -2.4015   18.0111 C.ar    1  UNL1        0.0293
     39 C           6.4490   -1.3076   18.0101 C.ar    1  UNL1        0.1401
     40 F           6.6751   -0.4924   16.7714 F       1  UNL1       -0.2042
     41 C           7.2493   -1.0289   19.2478 C.ar    1  UNL1        0.0293
     42 C           7.0232   -1.8440   20.4865 C.ar    1  UNL1       -0.0019
@<TRIPOS>BOND
     1     2     1    1
     2     2     3    1
     3     3     4    2
     4     3     5   am
     5     5     6    1
     6     6    35    1
     7    35    36    1
     8    36    37   ar
     9    37    38   ar
    10    38    39   ar
    11    39    40    1
    12    39    41   ar
    13    41    42   ar
    14     6     7    1
    15     7     8    2
    16     7     9   am
    17     9    10    1
    18    10    11    1
    19    11    12    1
    20    12    13    1
    21    13    14   ar
    22    14    15   ar
    23    15    16   ar
    24    16    17    1
    25    16    18   ar
    26    18    19   ar
    27    19    20    1
    28    20    21    1
    29    21    22    1
    30    22    23    1
    31    23    24    1
    32    24    32    1
    33    32    33    1
    34    33    34    1
    35    24    25    1
    36    25    26    2
    37    25    27   am
    38    27    28    1
    39    27     2    1
    40    42    36   ar
    41    19    13   ar
    42    34    32    1
    43     5    29    1
    44     9    30    1
    45    23    31    1
@<TRIPOS>MOLECULE
*****
 42 45 0 0 0
SMALL
GASTEIGER

@<TRIPOS>ATOM
      1 C           2.0896    1.5561   31.1736 C.3     1  UNL1        0.0314
      2 C           2.4877    0.9393   29.8655 C.3     1  UNL1        0.1519
      3 C           3.5822    0.0252   30.3309 C.2     1  UNL1        0.2409
      4 O           3.5642    0.3245   31.8007 O.2     1  UNL1       -0.2733
      5 N           4.6828   -0.9929   30.2858 N.am    1  UNL1       -0.2967
      6 C           5.6570   -1.9922   29.7358 C.3     1  UNL1        0.1530
      7 C           6.3872   -2.8520   28.7472 C.2     1  UNL1        0.2407
      8 O           7.3433   -3.5519   29.6669 O.2     1  UNL1       -0.2733
      9 N           6.7853   -3.4688   27.4391 N.am    1  UNL1       -0.3030
     10 C           6.8033   -3.7681   25.9694 C.3     1  UNL1        0.0898
     11 C           6.4390   -3.7139   24.5153 C.3     1  UNL1        0.0260
     12 C           5.7364   -3.3126   23.2523 C.3     1  UNL1        0.0312
     13 C           4.7803   -2.6127   22.3325 C.ar    1  UNL1        0.0120
     14 C           5.5105   -3.4725   21.3439 C.ar    1  UNL1        0.0010
     15 C           5.1462   -3.4183   19.8898 C.ar    1  UNL1        0.0295
     16 C           4.0518   -2.5041   19.4244 C.ar    1  UNL1        0.1431
     17 F           3.6876   -2.4499   17.9702 F       1  UNL1       -0.2041
     18 C           3.3217   -1.6443   20.4130 C.ar    1  UNL1        0.0662
     19 C           3.6859   -1.6985   21.8671 C.ar    1  UNL1        0.1368
     20 O           2.5853   -0.6805   21.9121 O.3     1  UNL1       -0.4742
     21 C           1.6111    0.3188   22.4621 C.3     1  UNL1        0.2224
     22 C           0.8809    1.1787   23.4508 C.3     1  UNL1        0.1168
     23 N           0.4828    1.7955   24.7589 N.3     1  UNL1       -0.2882
     24 C           0.4648    2.0948   26.2286 C.3     1  UNL1        0.1317
     25 C           0.8290    2.0405   27.6826 C.2     1  UNL1        0.2403
     26 O          -0.1452    3.0398   28.2326 O.2     1  UNL1       -0.2734
     27 N           1.5316    1.6392   28.9457 N.am    1  UNL1       -0.2701
     28 C           0.8015    2.4991   29.9345 C.3     1  UNL1        0.1153
     29 H           4.9219   -1.0285   31.2402 H       1  UNL1        0.1499
     30 H           7.5036   -4.0688   27.7446 H       1  UNL1        0.1495
     31 H          -0.5042    1.5467   24.6931 H       1  UNL1        0.1237
     32 C          -0.6358    3.1128   26.2736 C.3     1  UNL1        0.0233
     33 C          -1.0824    4.5448   26.2568 C.3     1  UNL1        0.0019
     34 C          -2.0957    3.4445   26.3683 C.3     1  UNL1        0.0019
     35 C           6.3596   -2.3935   30.9989 C.3     1  UNL1        0.0553
     36 C           5.8689   -1.8879   32.3232 C.ar    1  UNL1       -0.0199
     37 C           6.5748   -0.7506   33.0002 C.ar    1  UNL1       -0.0019
     38 C           6.0841   -0.2450   34.3244 C.ar    1  UNL1        0.0293
     39 C           4.8874   -0.8767   34.9717 C.ar    1  UNL1        0.1401
     40 F           4.3967   -0.3711   36.2959 F       1  UNL1       -0.2042
     41 C           4.1815   -2.0140   34.2947 C.ar    1  UNL1        0.0293
     42 C           4.6722   -2.5196   32.9705 C.ar    1  UNL1       -0.0019
@<TRIPOS>BOND
     1     2     1    1
     2     2     3    1
     3     3     4    2
     4     3     5   am
     5     5     6    1
     6     6    35    1
     7    35    36    1
     8    36    37   ar
     9    37    38   ar
    10    38    39   ar
    11    39    40    1
    12    39    41   ar
    13    41    42   ar
    14     6     7    1
    15     7     8    2
    16     7     9   am
    17     9    10    1
    18    10    11    1
    19    11    12    1
    20    12    13    1
    21    13    14   ar
    22    14    15   ar
    23    15    16   ar
    24    16    17    1
    25    16    18   ar
    26    18    19   ar
    27    19    20    1
    28    20    21    1
    29    21    22    1
    30    22    23    1
    31    23    24    1
    32    24    32    1
    33    32    33    1
    34    33    34    1
    35    24    25    1
    36    25    26    2
    37    25    27   am
    38    27    28    1
    39    27     2    1
    40    42    36   ar
    41    19    13   ar
    42    34    32    1
    43     5    29    1
    44     9    30    1
    45    23    31    1
@<TRIPOS>MOLECULE
*****
 42 45 0 0 0
SMALL
GASTEIGER

@<TRIPOS>ATOM
      1 C           2.1828    0.5518   30.0520 C.3     1  UNL1        0.0314
      2 C           2.5603    0.1768   28.6495 C.3     1  UNL1        0.1519
      3 C           3.6847   -0.7761   28.9283 C.2     1  UNL1        0.2409
      4 O           3.6977   -0.7321   30.4276 O.2     1  UNL1       -0.2733
      5 N           4.8045   -1.7443   28.6864 N.am    1  UNL1       -0.2967
      6 C           5.7848   -2.6110   27.9530 C.3     1  UNL1        0.1530
      7 C           6.5072   -3.2717   26.8165 C.2     1  UNL1        0.2407
      8 O           7.5004   -4.0944   27.5824 O.2     1  UNL1       -0.2733
      9 N           6.8847   -3.6467   25.4141 N.am    1  UNL1       -0.3030
     10 C           6.8717   -3.6907   23.9148 C.3     1  UNL1        0.0898
     11 C           6.4698   -3.3985   22.4994 C.3     1  UNL1        0.0260
     12 C           5.7274   -2.8052   21.3389 C.3     1  UNL1        0.0312
     13 C           4.7341   -1.9825   20.5730 C.ar    1  UNL1        0.0120
     14 C           5.4566   -2.6432   19.4365 C.ar    1  UNL1        0.0010
     15 C           5.0547   -2.3509   18.0213 C.ar    1  UNL1        0.0295
     16 C           3.9303   -1.3980   17.7425 C.ar    1  UNL1        0.1431
     17 F           3.5284   -1.1058   16.3271 F       1  UNL1       -0.2041
     18 C           3.2079   -0.7373   18.8789 C.ar    1  UNL1        0.0662
     19 C           3.6098   -1.0296   20.2942 C.ar    1  UNL1        0.1368
     20 O           2.4900   -0.0614   20.5361 O.3     1  UNL1       -0.4742
     21 C           1.5097    0.8054   21.2694 C.3     1  UNL1        0.2224
     22 C           0.7872    1.4661   22.4060 C.3     1  UNL1        0.1168
     23 N           0.4097    1.8410   23.8084 N.3     1  UNL1       -0.2882
     24 C           0.4228    1.8850   25.3077 C.3     1  UNL1        0.1317
     25 C           0.8247    1.5928   26.7230 C.2     1  UNL1        0.2403
     26 O          -0.1556    2.4595   27.4564 O.2     1  UNL1       -0.2734
     27 N           1.5671    0.9995   27.8836 N.am    1  UNL1       -0.2701
     28 C           0.8446    1.6602   29.0201 C.3     1  UNL1        0.1153
     29 H           5.0683   -1.9361   29.6153 H       1  UNL1        0.1499
     30 H           7.6227   -4.2721   25.5971 H       1  UNL1        0.1495
     31 H          -0.5733    1.5829   23.7222 H       1  UNL1        0.1237
     32 C          -0.6970    2.8532   25.5496 C.3     1  UNL1        0.0233
     33 C          -1.1746    4.2574   25.7740 C.3     1  UNL1        0.0019
     34 C          -2.1592    3.1262   25.7441 C.3     1  UNL1        0.0019
     35 C           6.5272   -3.2043   29.1136 C.3     1  UNL1        0.0553
     36 C           6.7800   -2.3813   30.3419 C.ar    1  UNL1       -0.0199
     37 C           6.1887   -2.7951   31.6568 C.ar    1  UNL1       -0.0019
     38 C           6.4415   -1.9721   32.8851 C.ar    1  UNL1        0.0293
     39 C           7.2856   -0.7351   32.7985 C.ar    1  UNL1        0.1401
     40 F           7.5385    0.0879   34.0268 F       1  UNL1       -0.2042
     41 C           7.8769   -0.3213   31.4835 C.ar    1  UNL1        0.0293
     42 C           7.6241   -1.1443   30.2552 C.ar    1  UNL1       -0.0019
@<TRIPOS>BOND
     1     2     1    1
     2     2     3    1
     3     3     4    2
     4     3     5   am
     5     5     6    1
     6     6    35    1
     7    35    36    1
     8    36    37   ar
     9    37    38   ar
    10    38    39   ar
    11    39    40    1
    12    39    41   ar
    13    41    42   ar
    14     6     7    1
    15     7     8    2
    16     7     9   am
    17     9    10    1
    18    10    11    1
    19    11    12    1
    20    12    13    1
    21    13    14   ar
    22    14    15   ar
    23    15    16   ar
    24    16    17    1
    25    16    18   ar
    26    18    19   ar
    27    19    20    1
    28    20    21    1
    29    21    22    1
    30    22    23    1
    31    23    24    1
    32    24    32    1
    33    32    33    1
    34    33    34    1
    35    24    25    1
    36    25    26    2
    37    25    27   am
    38    27    28    1
    39    27     2    1
    40    42    36   ar
    41    19    13   ar
    42    34    32    1
    43     5    29    1
    44     9    30    1
    45    23    31    1
