@<TRIPOS>MOLECULE
*****
 31 34 0 0 0
SMALL
GASTEIGER

@<TRIPOS>ATOM
      1 C          -4.3934  -17.9146   22.4428 C.3     1  UNL1        0.1166
      2 C          -3.1840  -18.0205   21.5620 C.ar    1  UNL1       -0.0162
      3 C          -1.7880  -17.4909   21.7059 C.ar    1  UNL1       -0.0041
      4 C          -0.7692  -17.7625   20.6391 C.ar    1  UNL1       -0.0003
      5 C          -1.1462  -18.5637   19.4284 C.ar    1  UNL1       -0.0003
      6 C          -2.5422  -19.0934   19.2845 C.ar    1  UNL1       -0.0045
      7 C          -3.5610  -18.8218   20.3513 C.ar    1  UNL1       -0.0240
      8 C          -5.0036  -19.2111   20.4839 C.3     1  UNL1        0.0464
      9 C          -5.5180  -18.6504   21.7766 C.3     1  UNL1        0.0888
     10 N          -5.2577  -15.9305   23.8804 N.am    1  UNL1       -0.3026
     11 C          -4.4656  -17.1986   23.7590 C.2     1  UNL1        0.2278
     12 O          -3.7459  -17.7506   24.9536 O.2     1  UNL1       -0.2747
     13 H          -5.7301  -15.5681   23.0964 H       1  UNL1        0.1495
     14 C          -5.3298  -15.2145   25.1965 C.3     1  UNL1        0.1067
     15 C          -6.1704  -15.7703   26.3075 C.3     1  UNL1        0.0937
     16 C          -8.3301  -15.1288   25.0136 C.3     1  UNL1        0.0897
     17 N          -7.6630  -15.8182   26.1668 N.3     1  UNL1       -0.2689
     18 C          -8.4886  -16.5556   27.1791 C.3     1  UNL1        0.0897
     19 N          -6.9123  -18.7994   22.3095 N.am    1  UNL1       -0.3001
     20 C          -7.8837  -17.6621   22.1969 C.2     1  UNL1        0.2636
     21 O          -7.4610  -16.3757   21.5514 O.2     1  UNL1       -0.2685
     22 H          -7.1897  -19.6437   22.7331 H       1  UNL1        0.1498
     23 C          -9.2780  -17.8111   22.7297 C.2     1  UNL1        0.1341
     24 C          -9.6677  -18.5174   23.9944 C.2     1  UNL1        0.0249
     25 C         -11.1579  -18.4227   24.1377 C.2     1  UNL1        0.0155
     26 C         -12.0997  -18.9341   25.1872 C.2     1  UNL1        0.0009
     27 C         -13.5727  -18.6807   25.0606 C.2     1  UNL1       -0.0041
     28 C         -14.1039  -17.9160   23.8846 C.2     1  UNL1       -0.0198
     29 C         -13.1621  -17.4046   22.8351 C.3     1  UNL1        0.0717
     30 C         -11.6891  -17.6580   22.9617 C.2     1  UNL1        0.0635
     31 N         -10.5272  -17.2800   22.0915 N.2     1  UNL1       -0.2448
@<TRIPOS>BOND
     1    16    17    1
     2    17    18    1
     3    17    15    1
     4    15    14    1
     5    14    10    1
     6    10    11   am
     7    11    12    2
     8     1    11    1
     9     1     2    1
    10     2     3   ar
    11     3     4   ar
    12     4     5   ar
    13     5     6   ar
    14     6     7   ar
    15     7     8    1
    16     8     9    1
    17     9    19    1
    18    19    20   am
    19    20    21    2
    20    20    23    1
    21    23    24    2
    22    24    25    1
    23    25    26    2
    24    26    27    1
    25    27    28    2
    26    28    29    1
    27    29    30    1
    28    30    31    2
    29     9     1    1
    30    31    23    1
    31     7     2   ar
    32    30    25    1
    33    10    13    1
    34    19    22    1
@<TRIPOS>MOLECULE
*****
 31 34 0 0 0
SMALL
GASTEIGER

@<TRIPOS>ATOM
      1 C          -4.3820  -17.9057   22.4847 C.3     1  UNL1        0.1166
      2 C          -3.1716  -18.0035   21.6041 C.ar    1  UNL1       -0.0162
      3 C          -1.7751  -17.4773   21.7555 C.ar    1  UNL1       -0.0041
      4 C          -0.7554  -17.7386   20.6870 C.ar    1  UNL1       -0.0003
      5 C          -1.1320  -18.5261   19.4671 C.ar    1  UNL1       -0.0003
      6 C          -2.5285  -19.0523   19.3158 C.ar    1  UNL1       -0.0045
      7 C          -3.5483  -18.7910   20.3843 C.ar    1  UNL1       -0.0240
      8 C          -4.9915  -19.1798   20.5110 C.3     1  UNL1        0.0464
      9 C          -5.5068  -18.6327   21.8091 C.3     1  UNL1        0.0888
     10 N          -5.2389  -15.9320   23.9409 N.am    1  UNL1       -0.3026
     11 C          -4.4548  -17.2040   23.8084 C.2     1  UNL1        0.2278
     12 O          -3.7437  -17.7741   24.9997 O.2     1  UNL1       -0.2747
     13 H          -5.7057  -15.5577   23.1591 H       1  UNL1        0.1495
     14 C          -5.3117  -15.2303   25.2647 C.3     1  UNL1        0.1067
     15 C          -6.1560  -15.7961   26.3679 C.3     1  UNL1        0.0937
     16 C          -8.4713  -16.6274   27.2038 C.3     1  UNL1        0.0897
     17 N          -7.6470  -15.8572   26.2151 N.3     1  UNL1       -0.2689
     18 C          -8.3137  -15.1483   25.0736 C.3     1  UNL1        0.0897
     19 N          -6.9018  -18.7856   22.3386 N.am    1  UNL1       -0.3001
     20 C          -7.8718  -17.6460   22.2369 C.2     1  UNL1        0.2636
     21 O          -7.4467  -16.3534   21.6056 O.2     1  UNL1       -0.2685
     22 H          -7.1808  -19.6340   22.7529 H       1  UNL1        0.1498
     23 C          -9.2669  -17.7990   22.7664 C.2     1  UNL1        0.1341
     24 C         -10.5118  -17.2368   22.1465 C.2     1  UNL1        0.0249
     25 C         -11.6763  -17.6314   23.0058 C.2     1  UNL1        0.0155
     26 C         -13.1470  -17.3609   22.8890 C.2     1  UNL1        0.0009
     27 C         -14.0925  -17.8963   23.9230 C.2     1  UNL1       -0.0041
     28 C         -13.5673  -18.7023   25.0739 C.2     1  UNL1       -0.0198
     29 C         -12.0966  -18.9729   25.1907 C.3     1  UNL1        0.0717
     30 C         -11.1511  -18.4374   24.1567 C.2     1  UNL1        0.0635
     31 N          -9.6620  -18.5410   24.0087 N.2     1  UNL1       -0.2448
@<TRIPOS>BOND
     1    16    17    1
     2    17    18    1
     3    17    15    1
     4    15    14    1
     5    14    10    1
     6    10    11   am
     7    11    12    2
     8     1    11    1
     9     1     2    1
    10     2     3   ar
    11     3     4   ar
    12     4     5   ar
    13     5     6   ar
    14     6     7   ar
    15     7     8    1
    16     8     9    1
    17     9    19    1
    18    19    20   am
    19    20    21    2
    20    20    23    1
    21    23    24    2
    22    24    25    1
    23    25    26    2
    24    26    27    1
    25    27    28    2
    26    28    29    1
    27    29    30    1
    28    30    31    2
    29     9     1    1
    30    31    23    1
    31     7     2   ar
    32    30    25    1
    33    10    13    1
    34    19    22    1
@<TRIPOS>MOLECULE
*****
 31 34 0 0 0
SMALL
GASTEIGER

@<TRIPOS>ATOM
      1 C         -15.3128   -6.6594   19.0320 C.3     1  UNL1        0.1166
      2 C         -15.7698   -8.0672   18.7891 C.ar    1  UNL1       -0.0162
      3 C         -15.0478   -9.2858   18.2954 C.ar    1  UNL1       -0.0041
      4 C         -15.7825  -10.5855   18.1504 C.ar    1  UNL1       -0.0003
      5 C         -17.2392  -10.6665   18.4991 C.ar    1  UNL1       -0.0003
      6 C         -17.9612   -9.4480   18.9927 C.ar    1  UNL1       -0.0045
      7 C         -17.2265   -8.1483   19.1377 C.ar    1  UNL1       -0.0240
      8 C         -17.6696   -6.7906   19.5961 C.3     1  UNL1        0.0464
      9 C         -16.4869   -5.8703   19.5308 C.3     1  UNL1        0.0888
     10 N         -13.4752   -5.7519   17.4350 N.am    1  UNL1       -0.3026
     11 C         -13.9251   -6.1330   18.8144 C.2     1  UNL1        0.2278
     12 O         -12.9873   -5.9876   19.9759 O.2     1  UNL1       -0.2747
     13 H         -14.0907   -5.8474   16.6726 H       1  UNL1        0.1495
     14 C         -12.0876   -5.2255   17.2174 C.3     1  UNL1        0.1067
     15 C         -10.9273   -6.1740   17.1527 C.3     1  UNL1        0.0937
     16 C          -9.5025   -7.6930   18.7060 C.3     1  UNL1        0.0897
     17 N         -10.0233   -6.3350   18.3388 N.3     1  UNL1       -0.2689
     18 C          -9.6402   -5.1381   19.1578 C.3     1  UNL1        0.0897
     19 N         -16.4796   -4.4164   19.8996 N.am    1  UNL1       -0.3001
     20 C         -16.2731   -3.3749   18.8400 C.2     1  UNL1        0.2636
     21 O         -16.0739   -3.7874   17.4116 O.2     1  UNL1       -0.2685
     22 H         -16.6103   -4.1456   20.8370 H       1  UNL1        0.1498
     23 C         -16.2657   -1.9210   19.2088 C.2     1  UNL1        0.1341
     24 C         -15.3233   -0.8815   18.6782 C.2     1  UNL1        0.0249
     25 C         -15.6747    0.4307   19.3143 C.2     1  UNL1        0.0155
     26 C         -15.0886    1.8040   19.1718 C.2     1  UNL1        0.0009
     27 C         -15.6620    2.9489   19.9530 C.2     1  UNL1       -0.0041
     28 C         -16.8216    2.7205   20.8767 C.2     1  UNL1       -0.0198
     29 C         -17.4077    1.3472   21.0192 C.3     1  UNL1        0.0717
     30 C         -16.8343    0.2022   20.2381 C.2     1  UNL1        0.0635
     31 N         -17.1995   -1.2511   20.1728 N.2     1  UNL1       -0.2448
@<TRIPOS>BOND
     1    16    17    1
     2    17    18    1
     3    17    15    1
     4    15    14    1
     5    14    10    1
     6    10    11   am
     7    11    12    2
     8     1    11    1
     9     1     2    1
    10     2     3   ar
    11     3     4   ar
    12     4     5   ar
    13     5     6   ar
    14     6     7   ar
    15     7     8    1
    16     8     9    1
    17     9    19    1
    18    19    20   am
    19    20    21    2
    20    20    23    1
    21    23    24    2
    22    24    25    1
    23    25    26    2
    24    26    27    1
    25    27    28    2
    26    28    29    1
    27    29    30    1
    28    30    31    2
    29     9     1    1
    30    31    23    1
    31     7     2   ar
    32    30    25    1
    33    10    13    1
    34    19    22    1
@<TRIPOS>MOLECULE
*****
 31 34 0 0 0
SMALL
GASTEIGER

@<TRIPOS>ATOM
      1 C           4.0034    1.0831   34.6902 C.3     1  UNL1        0.1166
      2 C           3.5363    1.6307   36.0062 C.ar    1  UNL1       -0.0162
      3 C           2.5593    2.7150   36.3522 C.ar    1  UNL1       -0.0041
      4 C           2.2883    3.0498   37.7890 C.ar    1  UNL1       -0.0003
      5 C           2.9943    2.3004   38.8798 C.ar    1  UNL1       -0.0003
      6 C           3.9713    1.2161   38.5338 C.ar    1  UNL1       -0.0045
      7 C           4.2423    0.8813   37.0970 C.ar    1  UNL1       -0.0240
      8 C           5.1458   -0.1296   36.4551 C.3     1  UNL1        0.0464
      9 C           4.9981   -0.0048   34.9676 C.3     1  UNL1        0.0888
     10 N           2.0962    1.7663   33.0634 N.am    1  UNL1       -0.3026
     11 C           3.5545    1.5427   33.3347 C.2     1  UNL1        0.2278
     12 O           4.5638    1.7787   32.2506 O.2     1  UNL1       -0.2747
     13 H           1.4337    1.6113   33.7750 H       1  UNL1        0.1495
     14 C           1.6474    2.2259   31.7080 C.3     1  UNL1        0.1067
     15 C           0.6926    1.3881   30.9102 C.3     1  UNL1        0.0937
     16 C           2.4396   -0.4727   30.4244 C.3     1  UNL1        0.0897
     17 N           1.2133    0.2940   30.0260 N.3     1  UNL1       -0.2689
     18 C           0.5078   -0.0335   28.7434 C.3     1  UNL1        0.0897
     19 N           5.7186   -0.8242   33.9383 N.am    1  UNL1       -0.3001
     20 C           5.0495   -2.0205   33.3292 C.2     1  UNL1        0.2636
     21 O           3.6598   -2.3976   33.7494 O.2     1  UNL1       -0.2685
     22 H           6.6307   -0.5767   33.6625 H       1  UNL1        0.1498
     23 C           5.7700   -2.8398   32.2999 C.2     1  UNL1        0.1341
     24 C           6.0555   -2.4270   30.8863 C.2     1  UNL1        0.0249
     25 C           6.7935   -3.5479   30.2162 C.2     1  UNL1        0.0155
     26 C           7.3322   -3.7047   28.8251 C.2     1  UNL1        0.0009
     27 C           8.0415   -4.9670   28.4334 C.2     1  UNL1       -0.0041
     28 C           8.2121   -6.0725   29.4327 C.2     1  UNL1       -0.0198
     29 C           7.6734   -5.9157   30.8238 C.3     1  UNL1        0.0717
     30 C           6.9641   -4.6534   31.2156 C.2     1  UNL1        0.0635
     31 N           6.3316   -4.2158   32.5033 N.2     1  UNL1       -0.2448
@<TRIPOS>BOND
     1    16    17    1
     2    17    18    1
     3    17    15    1
     4    15    14    1
     5    14    10    1
     6    10    11   am
     7    11    12    2
     8     1    11    1
     9     1     2    1
    10     2     3   ar
    11     3     4   ar
    12     4     5   ar
    13     5     6   ar
    14     6     7   ar
    15     7     8    1
    16     8     9    1
    17     9    19    1
    18    19    20   am
    19    20    21    2
    20    20    23    1
    21    23    24    2
    22    24    25    1
    23    25    26    2
    24    26    27    1
    25    27    28    2
    26    28    29    1
    27    29    30    1
    28    30    31    2
    29     9     1    1
    30    31    23    1
    31     7     2   ar
    32    30    25    1
    33    10    13    1
    34    19    22    1
@<TRIPOS>MOLECULE
*****
 31 34 0 0 0
SMALL
GASTEIGER

@<TRIPOS>ATOM
      1 C           3.9486    1.0704   34.6904 C.3     1  UNL1        0.1166
      2 C           3.5682    1.6478   36.0215 C.ar    1  UNL1       -0.0162
      3 C           2.5495    2.6760   36.4153 C.ar    1  UNL1       -0.0041
      4 C           2.3912    3.0613   37.8563 C.ar    1  UNL1       -0.0003
      5 C           3.2516    2.4184   38.9034 C.ar    1  UNL1       -0.0003
      6 C           4.2702    1.3902   38.5096 C.ar    1  UNL1       -0.0045
      7 C           4.4285    1.0049   37.0686 C.ar    1  UNL1       -0.0240
      8 C           5.3407    0.0302   36.3846 C.3     1  UNL1        0.0464
      9 C           5.0441    0.0706   34.9148 C.3     1  UNL1        0.0888
     10 N           1.8609    1.6517   33.2573 N.am    1  UNL1       -0.3026
     11 C           3.3404    1.4296   33.3672 C.2     1  UNL1        0.2278
     12 O           4.2114    1.5669   32.1538 O.2     1  UNL1       -0.2747
     13 H           1.2891    1.5616   34.0537 H       1  UNL1        0.1495
     14 C           1.2526    2.0110   31.9341 C.3     1  UNL1        0.1067
     15 C           0.8126    3.4202   31.6689 C.3     1  UNL1        0.0937
     16 C           0.5086    4.9999   33.7091 C.3     1  UNL1        0.0897
     17 N           1.3166    4.5383   32.5325 N.3     1  UNL1       -0.2689
     18 C           2.6285    5.1948   32.2196 C.3     1  UNL1        0.0897
     19 N           5.7236   -0.7455   33.8555 N.am    1  UNL1       -0.3001
     20 C           5.0834   -2.0057   33.3536 C.2     1  UNL1        0.2636
     21 O           3.7635   -2.4499   33.9110 O.2     1  UNL1       -0.2685
     22 H           6.5899   -0.4540   33.4896 H       1  UNL1        0.1498
     23 C           5.7629   -2.8217   32.2942 C.2     1  UNL1        0.1341
     24 C           6.0170   -2.3938   30.8791 C.2     1  UNL1        0.0249
     25 C           6.7188   -3.5166   30.1742 C.2     1  UNL1        0.0155
     26 C           7.2174   -3.6624   28.7671 C.2     1  UNL1        0.0009
     27 C           7.8958   -4.9301   28.3394 C.2     1  UNL1       -0.0041
     28 C           8.0755   -6.0518   29.3188 C.2     1  UNL1       -0.0198
     29 C           7.5769   -5.9060   30.7260 C.3     1  UNL1        0.0717
     30 C           6.8985   -4.6384   31.1537 C.2     1  UNL1        0.0635
     31 N           6.3078   -4.2089   32.4638 N.2     1  UNL1       -0.2448
@<TRIPOS>BOND
     1    16    17    1
     2    17    18    1
     3    17    15    1
     4    15    14    1
     5    14    10    1
     6    10    11   am
     7    11    12    2
     8     1    11    1
     9     1     2    1
    10     2     3   ar
    11     3     4   ar
    12     4     5   ar
    13     5     6   ar
    14     6     7   ar
    15     7     8    1
    16     8     9    1
    17     9    19    1
    18    19    20   am
    19    20    21    2
    20    20    23    1
    21    23    24    2
    22    24    25    1
    23    25    26    2
    24    26    27    1
    25    27    28    2
    26    28    29    1
    27    29    30    1
    28    30    31    2
    29     9     1    1
    30    31    23    1
    31     7     2   ar
    32    30    25    1
    33    10    13    1
    34    19    22    1
@<TRIPOS>MOLECULE
*****
 31 34 0 0 0
SMALL
GASTEIGER

@<TRIPOS>ATOM
      1 C           3.1714   -0.6079   23.0461 C.3     1  UNL1        0.1166
      2 C           2.3992    0.2021   22.0474 C.ar    1  UNL1       -0.0162
      3 C           1.7194    1.5355   22.1470 C.ar    1  UNL1       -0.0041
      4 C           1.0096    2.1063   20.9552 C.ar    1  UNL1       -0.0003
      5 C           0.9796    1.3438   19.6639 C.ar    1  UNL1       -0.0003
      6 C           1.6594    0.0104   19.5642 C.ar    1  UNL1       -0.0045
      7 C           2.3691   -0.5604   20.7560 C.ar    1  UNL1       -0.0240
      8 C           3.1229   -1.8417   20.9567 C.3     1  UNL1        0.0464
      9 C           3.6187   -1.8711   22.3720 C.3     1  UNL1        0.0888
     10 N           2.3230    0.2155   25.3596 N.am    1  UNL1       -0.3026
     11 C           3.4479   -0.2224   24.4691 C.2     1  UNL1        0.2278
     12 O           4.8491   -0.2748   25.0017 O.2     1  UNL1       -0.2747
     13 H           1.4032    0.2499   25.0101 H       1  UNL1        0.1495
     14 C           2.5994    0.6010   26.7827 C.3     1  UNL1        0.1067
     15 C           2.7708   -0.4613   27.8276 C.3     1  UNL1        0.0937
     16 C           0.4393   -0.2061   28.9454 C.3     1  UNL1        0.0897
     17 N           1.9157   -0.4460   29.0599 N.3     1  UNL1       -0.2689
     18 C           2.5367   -0.6706   30.4067 C.3     1  UNL1        0.0897
     19 N           4.4210   -2.9705   23.0026 N.am    1  UNL1       -0.3001
     20 C           5.8992   -3.0531   22.7619 C.2     1  UNL1        0.2636
     21 O           6.5753   -2.0363   21.8906 O.2     1  UNL1       -0.2685
     22 H           3.9773   -3.6379   23.5744 H       1  UNL1        0.1498
     23 C           6.7015   -4.1526   23.3925 C.2     1  UNL1        0.1341
     24 C           6.8329   -4.4160   24.8634 C.2     1  UNL1        0.0249
     25 C           7.7258   -5.6079   25.0428 C.2     1  UNL1        0.0155
     26 C           8.2104   -6.3234   26.2688 C.2     1  UNL1        0.0009
     27 C           9.1154   -7.5121   26.1349 C.2     1  UNL1       -0.0041
     28 C           9.5358   -7.9853   24.7750 C.2     1  UNL1       -0.0198
     29 C           9.0512   -7.2698   23.5490 C.3     1  UNL1        0.0717
     30 C           8.1462   -6.0811   23.6829 C.2     1  UNL1        0.0635
     31 N           7.5131   -5.1816   22.6629 N.2     1  UNL1       -0.2448
@<TRIPOS>BOND
     1    16    17    1
     2    17    18    1
     3    17    15    1
     4    15    14    1
     5    14    10    1
     6    10    11   am
     7    11    12    2
     8     1    11    1
     9     1     2    1
    10     2     3   ar
    11     3     4   ar
    12     4     5   ar
    13     5     6   ar
    14     6     7   ar
    15     7     8    1
    16     8     9    1
    17     9    19    1
    18    19    20   am
    19    20    21    2
    20    20    23    1
    21    23    24    2
    22    24    25    1
    23    25    26    2
    24    26    27    1
    25    27    28    2
    26    28    29    1
    27    29    30    1
    28    30    31    2
    29     9     1    1
    30    31    23    1
    31     7     2   ar
    32    30    25    1
    33    10    13    1
    34    19    22    1
@<TRIPOS>MOLECULE
*****
 31 34 0 0 0
SMALL
GASTEIGER

@<TRIPOS>ATOM
      1 C           2.6529   -0.1770   24.0216 C.3     1  UNL1        0.1166
      2 C           2.5877   -0.2071   22.5233 C.ar    1  UNL1       -0.0162
      3 C           1.8874    0.6734   21.5312 C.ar    1  UNL1       -0.0041
      4 C           2.0074    0.3920   20.0628 C.ar    1  UNL1       -0.0003
      5 C           2.8278   -0.7699   19.5864 C.ar    1  UNL1       -0.0003
      6 C           3.5281   -1.6504   20.5784 C.ar    1  UNL1       -0.0045
      7 C           3.4081   -1.3690   22.0469 C.ar    1  UNL1       -0.0240
      8 C           3.9803   -2.0570   23.2508 C.3     1  UNL1        0.0464
      9 C           3.5135   -1.3203   24.4712 C.3     1  UNL1        0.0888
     10 N           0.5413    0.6257   25.3051 N.am    1  UNL1       -0.3026
     11 C           1.9762    0.8212   24.9136 C.2     1  UNL1        0.2278
     12 O           2.7341    2.0148   25.4142 O.2     1  UNL1       -0.2747
     13 H           0.0438   -0.1577   24.9765 H       1  UNL1        0.1495
     14 C          -0.1354    1.6239   26.1971 C.3     1  UNL1        0.1067
     15 C           0.1110    1.5958   27.6764 C.3     1  UNL1        0.0937
     16 C          -1.1337   -0.4004   28.7793 C.3     1  UNL1        0.0897
     17 N           0.1470    0.2856   28.4060 N.3     1  UNL1       -0.2689
     18 C           1.4637   -0.3385   28.7621 C.3     1  UNL1        0.0897
     19 N           3.8486   -1.6662   25.8918 N.am    1  UNL1       -0.3001
     20 C           5.0852   -1.1049   26.5287 C.2     1  UNL1        0.2636
     21 O           5.9869   -0.1978   25.7450 O.2     1  UNL1       -0.2685
     22 H           3.2568   -2.2616   26.4062 H       1  UNL1        0.1498
     23 C           5.4203   -1.4508   27.9493 C.2     1  UNL1        0.1341
     24 C           6.1741   -2.6643   28.4070 C.2     1  UNL1        0.0249
     25 C           6.2800   -2.6074   29.9022 C.2     1  UNL1        0.0155
     26 C           6.9143   -3.5312   30.8993 C.2     1  UNL1        0.0009
     27 C           6.8603   -3.2064   32.3627 C.2     1  UNL1       -0.0041
     28 C           6.1720   -1.9579   32.8290 C.2     1  UNL1       -0.0198
     29 C           5.5378   -1.0341   31.8320 C.3     1  UNL1        0.0717
     30 C           5.5917   -1.3588   30.3686 C.2     1  UNL1        0.0635
     31 N           5.0604   -0.6441   29.1616 N.2     1  UNL1       -0.2448
@<TRIPOS>BOND
     1    16    17    1
     2    17    18    1
     3    17    15    1
     4    15    14    1
     5    14    10    1
     6    10    11   am
     7    11    12    2
     8     1    11    1
     9     1     2    1
    10     2     3   ar
    11     3     4   ar
    12     4     5   ar
    13     5     6   ar
    14     6     7   ar
    15     7     8    1
    16     8     9    1
    17     9    19    1
    18    19    20   am
    19    20    21    2
    20    20    23    1
    21    23    24    2
    22    24    25    1
    23    25    26    2
    24    26    27    1
    25    27    28    2
    26    28    29    1
    27    29    30    1
    28    30    31    2
    29     9     1    1
    30    31    23    1
    31     7     2   ar
    32    30    25    1
    33    10    13    1
    34    19    22    1
@<TRIPOS>MOLECULE
*****
 31 34 0 0 0
SMALL
GASTEIGER

@<TRIPOS>ATOM
      1 C           2.4307   -0.2456   28.8733 C.3     1  UNL1        0.1166
      2 C           2.8557    0.1408   30.2590 C.ar    1  UNL1       -0.0162
      3 C           2.1563    0.8979   31.3488 C.ar    1  UNL1       -0.0041
      4 C           2.8472    1.1364   32.6586 C.ar    1  UNL1       -0.0003
      5 C           4.2374    0.6179   32.8787 C.ar    1  UNL1       -0.0003
      6 C           4.9368   -0.1392   31.7889 C.ar    1  UNL1       -0.0045
      7 C           4.2459   -0.3777   30.4790 C.ar    1  UNL1       -0.0240
      8 C           4.6801   -1.0846   29.2293 C.3     1  UNL1        0.0464
      9 C           3.5583   -1.0030   28.2369 C.3     1  UNL1        0.0888
     10 N           1.0581    0.9107   26.9947 N.am    1  UNL1       -0.3026
     11 C           1.1100    0.0699   28.2359 C.2     1  UNL1        0.2278
     12 O          -0.1586   -0.4553   28.8396 O.2     1  UNL1       -0.2747
     13 H           1.8908    1.2554   26.5985 H       1  UNL1        0.1495
     14 C          -0.2626    1.2262   26.3573 C.3     1  UNL1        0.1067
     15 C          -0.4063    2.4436   25.4929 C.3     1  UNL1        0.0937
     16 C           1.6854    3.6762   24.5677 C.3     1  UNL1        0.0897
     17 N           0.5684    2.6925   24.3802 N.3     1  UNL1       -0.2689
     18 C           0.4263    1.9579   23.0802 C.3     1  UNL1        0.0897
     19 N           3.5632   -1.5778   26.8514 N.am    1  UNL1       -0.3001
     20 C           3.8113   -0.6868   25.6706 C.2     1  UNL1        0.2636
     21 O           4.0546    0.7792   25.8753 O.2     1  UNL1       -0.2685
     22 H           3.4035   -2.5400   26.7171 H       1  UNL1        0.1498
     23 C           3.8162   -1.2616   24.2851 C.2     1  UNL1        0.1341
     24 C           3.1128   -0.6888   23.0904 C.2     1  UNL1        0.0249
     25 C           3.3873   -1.5834   21.9180 C.2     1  UNL1        0.0155
     26 C           2.9550   -1.5184   20.4832 C.2     1  UNL1        0.0009
     27 C           3.3957   -2.5789   19.5184 C.2     1  UNL1       -0.0041
     28 C           4.2687   -3.7045   19.9885 C.2     1  UNL1       -0.0198
     29 C           4.7010   -3.7695   21.4233 C.3     1  UNL1        0.0717
     30 C           4.2603   -2.7089   22.3881 C.2     1  UNL1        0.0635
     31 N           4.5254   -2.5100   23.8510 N.2     1  UNL1       -0.2448
@<TRIPOS>BOND
     1    16    17    1
     2    17    18    1
     3    17    15    1
     4    15    14    1
     5    14    10    1
     6    10    11   am
     7    11    12    2
     8     1    11    1
     9     1     2    1
    10     2     3   ar
    11     3     4   ar
    12     4     5   ar
    13     5     6   ar
    14     6     7   ar
    15     7     8    1
    16     8     9    1
    17     9    19    1
    18    19    20   am
    19    20    21    2
    20    20    23    1
    21    23    24    2
    22    24    25    1
    23    25    26    2
    24    26    27    1
    25    27    28    2
    26    28    29    1
    27    29    30    1
    28    30    31    2
    29     9     1    1
    30    31    23    1
    31     7     2   ar
    32    30    25    1
    33    10    13    1
    34    19    22    1
@<TRIPOS>MOLECULE
*****
 31 34 0 0 0
SMALL
GASTEIGER

@<TRIPOS>ATOM
      1 C           1.6117    1.0791   19.2204 C.3     1  UNL1        0.1166
      2 C           2.6489    0.1288   18.6994 C.ar    1  UNL1       -0.0162
      3 C           3.5328    0.1732   17.4884 C.ar    1  UNL1       -0.0041
      4 C           4.4941   -0.9465   17.2201 C.ar    1  UNL1       -0.0003
      5 C           4.5714   -2.1107   18.1628 C.ar    1  UNL1       -0.0003
      6 C           3.6875   -2.1551   19.3738 C.ar    1  UNL1       -0.0045
      7 C           2.7262   -1.0353   19.6421 C.ar    1  UNL1       -0.0240
      8 C           1.7369   -0.8045   20.7457 C.3     1  UNL1        0.0464
      9 C           1.0481    0.5022   20.4851 C.3     1  UNL1        0.0888
     10 N          -0.1201    2.4984   17.9025 N.am    1  UNL1       -0.3026
     11 C           1.2090    2.3781   18.5877 C.2     1  UNL1        0.2278
     12 O           2.1350    3.5568   18.6401 O.2     1  UNL1       -0.2747
     13 H          -0.7279    1.7247   17.8680 H       1  UNL1        0.1495
     14 C          -0.5228    3.7974   17.2698 C.3     1  UNL1        0.1067
     15 C          -1.9358    4.0011   16.8096 C.3     1  UNL1        0.0937
     16 C          -2.7542    4.5588   19.2116 C.3     1  UNL1        0.0897
     17 N          -3.0454    4.0968   17.8145 N.3     1  UNL1       -0.2689
     18 C          -4.4461    3.7305   17.4223 C.3     1  UNL1        0.0897
     19 N          -0.0173    1.1231   21.3392 N.am    1  UNL1       -0.3001
     20 C           0.3599    2.0782   22.4325 C.2     1  UNL1        0.2636
     21 O           1.8025    2.4125   22.6718 O.2     1  UNL1       -0.2685
     22 H          -0.9641    0.9037   21.1821 H       1  UNL1        0.1498
     23 C          -0.7055    2.6991   23.2866 C.2     1  UNL1        0.1341
     24 C          -0.8088    2.5980   24.7797 C.2     1  UNL1        0.0249
     25 C          -2.0218    3.3665   25.2135 C.2     1  UNL1        0.0155
     26 C          -2.6213    3.6162   26.5656 C.2     1  UNL1        0.0009
     27 C          -3.8671    4.4418   26.6928 C.2     1  UNL1       -0.0041
     28 C          -4.5134    5.0179   25.4678 C.2     1  UNL1       -0.0198
     29 C          -3.9139    4.7682   24.1157 C.3     1  UNL1        0.0717
     30 C          -2.6682    3.9425   23.9885 C.2     1  UNL1        0.0635
     31 N          -1.8546    3.5300   22.7977 N.2     1  UNL1       -0.2448
@<TRIPOS>BOND
     1    16    17    1
     2    17    18    1
     3    17    15    1
     4    15    14    1
     5    14    10    1
     6    10    11   am
     7    11    12    2
     8     1    11    1
     9     1     2    1
    10     2     3   ar
    11     3     4   ar
    12     4     5   ar
    13     5     6   ar
    14     6     7   ar
    15     7     8    1
    16     8     9    1
    17     9    19    1
    18    19    20   am
    19    20    21    2
    20    20    23    1
    21    23    24    2
    22    24    25    1
    23    25    26    2
    24    26    27    1
    25    27    28    2
    26    28    29    1
    27    29    30    1
    28    30    31    2
    29     9     1    1
    30    31    23    1
    31     7     2   ar
    32    30    25    1
    33    10    13    1
    34    19    22    1
