@<TRIPOS>MOLECULE
*****
 31 33 0 0 0
SMALL
GASTEIGER

@<TRIPOS>ATOM
      1 C          -6.0901  -15.3759   23.8412 C.2     1  UNL1        0.2270
      2 O          -6.9863  -15.3764   22.6384 O.2     1  UNL1       -0.2748
      3 N          -6.6754  -15.5379   25.2127 N.am    1  UNL1       -0.2794
      4 C          -5.9089  -15.5570   26.5019 C.3     1  UNL1        0.0935
      5 C          -6.8898  -15.7402   27.6218 C.3     1  UNL1        0.0233
      6 C          -8.2627  -15.8343   27.0247 C.3     1  UNL1        0.0233
      7 C          -8.1302  -15.7093   25.5358 C.3     1  UNL1        0.0949
      8 C          -4.6085  -15.2134   23.6725 C.3     1  UNL1        0.1010
      9 N          -2.8674  -15.8935   21.8681 N.3     1  UNL1       -0.3215
     10 C          -3.8131  -16.2728   22.9689 C.3     1  UNL1        0.0644
     11 H          -2.8918  -14.8829   21.7320 H       1  UNL1        0.1188
     12 H          -3.1461  -16.3596   21.0047 H       1  UNL1        0.1188
     13 C          -3.9634  -17.7114   23.3660 C.3     1  UNL1        0.0447
     14 C          -4.5260  -18.7036   22.3918 C.ar    1  UNL1        0.0090
     15 C          -6.0113  -18.8691   22.2633 C.ar    1  UNL1        0.0300
     16 C          -6.5739  -19.8613   21.2892 C.ar    1  UNL1        0.1672
     17 F          -8.0592  -20.0268   21.1607 F       1  UNL1       -0.2018
     18 C          -5.6512  -20.6879   20.4434 C.ar    1  UNL1        0.1696
     19 F          -6.2139  -21.6801   19.4691 F       1  UNL1       -0.2017
     20 C          -4.1660  -20.5224   20.5718 C.ar    1  UNL1        0.0612
     21 C          -3.6034  -19.5302   21.5460 C.ar    1  UNL1        0.1386
     22 F          -2.1180  -19.3646   21.6744 F       1  UNL1       -0.2044
     23 C          -9.2549  -15.7487   24.5442 C.3     1  UNL1        0.1091
     24 N          -9.4547  -16.9615   23.6844 N.am    1  UNL1       -0.3027
     25 C         -10.6384  -17.0437   22.7668 C.2     1  UNL1        0.2220
     26 O         -11.6224  -15.9129   22.7089 O.2     1  UNL1       -0.2751
     27 H          -8.8089  -17.7036   23.7224 H       1  UNL1        0.1495
     28 C         -10.8382  -18.2565   21.9070 C.3     1  UNL1        0.0765
     29 C         -10.9306  -18.5067   20.4310 C.3     1  UNL1        0.0091
     30 C         -11.1206  -19.9716   20.6912 C.3     1  UNL1        0.0010
     31 C         -11.0282  -19.7215   22.1673 C.3     1  UNL1        0.0091
@<TRIPOS>BOND
     1    10     9    1
     2    10     8    1
     3     8     1    1
     4     1     2    2
     5     1     3   am
     6     3     4    1
     7     4     5    1
     8     5     6    1
     9     6     7    1
    10     7    23    1
    11    23    24    1
    12    24    25   am
    13    25    26    2
    14    25    28    1
    15    28    29    1
    16    29    30    1
    17    30    31    1
    18    10    13    1
    19    13    14    1
    20    14    15   ar
    21    15    16   ar
    22    16    17    1
    23    16    18   ar
    24    18    19    1
    25    18    20   ar
    26    20    21   ar
    27    21    22    1
    28     7     3    1
    29    31    28    1
    30    21    14   ar
    31     9    11    1
    32     9    12    1
    33    24    27    1
@<TRIPOS>MOLECULE
*****
 31 33 0 0 0
SMALL
GASTEIGER

@<TRIPOS>ATOM
      1 C          -8.2771  -15.9737   23.6384 C.2     1  UNL1        0.2270
      2 O          -7.5211  -16.0317   22.3442 O.2     1  UNL1       -0.2748
      3 N          -7.5421  -15.7524   24.9271 N.am    1  UNL1       -0.2794
      4 C          -8.1596  -15.6716   26.2917 C.3     1  UNL1        0.0935
      5 C          -7.0597  -15.4423   27.2854 C.3     1  UNL1        0.0233
      6 C          -5.7623  -15.3814   26.5349 C.3     1  UNL1        0.0233
      7 C          -6.0605  -15.5731   25.0774 C.3     1  UNL1        0.0949
      8 C          -9.7681  -16.1371   23.6440 C.3     1  UNL1        0.1010
      9 N         -11.1498  -15.8544   21.4619 N.3     1  UNL1       -0.3215
     10 C         -10.4611  -16.7397   22.4579 C.3     1  UNL1        0.0644
     11 H         -11.0478  -14.8800   21.7456 H       1  UNL1        0.1188
     12 H         -12.1402  -16.0948   21.4211 H       1  UNL1        0.1188
     13 C         -10.4654  -18.2276   22.2678 C.3     1  UNL1        0.0447
     14 C          -9.3042  -18.9016   21.5989 C.ar    1  UNL1        0.0090
     15 C          -8.1043  -19.3032   22.4045 C.ar    1  UNL1        0.0300
     16 C          -6.9432  -19.9772   21.7355 C.ar    1  UNL1        0.1672
     17 F          -5.7433  -20.3789   22.5411 F       1  UNL1       -0.2018
     18 C          -6.9820  -20.2495   20.2609 C.ar    1  UNL1        0.1696
     19 F          -5.8208  -20.9235   19.5920 F       1  UNL1       -0.2017
     20 C          -8.1818  -19.8479   19.4553 C.ar    1  UNL1        0.0612
     21 C          -9.3429  -19.1739   20.1243 C.ar    1  UNL1        0.1386
     22 F         -10.5428  -18.7723   19.3187 F       1  UNL1       -0.2044
     23 C          -5.0537  -15.5836   23.9655 C.3     1  UNL1        0.1091
     24 N          -4.7205  -16.8688   23.2675 N.am    1  UNL1       -0.3027
     25 C          -3.5648  -16.9262   22.3130 C.2     1  UNL1        0.2220
     26 O          -2.7423  -15.6983   22.0565 O.2     1  UNL1       -0.2751
     27 H          -5.2604  -17.6747   23.4358 H       1  UNL1        0.1495
     28 C          -3.2316  -18.2115   21.6150 C.3     1  UNL1        0.0765
     29 C          -3.4994  -18.7787   20.2525 C.3     1  UNL1        0.0091
     30 C          -2.7605  -20.0290   20.6279 C.3     1  UNL1        0.0010
     31 C          -2.4927  -19.4617   21.9904 C.3     1  UNL1        0.0091
@<TRIPOS>BOND
     1    10     9    1
     2    10     8    1
     3     8     1    1
     4     1     2    2
     5     1     3   am
     6     3     4    1
     7     4     5    1
     8     5     6    1
     9     6     7    1
    10     7    23    1
    11    23    24    1
    12    24    25   am
    13    25    26    2
    14    25    28    1
    15    28    29    1
    16    29    30    1
    17    30    31    1
    18    10    13    1
    19    13    14    1
    20    14    15   ar
    21    15    16   ar
    22    16    17    1
    23    16    18   ar
    24    18    19    1
    25    18    20   ar
    26    20    21   ar
    27    21    22    1
    28     7     3    1
    29    31    28    1
    30    21    14   ar
    31     9    11    1
    32     9    12    1
    33    24    27    1
@<TRIPOS>MOLECULE
*****
 31 33 0 0 0
SMALL
GASTEIGER

@<TRIPOS>ATOM
      1 C          -7.9265  -18.3431   21.0437 C.2     1  UNL1        0.2270
      2 O          -7.2761  -17.1391   21.6579 O.2     1  UNL1       -0.2748
      3 N          -9.3965  -18.5775   21.2282 N.am    1  UNL1       -0.2794
      4 C         -10.1816  -19.7306   20.6767 C.3     1  UNL1        0.0935
      5 C         -11.6098  -19.5658   21.1043 C.3     1  UNL1        0.0233
      6 C         -11.7075  -18.3108   21.9202 C.3     1  UNL1        0.0233
      7 C         -10.3396  -17.7001   21.9967 C.3     1  UNL1        0.0949
      8 C          -7.1069  -19.3127   20.2449 C.3     1  UNL1        0.1010
      9 N          -6.5524  -20.8629   22.2548 N.3     1  UNL1       -0.3215
     10 C          -6.1661  -20.2511   20.9409 C.3     1  UNL1        0.0644
     11 H          -7.4795  -20.5333   22.5237 H       1  UNL1        0.1188
     12 H          -5.8753  -20.5923   22.9680 H       1  UNL1        0.1188
     13 C          -4.8389  -20.5776   20.3229 C.3     1  UNL1        0.0447
     14 C          -3.7444  -19.5518   20.3109 C.ar    1  UNL1        0.0090
     15 C          -3.1613  -19.0925   19.0075 C.ar    1  UNL1        0.0300
     16 C          -2.0669  -18.0667   18.9955 C.ar    1  UNL1        0.1672
     17 F          -1.4837  -17.6074   17.6920 F       1  UNL1       -0.2018
     18 C          -1.5557  -17.5004   20.2869 C.ar    1  UNL1        0.1696
     19 F          -0.4612  -16.4746   20.2749 F       1  UNL1       -0.2017
     20 C          -2.1388  -17.9597   21.5904 C.ar    1  UNL1        0.0612
     21 C          -3.2332  -18.9854   21.6023 C.ar    1  UNL1        0.1386
     22 F          -3.8164  -19.4448   22.9058 F       1  UNL1       -0.2044
     23 C          -9.9783  -16.4341   22.7156 C.3     1  UNL1        0.1091
     24 N          -9.3998  -16.4955   24.0982 N.am    1  UNL1       -0.3027
     25 C          -8.2699  -15.5858   24.4796 C.2     1  UNL1        0.2220
     26 O          -7.7183  -14.6145   23.4783 O.2     1  UNL1       -0.2751
     27 H          -9.7618  -17.1330   24.7553 H       1  UNL1        0.1495
     28 C          -7.6915  -15.6472   25.8623 C.3     1  UNL1        0.0765
     29 C          -6.3116  -15.5396   26.4404 C.3     1  UNL1        0.0091
     30 C          -6.8735  -15.7342   27.8175 C.3     1  UNL1        0.0010
     31 C          -8.2534  -15.8418   27.2394 C.3     1  UNL1        0.0091
@<TRIPOS>BOND
     1    10     9    1
     2    10     8    1
     3     8     1    1
     4     1     2    2
     5     1     3   am
     6     3     4    1
     7     4     5    1
     8     5     6    1
     9     6     7    1
    10     7    23    1
    11    23    24    1
    12    24    25   am
    13    25    26    2
    14    25    28    1
    15    28    29    1
    16    29    30    1
    17    30    31    1
    18    10    13    1
    19    13    14    1
    20    14    15   ar
    21    15    16   ar
    22    16    17    1
    23    16    18   ar
    24    18    19    1
    25    18    20   ar
    26    20    21   ar
    27    21    22    1
    28     7     3    1
    29    31    28    1
    30    21    14   ar
    31     9    11    1
    32     9    12    1
    33    24    27    1
@<TRIPOS>MOLECULE
*****
 31 33 0 0 0
SMALL
GASTEIGER

@<TRIPOS>ATOM
      1 C          -4.7851  -19.5988   21.2562 C.2     1  UNL1        0.2270
      2 O          -4.8091  -19.7393   22.7494 O.2     1  UNL1       -0.2748
      3 N          -3.7011  -18.8001   20.5953 N.am    1  UNL1       -0.2794
      4 C          -3.5478  -18.5724   19.1206 C.3     1  UNL1        0.0935
      5 C          -2.3319  -17.7204   18.9070 C.3     1  UNL1        0.0233
      6 C          -1.7337  -17.4214   20.2498 C.3     1  UNL1        0.0233
      7 C          -2.5799  -18.0887   21.2931 C.3     1  UNL1        0.0949
      8 C          -5.8452  -20.2571   20.4238 C.3     1  UNL1        0.1010
      9 N          -7.8091  -19.0286   19.2475 N.3     1  UNL1       -0.3215
     10 C          -7.2506  -19.7334   20.4480 C.3     1  UNL1        0.0644
     11 H          -7.1021  -18.9957   18.5131 H       1  UNL1        0.1188
     12 H          -8.0766  -18.0785   19.5048 H       1  UNL1        0.1188
     13 C          -8.0975  -19.9145   21.6727 C.3     1  UNL1        0.0447
     14 C          -9.2134  -18.9546   21.9617 C.ar    1  UNL1        0.0090
     15 C          -9.0108  -17.8446   22.9500 C.ar    1  UNL1        0.0300
     16 C         -10.1267  -16.8848   23.2389 C.ar    1  UNL1        0.1672
     17 F          -9.9241  -15.7747   24.2274 F       1  UNL1       -0.2018
     18 C         -11.4451  -17.0349   22.5395 C.ar    1  UNL1        0.1696
     19 F         -12.5610  -16.0749   22.8284 F       1  UNL1       -0.2017
     20 C         -11.6477  -18.1448   21.5511 C.ar    1  UNL1        0.0612
     21 C         -10.5318  -19.1047   21.2622 C.ar    1  UNL1        0.1386
     22 F         -10.7344  -20.2147   20.2738 F       1  UNL1       -0.2044
     23 C          -2.3459  -18.0512   22.7743 C.3     1  UNL1        0.1091
     24 N          -3.4486  -17.6242   23.6973 N.am    1  UNL1       -0.3027
     25 C          -4.0712  -16.2681   23.5451 C.2     1  UNL1        0.2220
     26 O          -3.5912  -15.3389   22.4697 O.2     1  UNL1       -0.2751
     27 H          -3.7636  -18.2341   24.4031 H       1  UNL1        0.1495
     28 C          -5.1738  -15.8411   24.4681 C.3     1  UNL1        0.0765
     29 C          -6.6071  -15.4356   24.2919 C.3     1  UNL1        0.0091
     30 C          -6.7331  -15.2374   25.7734 C.3     1  UNL1        0.0010
     31 C          -5.2998  -15.6429   25.9496 C.3     1  UNL1        0.0091
@<TRIPOS>BOND
     1    10     9    1
     2    10     8    1
     3     8     1    1
     4     1     2    2
     5     1     3   am
     6     3     4    1
     7     4     5    1
     8     5     6    1
     9     6     7    1
    10     7    23    1
    11    23    24    1
    12    24    25   am
    13    25    26    2
    14    25    28    1
    15    28    29    1
    16    29    30    1
    17    30    31    1
    18    10    13    1
    19    13    14    1
    20    14    15   ar
    21    15    16   ar
    22    16    17    1
    23    16    18   ar
    24    18    19    1
    25    18    20   ar
    26    20    21   ar
    27    21    22    1
    28     7     3    1
    29    31    28    1
    30    21    14   ar
    31     9    11    1
    32     9    12    1
    33    24    27    1
@<TRIPOS>MOLECULE
*****
 31 33 0 0 0
SMALL
GASTEIGER

@<TRIPOS>ATOM
      1 C          -6.4798  -19.0628   22.3956 C.2     1  UNL1        0.2270
      2 O          -5.2028  -19.8485   22.4397 O.2     1  UNL1       -0.2748
      3 N          -6.5139  -17.6570   22.9176 N.am    1  UNL1       -0.2794
      4 C          -7.7109  -16.7533   22.9394 C.3     1  UNL1        0.0935
      5 C          -7.2937  -15.4458   23.5446 C.3     1  UNL1        0.0233
      6 C          -5.8388  -15.5414   23.8969 C.3     1  UNL1        0.0233
      7 C          -5.3568  -16.9080   23.5094 C.3     1  UNL1        0.0949
      8 C          -7.7228  -19.6830   21.8296 C.3     1  UNL1        0.1010
      9 N          -7.1860  -18.8581   19.4251 N.3     1  UNL1       -0.3215
     10 C          -8.1814  -19.3177   20.4489 C.3     1  UNL1        0.0644
     11 H          -6.2526  -18.8542   19.8362 H       1  UNL1        0.1188
     12 H          -7.4258  -17.9158   19.1169 H       1  UNL1        0.1188
     13 C          -9.6352  -19.4121   20.0919 C.3     1  UNL1        0.0447
     14 C         -10.6751  -18.8871   21.0370 C.ar    1  UNL1        0.0090
     15 C         -10.7326  -19.3958   22.4468 C.ar    1  UNL1        0.0300
     16 C         -11.7725  -18.8708   23.3917 C.ar    1  UNL1        0.1672
     17 F         -11.8301  -19.3796   24.8017 F       1  UNL1       -0.2018
     18 C         -12.7549  -17.8370   22.9268 C.ar    1  UNL1        0.1696
     19 F         -13.7948  -17.3120   23.8718 F       1  UNL1       -0.2017
     20 C         -12.6974  -17.3282   21.5169 C.ar    1  UNL1        0.0612
     21 C         -11.6575  -17.8532   20.5720 C.ar    1  UNL1        0.1386
     22 F         -11.5999  -17.3445   19.1621 F       1  UNL1       -0.2044
     23 C          -3.9626  -17.4333   23.6831 C.3     1  UNL1        0.1091
     24 N          -3.1854  -17.9067   22.4907 N.am    1  UNL1       -0.3027
     25 C          -2.4976  -16.9138   21.6012 C.2     1  UNL1        0.2220
     26 O          -2.5870  -15.4474   21.9043 O.2     1  UNL1       -0.2751
     27 H          -3.1267  -18.8691   22.2918 H       1  UNL1        0.1495
     28 C          -1.7203  -17.3873   20.4089 C.3     1  UNL1        0.0765
     29 C          -0.2644  -17.4795   20.0603 C.3     1  UNL1        0.0091
     30 C          -0.6212  -18.0568   18.7227 C.3     1  UNL1        0.0010
     31 C          -2.0772  -17.9646   19.0712 C.3     1  UNL1        0.0091
@<TRIPOS>BOND
     1    10     9    1
     2    10     8    1
     3     8     1    1
     4     1     2    2
     5     1     3   am
     6     3     4    1
     7     4     5    1
     8     5     6    1
     9     6     7    1
    10     7    23    1
    11    23    24    1
    12    24    25   am
    13    25    26    2
    14    25    28    1
    15    28    29    1
    16    29    30    1
    17    30    31    1
    18    10    13    1
    19    13    14    1
    20    14    15   ar
    21    15    16   ar
    22    16    17    1
    23    16    18   ar
    24    18    19    1
    25    18    20   ar
    26    20    21   ar
    27    21    22    1
    28     7     3    1
    29    31    28    1
    30    21    14   ar
    31     9    11    1
    32     9    12    1
    33    24    27    1
@<TRIPOS>MOLECULE
*****
 31 33 0 0 0
SMALL
GASTEIGER

@<TRIPOS>ATOM
      1 C          -8.7419  -19.7640   22.7571 C.2     1  UNL1        0.2270
      2 O          -7.2711  -20.0502   22.8267 O.2     1  UNL1       -0.2748
      3 N          -9.3906  -19.4883   21.4331 N.am    1  UNL1       -0.2794
      4 C         -10.8429  -19.1877   21.2083 C.3     1  UNL1        0.0935
      5 C         -11.0507  -18.9784   19.7376 C.3     1  UNL1        0.0233
      6 C          -9.7268  -19.1496   19.0534 C.3     1  UNL1        0.0233
      7 C          -8.7008  -19.4648   20.1013 C.3     1  UNL1        0.0949
      8 C          -9.5641  -19.7536   24.0117 C.3     1  UNL1        0.1010
      9 N         -11.7543  -18.8047   25.0377 N.3     1  UNL1       -0.3215
     10 C         -10.4595  -18.5882   24.3119 C.3     1  UNL1        0.0644
     11 H         -11.8641  -19.7966   25.2485 H       1  UNL1        0.1188
     12 H         -12.5289  -18.4939   24.4512 H       1  UNL1        0.1188
     13 C         -10.0602  -17.2064   23.8864 C.3     1  UNL1        0.0447
     14 C          -8.7758  -16.6107   24.3821 C.ar    1  UNL1        0.0090
     15 C          -8.6034  -16.3081   25.8411 C.ar    1  UNL1        0.0300
     16 C          -7.3191  -15.7125   26.3368 C.ar    1  UNL1        0.1672
     17 F          -7.1465  -15.4098   27.7958 F       1  UNL1       -0.2018
     18 C          -6.2072  -15.4195   25.3734 C.ar    1  UNL1        0.1696
     19 F          -4.9228  -14.8238   25.8692 F       1  UNL1       -0.2017
     20 C          -6.3797  -15.7221   23.9145 C.ar    1  UNL1        0.0612
     21 C          -7.6640  -16.3177   23.4188 C.ar    1  UNL1        0.1386
     22 F          -7.8365  -16.6204   21.9598 F       1  UNL1       -0.2044
     23 C          -7.2413  -19.7128   19.8598 C.3     1  UNL1        0.1091
     24 N          -6.2129  -18.8505   20.5299 N.am    1  UNL1       -0.3027
     25 C          -4.8082  -19.3498   20.6955 C.2     1  UNL1        0.2220
     26 O          -4.4318  -20.7113   20.1909 O.2     1  UNL1       -0.2751
     27 H          -6.4600  -17.9569   20.8611 H       1  UNL1        0.1495
     28 C          -3.7799  -18.4875   21.3657 C.3     1  UNL1        0.0765
     29 C          -2.5059  -17.8249   20.9323 C.3     1  UNL1        0.0091
     30 C          -2.3258  -17.2681   22.3134 C.3     1  UNL1        0.0010
     31 C          -3.5997  -17.9306   22.7468 C.3     1  UNL1        0.0091
@<TRIPOS>BOND
     1    10     9    1
     2    10     8    1
     3     8     1    1
     4     1     2    2
     5     1     3   am
     6     3     4    1
     7     4     5    1
     8     5     6    1
     9     6     7    1
    10     7    23    1
    11    23    24    1
    12    24    25   am
    13    25    26    2
    14    25    28    1
    15    28    29    1
    16    29    30    1
    17    30    31    1
    18    10    13    1
    19    13    14    1
    20    14    15   ar
    21    15    16   ar
    22    16    17    1
    23    16    18   ar
    24    18    19    1
    25    18    20   ar
    26    20    21   ar
    27    21    22    1
    28     7     3    1
    29    31    28    1
    30    21    14   ar
    31     9    11    1
    32     9    12    1
    33    24    27    1
@<TRIPOS>MOLECULE
*****
 31 33 0 0 0
SMALL
GASTEIGER

@<TRIPOS>ATOM
      1 C          -4.2705  -17.6809   22.7143 C.2     1  UNL1        0.2270
      2 O          -5.3667  -18.6912   22.5481 O.2     1  UNL1       -0.2748
      3 N          -3.1668  -17.5983   21.7018 N.am    1  UNL1       -0.2794
      4 C          -2.0095  -16.6446   21.7349 C.3     1  UNL1        0.0935
      5 C          -1.1541  -16.9118   20.5320 C.3     1  UNL1        0.0233
      6 C          -1.7828  -18.0307   19.7555 C.3     1  UNL1        0.0233
      7 C          -3.0267  -18.4550   20.4785 C.3     1  UNL1        0.0949
      8 C          -4.2779  -16.7532   23.8929 C.3     1  UNL1        0.1010
      9 N          -4.6407  -14.3873   22.8826 N.3     1  UNL1       -0.3215
     10 C          -5.0543  -15.4712   23.8335 C.3     1  UNL1        0.0644
     11 H          -3.8191  -14.6895   22.3592 H       1  UNL1        0.1188
     12 H          -4.4174  -13.5416   23.4074 H       1  UNL1        0.1188
     13 C          -6.2443  -15.2730   24.7249 C.3     1  UNL1        0.0447
     14 C          -7.5698  -15.8666   24.3494 C.ar    1  UNL1        0.0090
     15 C          -8.0592  -15.7741   22.9346 C.ar    1  UNL1        0.0300
     16 C          -9.3846  -16.3677   22.5592 C.ar    1  UNL1        0.1672
     17 F          -9.8740  -16.2753   21.1442 F       1  UNL1       -0.2018
     18 C         -10.2206  -17.0536   23.5987 C.ar    1  UNL1        0.1696
     19 F         -11.5461  -17.6472   23.2232 F       1  UNL1       -0.2017
     20 C          -9.7312  -17.1461   25.0135 C.ar    1  UNL1        0.0612
     21 C          -8.4058  -16.5525   25.3889 C.ar    1  UNL1        0.1386
     22 F          -7.9163  -16.6449   26.8039 F       1  UNL1       -0.2044
     23 C          -3.9656  -19.5446   20.0529 C.3     1  UNL1        0.1091
     24 N          -5.4118  -19.2338   19.8038 N.am    1  UNL1       -0.3027
     25 C          -6.4561  -20.2846   20.0387 C.2     1  UNL1        0.2220
     26 O          -6.0542  -21.6463   20.5227 O.2     1  UNL1       -0.2751
     27 H          -5.6755  -18.3400   19.4861 H       1  UNL1        0.1495
     28 C          -7.9022  -19.9737   19.7895 C.3     1  UNL1        0.0765
     29 C          -9.0051  -19.3460   20.5893 C.3     1  UNL1        0.0091
     30 C          -9.9473  -19.5340   19.4373 C.3     1  UNL1        0.0010
     31 C          -8.8444  -20.1616   18.6376 C.3     1  UNL1        0.0091
@<TRIPOS>BOND
     1    10     9    1
     2    10     8    1
     3     8     1    1
     4     1     2    2
     5     1     3   am
     6     3     4    1
     7     4     5    1
     8     5     6    1
     9     6     7    1
    10     7    23    1
    11    23    24    1
    12    24    25   am
    13    25    26    2
    14    25    28    1
    15    28    29    1
    16    29    30    1
    17    30    31    1
    18    10    13    1
    19    13    14    1
    20    14    15   ar
    21    15    16   ar
    22    16    17    1
    23    16    18   ar
    24    18    19    1
    25    18    20   ar
    26    20    21   ar
    27    21    22    1
    28     7     3    1
    29    31    28    1
    30    21    14   ar
    31     9    11    1
    32     9    12    1
    33    24    27    1
@<TRIPOS>MOLECULE
*****
 31 33 0 0 0
SMALL
GASTEIGER

@<TRIPOS>ATOM
      1 C          -7.0898  -18.6083   22.2225 C.2     1  UNL1        0.2270
      2 O          -8.5145  -18.5911   21.7535 O.2     1  UNL1       -0.2748
      3 N          -6.5140  -17.4094   22.9160 N.am    1  UNL1       -0.2794
      4 C          -5.1135  -17.2808   23.4378 C.3     1  UNL1        0.0935
      5 C          -4.9714  -15.9205   24.0537 C.3     1  UNL1        0.0233
      6 C          -6.2841  -15.2084   23.9125 C.3     1  UNL1        0.0233
      7 C          -7.2374  -16.1286   23.2093 C.3     1  UNL1        0.0949
      8 C          -6.2410  -19.8245   21.9980 C.3     1  UNL1        0.1010
      9 N          -7.1123  -20.3887   19.6163 N.3     1  UNL1       -0.3215
     10 C          -5.9852  -20.3136   20.6032 C.3     1  UNL1        0.0644
     11 H          -7.9743  -20.0715   20.0598 H       1  UNL1        0.1188
     12 H          -7.2260  -21.3527   19.3028 H       1  UNL1        0.1188
     13 C          -4.6023  -20.7275   20.1954 C.3     1  UNL1        0.0447
     14 C          -3.4913  -19.7197   20.1813 C.ar    1  UNL1        0.0090
     15 C          -3.0851  -19.0691   18.8923 C.ar    1  UNL1        0.0300
     16 C          -1.9741  -18.0614   18.8783 C.ar    1  UNL1        0.1672
     17 F          -1.5679  -17.4108   17.5892 F       1  UNL1       -0.2018
     18 C          -1.2693  -17.7043   20.1533 C.ar    1  UNL1        0.1696
     19 F          -0.1583  -16.6966   20.1392 F       1  UNL1       -0.2017
     20 C          -1.6755  -18.3549   21.4424 C.ar    1  UNL1        0.0612
     21 C          -2.7865  -19.3626   21.4564 C.ar    1  UNL1        0.1386
     22 F          -3.1927  -20.0133   22.7455 F       1  UNL1       -0.2044
     23 C          -8.6637  -15.8218   22.8608 C.3     1  UNL1        0.1091
     24 N          -9.7786  -16.5301   23.5717 N.am    1  UNL1       -0.3027
     25 C         -11.0411  -16.8697   22.8363 C.2     1  UNL1        0.2220
     26 O         -11.1886  -16.5010   21.3897 O.2     1  UNL1       -0.2751
     27 H          -9.6818  -16.7720   24.5211 H       1  UNL1        0.1495
     28 C         -12.1559  -17.5779   23.5472 C.3     1  UNL1        0.0765
     29 C         -13.6537  -17.5098   23.5040 C.3     1  UNL1        0.0091
     30 C         -13.7325  -18.5794   24.5527 C.3     1  UNL1        0.0010
     31 C         -12.2347  -18.6476   24.5959 C.3     1  UNL1        0.0091
@<TRIPOS>BOND
     1    10     9    1
     2    10     8    1
     3     8     1    1
     4     1     2    2
     5     1     3   am
     6     3     4    1
     7     4     5    1
     8     5     6    1
     9     6     7    1
    10     7    23    1
    11    23    24    1
    12    24    25   am
    13    25    26    2
    14    25    28    1
    15    28    29    1
    16    29    30    1
    17    30    31    1
    18    10    13    1
    19    13    14    1
    20    14    15   ar
    21    15    16   ar
    22    16    17    1
    23    16    18   ar
    24    18    19    1
    25    18    20   ar
    26    20    21   ar
    27    21    22    1
    28     7     3    1
    29    31    28    1
    30    21    14   ar
    31     9    11    1
    32     9    12    1
    33    24    27    1
@<TRIPOS>MOLECULE
*****
 31 33 0 0 0
SMALL
GASTEIGER

@<TRIPOS>ATOM
      1 C          -7.6046  -18.7768   22.7523 C.2     1  UNL1        0.2270
      2 O          -9.0814  -18.9017   22.9834 O.2     1  UNL1       -0.2748
      3 N          -6.8769  -17.5443   23.2010 N.am    1  UNL1       -0.2794
      4 C          -5.4094  -17.2789   23.0393 C.3     1  UNL1        0.0935
      5 C          -5.1144  -15.9314   23.6284 C.3     1  UNL1        0.0233
      6 C          -6.3996  -15.3640   24.1542 C.3     1  UNL1        0.0233
      7 C          -7.4888  -16.3608   23.8900 C.3     1  UNL1        0.0949
      8 C          -6.8555  -19.8844   22.0727 C.3     1  UNL1        0.1010
      9 N          -7.1026  -18.8504   19.7021 N.3     1  UNL1       -0.3215
     10 C          -6.3370  -19.6937   20.6781 C.3     1  UNL1        0.0644
     11 H          -7.9434  -18.4883   20.1520 H       1  UNL1        0.1188
     12 H          -7.3657  -19.4174   18.8960 H       1  UNL1        0.1188
     13 C          -5.0529  -20.3463   20.2596 C.3     1  UNL1        0.0447
     14 C          -3.7775  -19.5567   20.2533 C.ar    1  UNL1        0.0090
     15 C          -3.2477  -18.9980   18.9660 C.ar    1  UNL1        0.0300
     16 C          -1.9724  -18.2084   18.9598 C.ar    1  UNL1        0.1672
     17 F          -1.4424  -17.6497   17.6725 F       1  UNL1       -0.2018
     18 C          -1.2269  -17.9775   20.2408 C.ar    1  UNL1        0.1696
     19 F           0.0485  -17.1879   20.2345 F       1  UNL1       -0.2017
     20 C          -1.7567  -18.5362   21.5281 C.ar    1  UNL1        0.0612
     21 C          -3.0321  -19.3258   21.5343 C.ar    1  UNL1        0.1386
     22 F          -3.5620  -19.8846   22.8216 F       1  UNL1       -0.2044
     23 C          -8.9359  -16.2020   24.2515 C.3     1  UNL1        0.1091
     24 N          -9.9869  -16.2617   23.1828 N.am    1  UNL1       -0.3027
     25 C          -9.6881  -15.7438   21.8072 C.2     1  UNL1        0.2220
     26 O          -8.3382  -15.1662   21.5001 O.2     1  UNL1       -0.2751
     27 H         -10.8729  -16.6408   23.3844 H       1  UNL1        0.1495
     28 C         -10.7391  -15.8035   20.7386 C.3     1  UNL1        0.0765
     29 C         -10.8265  -15.3529   19.3106 C.3     1  UNL1        0.0091
     30 C         -12.2254  -15.8879   19.2275 C.3     1  UNL1        0.0010
     31 C         -12.1380  -16.3386   20.6554 C.3     1  UNL1        0.0091
@<TRIPOS>BOND
     1    10     9    1
     2    10     8    1
     3     8     1    1
     4     1     2    2
     5     1     3   am
     6     3     4    1
     7     4     5    1
     8     5     6    1
     9     6     7    1
    10     7    23    1
    11    23    24    1
    12    24    25   am
    13    25    26    2
    14    25    28    1
    15    28    29    1
    16    29    30    1
    17    30    31    1
    18    10    13    1
    19    13    14    1
    20    14    15   ar
    21    15    16   ar
    22    16    17    1
    23    16    18   ar
    24    18    19    1
    25    18    20   ar
    26    20    21   ar
    27    21    22    1
    28     7     3    1
    29    31    28    1
    30    21    14   ar
    31     9    11    1
    32     9    12    1
    33    24    27    1
