@<TRIPOS>MOLECULE
*****
 36 39 0 0 0
SMALL
GASTEIGER

@<TRIPOS>ATOM
      1 C           8.3705   -5.0360   25.6526 C.ar    1  UNL1       -0.0231
      2 C           8.4753   -5.7265   26.9801 C.ar    1  UNL1       -0.0246
      3 C           8.3628   -7.2202   27.0595 C.ar    1  UNL1       -0.0045
      4 C           8.1455   -8.0233   25.8115 C.ar    1  UNL1       -0.0002
      5 C           8.0407   -7.3329   24.4840 C.ar    1  UNL1        0.0027
      6 C           8.1532   -5.8392   24.4046 C.ar    1  UNL1        0.0322
      7 C           8.0484   -5.1487   23.0770 C.ar    1  UNL1        0.1700
      8 N           9.1290   -5.0626   22.0403 N.ar    1  UNL1       -0.1885
      9 S           8.5930   -4.2838   20.8757 S.2     1  UNL1        0.0341
     10 C           7.1811   -3.8886   21.1927 C.ar    1  UNL1        0.1299
     11 N           6.8445   -4.4232   22.5532 N.ar    1  UNL1       -0.2181
     12 C           6.2664   -3.0978   20.3051 C.ar    1  UNL1        0.0259
     13 C           4.7813   -3.2856   20.4007 C.ar    1  UNL1        0.0018
     14 C           3.8667   -2.4948   19.5130 C.ar    1  UNL1       -0.0035
     15 C           4.4371   -1.5161   18.5298 C.ar    1  UNL1       -0.0126
     16 C           5.9222   -1.3282   18.4342 C.ar    1  UNL1        0.0645
     17 C           6.8369   -2.1191   19.3218 C.ar    1  UNL1        0.0120
     18 C           6.4926   -0.3495   17.4510 C.1     1  UNL1        0.1001
     19 N           7.0631    0.6292   16.4678 N.1     1  UNL1       -0.1908
     20 C           3.5224   -0.7252   17.6422 C.3     1  UNL1        0.0270
     21 C           2.8537    0.5113   18.1656 C.3     1  UNL1        0.0044
     22 C           3.6644    1.7429   18.4412 C.3     1  UNL1        0.0003
     23 C           1.3743    0.5162   18.4135 C.3     1  UNL1        0.0003
     24 C           7.2638   -2.6877   25.7551 C.3     1  UNL1        0.0050
     25 C           8.4829   -3.5424   25.5732 C.3     1  UNL1        0.0261
     26 C           8.6925   -4.9233   28.2282 C.3     1  UNL1        0.0433
     27 C           7.9675   -5.2871   29.4899 C.3     1  UNL1        0.0768
     28 N           7.1799   -4.2461   30.2291 N.3     1  UNL1       -0.2724
     29 C           6.7044   -3.0167   29.5133 C.3     1  UNL1        0.0725
     30 C           5.9169   -1.9759   30.2525 C.3     1  UNL1        0.0229
     31 C           5.6049   -2.1645   31.7075 C.3     1  UNL1        0.0393
     32 C           6.0803   -3.3939   32.4233 C.3     1  UNL1        0.0229
     33 C           6.8679   -4.4347   31.6841 C.3     1  UNL1        0.0725
     34 C           4.8173   -1.1236   32.4467 C.2     1  UNL1        0.0501
     35 O           3.7964   -1.5381   33.4645 O.co2   1  UNL1       -0.5492
     36 O           5.0507    0.3317   32.1681 O.co2   1  UNL1       -0.5492
@<TRIPOS>UNITY_ATOM_ATTR
35 1
charge -1
@<TRIPOS>BOND
     1    24    25    1
     2    25     1    1
     3     1     2   ar
     4     2    26    1
     5    26    27    1
     6    27    28    1
     7    28    29    1
     8    29    30    1
     9    30    31    1
    10    31    34    1
    11    34    35   ar
    12    34    36   ar
    13    31    32    1
    14    32    33    1
    15     2     3   ar
    16     3     4   ar
    17     4     5   ar
    18     5     6   ar
    19     6     7    1
    20     7     8   ar
    21     8     9   ar
    22     9    10   ar
    23    10    12    1
    24    12    13   ar
    25    13    14   ar
    26    14    15   ar
    27    15    20    1
    28    20    21    1
    29    21    22    1
    30    21    23    1
    31    15    16   ar
    32    16    18    1
    33    18    19    3
    34    16    17   ar
    35    10    11   ar
    36     6     1   ar
    37    11     7   ar
    38    33    28    1
    39    17    12   ar
@<TRIPOS>MOLECULE
*****
 36 39 0 0 0
SMALL
GASTEIGER

@<TRIPOS>ATOM
      1 C           4.0621   -1.8711   21.4523 C.ar    1  UNL1       -0.0231
      2 C           4.5921   -3.2152   21.8554 C.ar    1  UNL1       -0.0246
      3 C           4.5454   -4.3608   20.8883 C.ar    1  UNL1       -0.0045
      4 C           3.9686   -4.1623   19.5179 C.ar    1  UNL1       -0.0002
      5 C           3.4386   -2.8183   19.1147 C.ar    1  UNL1        0.0027
      6 C           3.4853   -1.6727   20.0819 C.ar    1  UNL1        0.0322
      7 C           2.9553   -0.3286   19.6787 C.ar    1  UNL1        0.1700
      8 N           3.7624    0.8068   19.1223 N.ar    1  UNL1       -0.1885
      9 S           2.8310    1.9531   18.8608 S.2     1  UNL1        0.0341
     10 C           1.4482    1.5262   19.2556 C.ar    1  UNL1        0.1299
     11 N           1.5251    0.1161   19.7611 N.ar    1  UNL1       -0.2181
     12 C           0.2066    2.3626   19.1614 C.ar    1  UNL1        0.0259
     13 C          -0.1145    3.0875   17.8881 C.ar    1  UNL1        0.0018
     14 C          -1.3561    3.9239   17.7939 C.ar    1  UNL1       -0.0035
     15 C          -2.2765    4.0355   18.9731 C.ar    1  UNL1       -0.0126
     16 C          -1.9553    3.3106   20.2464 C.ar    1  UNL1        0.0645
     17 C          -0.7138    2.4742   20.3406 C.ar    1  UNL1        0.0120
     18 C          -2.8758    3.4222   21.4256 C.1     1  UNL1        0.1001
     19 N          -3.7961    3.5338   22.6047 N.1     1  UNL1       -0.1908
     20 C          -3.5181    4.8719   18.8789 C.3     1  UNL1        0.0270
     21 C          -4.6922    4.3843   18.0829 C.3     1  UNL1        0.0044
     22 C          -5.6547    3.4060   18.6885 C.3     1  UNL1        0.0003
     23 C          -4.9041    4.8749   16.6813 C.3     1  UNL1        0.0003
     24 C           2.9587   -0.4833   23.3512 C.3     1  UNL1        0.0050
     25 C           4.1089   -0.7256   22.4195 C.3     1  UNL1        0.0261
     26 C           5.1689   -3.4137   23.2259 C.3     1  UNL1        0.0433
     27 C           6.6077   -3.8071   23.3842 C.3     1  UNL1        0.0768
     28 N           6.9984   -4.8223   24.4171 N.3     1  UNL1       -0.2724
     29 C           6.6870   -4.5782   25.8640 C.3     1  UNL1        0.0725
     30 C           7.0776   -5.5934   26.8968 C.3     1  UNL1        0.0229
     31 C           7.7797   -6.8526   26.4828 C.3     1  UNL1        0.0393
     32 C           8.0911   -7.0967   25.0359 C.3     1  UNL1        0.0229
     33 C           7.7004   -6.0815   24.0031 C.3     1  UNL1        0.0725
     34 C           8.1704   -7.8678   27.5157 C.2     1  UNL1        0.0501
     35 O           8.0457   -9.3317   27.2132 O.co2   1  UNL1       -0.5492
     36 O           8.6857   -7.4191   28.8510 O.co2   1  UNL1       -0.5492
@<TRIPOS>UNITY_ATOM_ATTR
35 1
charge -1
@<TRIPOS>BOND
     1    24    25    1
     2    25     1    1
     3     1     2   ar
     4     2    26    1
     5    26    27    1
     6    27    28    1
     7    28    29    1
     8    29    30    1
     9    30    31    1
    10    31    34    1
    11    34    35   ar
    12    34    36   ar
    13    31    32    1
    14    32    33    1
    15     2     3   ar
    16     3     4   ar
    17     4     5   ar
    18     5     6   ar
    19     6     7    1
    20     7     8   ar
    21     8     9   ar
    22     9    10   ar
    23    10    12    1
    24    12    13   ar
    25    13    14   ar
    26    14    15   ar
    27    15    20    1
    28    20    21    1
    29    21    22    1
    30    21    23    1
    31    15    16   ar
    32    16    18    1
    33    18    19    3
    34    16    17   ar
    35    10    11   ar
    36     6     1   ar
    37    11     7   ar
    38    33    28    1
    39    17    12   ar
@<TRIPOS>MOLECULE
*****
 36 39 0 0 0
SMALL
GASTEIGER

@<TRIPOS>ATOM
      1 C           2.5543    0.8742   29.0020 C.ar    1  UNL1       -0.0231
      2 C           3.0609    1.2529   30.3621 C.ar    1  UNL1       -0.0246
      3 C           3.9250    2.4675   30.5293 C.ar    1  UNL1       -0.0045
      4 C           4.2825    3.3035   29.3363 C.ar    1  UNL1       -0.0002
      5 C           3.7760    2.9249   27.9762 C.ar    1  UNL1        0.0027
      6 C           2.9119    1.7102   27.8090 C.ar    1  UNL1        0.0322
      7 C           2.4053    1.3316   26.4488 C.ar    1  UNL1        0.1700
      8 N           1.0715    1.7007   25.8705 N.ar    1  UNL1       -0.1885
      9 S           0.9855    1.1146   24.4924 S.2     1  UNL1        0.0341
     10 C           2.2663    0.3832   24.2190 C.ar    1  UNL1        0.1299
     11 N           3.1438    0.5173   25.4282 N.ar    1  UNL1       -0.2181
     12 C           2.6094   -0.3531   22.9580 C.ar    1  UNL1        0.0259
     13 C           1.9101   -0.0108   21.6759 C.ar    1  UNL1        0.0018
     14 C           2.2531   -0.7471   20.4148 C.ar    1  UNL1       -0.0035
     15 C           3.2955   -1.8255   20.4359 C.ar    1  UNL1       -0.0126
     16 C           3.9948   -2.1677   21.7180 C.ar    1  UNL1        0.0645
     17 C           3.6518   -1.4315   22.9790 C.ar    1  UNL1        0.0120
     18 C           5.0372   -3.2461   21.7390 C.1     1  UNL1        0.1001
     19 N           6.0796   -4.3245   21.7601 N.1     1  UNL1       -0.1908
     20 C           3.6385   -2.5617   19.1748 C.3     1  UNL1        0.0270
     21 C           4.5252   -1.9199   18.1493 C.3     1  UNL1        0.0044
     22 C           5.9948   -2.2207   18.1345 C.3     1  UNL1        0.0003
     23 C           3.9426   -0.9772   17.1384 C.3     1  UNL1        0.0003
     24 C           0.1964   -0.2080   28.8645 C.3     1  UNL1        0.0050
     25 C           1.6902   -0.3405   28.8348 C.3     1  UNL1        0.0261
     26 C           2.7033    0.4169   31.5552 C.3     1  UNL1        0.0433
     27 C           3.7860   -0.1915   32.3963 C.3     1  UNL1        0.0768
     28 N           3.9235    0.1978   33.8384 N.3     1  UNL1       -0.2724
     29 C           4.6756   -0.6888   34.7862 C.3     1  UNL1        0.0725
     30 C           4.8131   -0.2995   36.2282 C.3     1  UNL1        0.0229
     31 C           4.1984    0.9764   36.7225 C.3     1  UNL1        0.0393
     32 C           3.4463    1.8630   35.7747 C.3     1  UNL1        0.0229
     33 C           3.3089    1.4737   34.3327 C.3     1  UNL1        0.0725
     34 C           4.3359    1.3657   38.1646 C.2     1  UNL1        0.0501
     35 O           5.5369    2.1397   38.6213 O.co2   1  UNL1       -0.5492
     36 O           3.2725    0.9810   39.1500 O.co2   1  UNL1       -0.5492
@<TRIPOS>UNITY_ATOM_ATTR
35 1
charge -1
@<TRIPOS>BOND
     1    24    25    1
     2    25     1    1
     3     1     2   ar
     4     2    26    1
     5    26    27    1
     6    27    28    1
     7    28    29    1
     8    29    30    1
     9    30    31    1
    10    31    34    1
    11    34    35   ar
    12    34    36   ar
    13    31    32    1
    14    32    33    1
    15     2     3   ar
    16     3     4   ar
    17     4     5   ar
    18     5     6   ar
    19     6     7    1
    20     7     8   ar
    21     8     9   ar
    22     9    10   ar
    23    10    12    1
    24    12    13   ar
    25    13    14   ar
    26    14    15   ar
    27    15    20    1
    28    20    21    1
    29    21    22    1
    30    21    23    1
    31    15    16   ar
    32    16    18    1
    33    18    19    3
    34    16    17   ar
    35    10    11   ar
    36     6     1   ar
    37    11     7   ar
    38    33    28    1
    39    17    12   ar
@<TRIPOS>MOLECULE
*****
 36 39 0 0 0
SMALL
GASTEIGER

@<TRIPOS>ATOM
      1 C           4.3797    0.7969   28.8144 C.ar    1  UNL1       -0.0231
      2 C           4.6533    0.6708   30.2839 C.ar    1  UNL1       -0.0246
      3 C           3.6879   -0.0639   31.1661 C.ar    1  UNL1       -0.0045
      4 C           2.4490   -0.6725   30.5789 C.ar    1  UNL1       -0.0002
      5 C           2.1755   -0.5464   29.1095 C.ar    1  UNL1        0.0027
      6 C           3.1409    0.1883   28.2273 C.ar    1  UNL1        0.0322
      7 C           2.8673    0.3144   26.7578 C.ar    1  UNL1        0.1700
      8 N           2.0772    1.4057   26.0985 N.ar    1  UNL1       -0.1885
      9 S           2.0574    1.1371   24.6229 S.2     1  UNL1        0.0341
     10 C           2.8353   -0.1204   24.3702 C.ar    1  UNL1        0.1299
     11 N           3.3358   -0.6288   25.6896 N.ar    1  UNL1       -0.2181
     12 C           3.0713   -0.7575   23.0329 C.ar    1  UNL1        0.0259
     13 C           2.2353   -0.3572   21.8535 C.ar    1  UNL1        0.0018
     14 C           2.4712   -0.9943   20.5162 C.ar    1  UNL1       -0.0035
     15 C           3.5431   -2.0317   20.3582 C.ar    1  UNL1       -0.0126
     16 C           4.3791   -2.4319   21.5376 C.ar    1  UNL1        0.0645
     17 C           4.1431   -1.7948   22.8749 C.ar    1  UNL1        0.0120
     18 C           5.4510   -3.4693   21.3796 C.1     1  UNL1        0.1001
     19 N           6.5228   -4.5066   21.2217 N.1     1  UNL1       -0.1908
     20 C           3.7790   -2.6687   19.0209 C.3     1  UNL1        0.0270
     21 C           4.6408   -1.9808   18.0040 C.3     1  UNL1        0.0044
     22 C           4.0352   -0.9889   17.0555 C.3     1  UNL1        0.0003
     23 C           6.1081   -2.2846   17.9355 C.3     1  UNL1        0.0003
     24 C           5.1711    3.0017   27.6910 C.3     1  UNL1        0.0050
     25 C           5.3451    1.5315   27.9322 C.3     1  UNL1        0.0261
     26 C           5.8922    1.2793   30.8711 C.3     1  UNL1        0.0433
     27 C           7.1676    0.4911   30.9130 C.3     1  UNL1        0.0768
     28 N           7.1244   -1.0079   30.8766 N.3     1  UNL1       -0.2724
     29 C           7.3211   -1.7325   29.5780 C.3     1  UNL1        0.0725
     30 C           7.2780   -3.2314   29.5416 C.3     1  UNL1        0.0229
     31 C           7.0381   -4.0057   30.8038 C.3     1  UNL1        0.0393
     32 C           6.8414   -3.2811   32.1023 C.3     1  UNL1        0.0229
     33 C           6.8846   -1.7822   32.1387 C.3     1  UNL1        0.0725
     34 C           6.9949   -5.5047   30.7673 C.2     1  UNL1        0.0501
     35 O           7.2697   -6.2319   29.4845 O.co2   1  UNL1       -0.5492
     36 O           6.6769   -6.2764   32.0136 O.co2   1  UNL1       -0.5492
@<TRIPOS>UNITY_ATOM_ATTR
35 1
charge -1
@<TRIPOS>BOND
     1    24    25    1
     2    25     1    1
     3     1     2   ar
     4     2    26    1
     5    26    27    1
     6    27    28    1
     7    28    29    1
     8    29    30    1
     9    30    31    1
    10    31    34    1
    11    34    35   ar
    12    34    36   ar
    13    31    32    1
    14    32    33    1
    15     2     3   ar
    16     3     4   ar
    17     4     5   ar
    18     5     6   ar
    19     6     7    1
    20     7     8   ar
    21     8     9   ar
    22     9    10   ar
    23    10    12    1
    24    12    13   ar
    25    13    14   ar
    26    14    15   ar
    27    15    20    1
    28    20    21    1
    29    21    22    1
    30    21    23    1
    31    15    16   ar
    32    16    18    1
    33    18    19    3
    34    16    17   ar
    35    10    11   ar
    36     6     1   ar
    37    11     7   ar
    38    33    28    1
    39    17    12   ar
@<TRIPOS>MOLECULE
*****
 36 39 0 0 0
SMALL
GASTEIGER

@<TRIPOS>ATOM
      1 C           6.2639   -3.5881   20.2140 C.ar    1  UNL1       -0.0231
      2 C           6.1020   -2.7961   18.9505 C.ar    1  UNL1       -0.0246
      3 C           7.2949   -2.1455   18.3151 C.ar    1  UNL1       -0.0045
      4 C           8.6497   -2.2868   18.9432 C.ar    1  UNL1       -0.0002
      5 C           8.8116   -3.0788   20.2067 C.ar    1  UNL1        0.0027
      6 C           7.6187   -3.7294   20.8421 C.ar    1  UNL1        0.0322
      7 C           7.7807   -4.5214   22.1057 C.ar    1  UNL1        0.1700
      8 N           8.3586   -5.9014   22.2133 N.ar    1  UNL1       -0.1885
      9 S           8.3283   -6.3053   23.6576 S.2     1  UNL1        0.0341
     10 C           7.7316   -5.1749   24.4426 C.ar    1  UNL1        0.1299
     11 N           7.3932   -4.0724   23.4835 N.ar    1  UNL1       -0.2181
     12 C           7.5119   -5.1512   25.9262 C.ar    1  UNL1        0.0259
     13 C           7.8769   -6.3452   26.7576 C.ar    1  UNL1        0.0018
     14 C           7.6572   -6.3215   28.2412 C.ar    1  UNL1       -0.0035
     15 C           7.0725   -5.1038   28.8935 C.ar    1  UNL1       -0.0126
     16 C           6.7075   -3.9098   28.0621 C.ar    1  UNL1        0.0645
     17 C           6.9272   -3.9335   26.5785 C.ar    1  UNL1        0.0120
     18 C           6.1228   -2.6921   28.7143 C.1     1  UNL1        0.1001
     19 N           5.5381   -1.4745   29.3666 N.1     1  UNL1       -0.1908
     20 C           6.8528   -5.0801   30.3771 C.3     1  UNL1        0.0270
     21 C           7.8733   -4.4476   31.2763 C.3     1  UNL1        0.0044
     22 C           7.4960   -3.2725   32.1290 C.3     1  UNL1        0.0003
     23 C           9.2710   -4.9900   31.3230 C.3     1  UNL1        0.0003
     24 C           4.3546   -3.5543   21.9756 C.3     1  UNL1        0.0050
     25 C           5.0711   -4.2387   20.8495 C.3     1  UNL1        0.0261
     26 C           4.7472   -2.6547   18.3224 C.3     1  UNL1        0.0433
     27 C           4.2543   -1.3029   17.8987 C.3     1  UNL1        0.0768
     28 N           3.2230   -0.5888   18.7213 N.3     1  UNL1       -0.2724
     29 C           2.5604   -1.2920   19.8687 C.3     1  UNL1        0.0725
     30 C           1.5291   -0.5780   20.6912 C.3     1  UNL1        0.0229
     31 C           1.1603    0.8392   20.3663 C.3     1  UNL1        0.0393
     32 C           1.8229    1.5424   19.2189 C.3     1  UNL1        0.0229
     33 C           2.8542    0.8283   18.3964 C.3     1  UNL1        0.0725
     34 C           0.1290    1.5532   21.1888 C.2     1  UNL1        0.0501
     35 O          -1.1207    2.0708   20.5404 O.co2   1  UNL1       -0.5492
     36 O           0.3473    1.7495   22.6598 O.co2   1  UNL1       -0.5492
@<TRIPOS>UNITY_ATOM_ATTR
35 1
charge -1
@<TRIPOS>BOND
     1    24    25    1
     2    25     1    1
     3     1     2   ar
     4     2    26    1
     5    26    27    1
     6    27    28    1
     7    28    29    1
     8    29    30    1
     9    30    31    1
    10    31    34    1
    11    34    35   ar
    12    34    36   ar
    13    31    32    1
    14    32    33    1
    15     2     3   ar
    16     3     4   ar
    17     4     5   ar
    18     5     6   ar
    19     6     7    1
    20     7     8   ar
    21     8     9   ar
    22     9    10   ar
    23    10    12    1
    24    12    13   ar
    25    13    14   ar
    26    14    15   ar
    27    15    20    1
    28    20    21    1
    29    21    22    1
    30    21    23    1
    31    15    16   ar
    32    16    18    1
    33    18    19    3
    34    16    17   ar
    35    10    11   ar
    36     6     1   ar
    37    11     7   ar
    38    33    28    1
    39    17    12   ar
@<TRIPOS>MOLECULE
*****
 36 39 0 0 0
SMALL
GASTEIGER

@<TRIPOS>ATOM
      1 C           6.3866   -3.5512   21.0284 C.ar    1  UNL1       -0.0231
      2 C           6.5067   -3.0472   19.6207 C.ar    1  UNL1       -0.0246
      3 C           7.8481   -2.6533   19.0770 C.ar    1  UNL1       -0.0045
      4 C           9.0693   -2.7633   19.9410 C.ar    1  UNL1       -0.0002
      5 C           8.9491   -3.2673   21.3487 C.ar    1  UNL1        0.0027
      6 C           7.6078   -3.6612   21.8923 C.ar    1  UNL1        0.0322
      7 C           7.4877   -4.1652   23.3001 C.ar    1  UNL1        0.1700
      8 N           7.6436   -5.5898   23.7429 N.ar    1  UNL1       -0.1885
      9 S           7.4428   -5.6381   25.2286 S.2     1  UNL1        0.0341
     10 C           7.1628   -4.2432   25.7041 C.ar    1  UNL1        0.1299
     11 N           7.1905   -3.3329   24.5122 N.ar    1  UNL1       -0.2181
     12 C           6.9011   -3.8311   27.1224 C.ar    1  UNL1        0.0259
     13 C           6.5203   -2.4139   27.4334 C.ar    1  UNL1        0.0018
     14 C           6.2586   -2.0018   28.8517 C.ar    1  UNL1       -0.0035
     15 C           6.3776   -3.0067   29.9589 C.ar    1  UNL1       -0.0126
     16 C           6.7584   -4.4238   29.6479 C.ar    1  UNL1        0.0645
     17 C           7.0202   -4.8360   28.2296 C.ar    1  UNL1        0.0120
     18 C           6.8775   -5.4288   30.7551 C.1     1  UNL1        0.1001
     19 N           6.9966   -6.4337   31.8623 N.1     1  UNL1       -0.1908
     20 C           6.1159   -2.5946   31.3772 C.3     1  UNL1        0.0270
     21 C           7.1518   -1.8195   32.1363 C.3     1  UNL1        0.0044
     22 C           6.9197   -0.3729   32.4581 C.3     1  UNL1        0.0003
     23 C           8.4198   -2.4910   32.5737 C.3     1  UNL1        0.0003
     24 C           4.2667   -2.9820   22.4183 C.3     1  UNL1        0.0050
     25 C           5.0452   -3.9451   21.5720 C.3     1  UNL1        0.0261
     26 C           5.2855   -2.9372   18.7566 C.3     1  UNL1        0.0433
     27 C           4.9801   -1.6497   18.0502 C.3     1  UNL1        0.0768
     28 N           3.8160   -0.8113   18.4888 N.3     1  UNL1       -0.2724
     29 C           3.6197    0.5595   17.9125 C.3     1  UNL1        0.0725
     30 C           2.4557    1.3978   18.3511 C.3     1  UNL1        0.0229
     31 C           1.4881    0.8652   19.3660 C.3     1  UNL1        0.0393
     32 C           1.6844   -0.5056   19.9424 C.3     1  UNL1        0.0229
     33 C           2.8484   -1.3439   19.5038 C.3     1  UNL1        0.0725
     34 C           0.3240    1.7036   19.8046 C.2     1  UNL1        0.0501
     35 O          -0.5411    1.2489   20.9425 O.co2   1  UNL1       -0.5492
     36 O           0.0252    2.9964   19.1053 O.co2   1  UNL1       -0.5492
@<TRIPOS>UNITY_ATOM_ATTR
35 1
charge -1
@<TRIPOS>BOND
     1    24    25    1
     2    25     1    1
     3     1     2   ar
     4     2    26    1
     5    26    27    1
     6    27    28    1
     7    28    29    1
     8    29    30    1
     9    30    31    1
    10    31    34    1
    11    34    35   ar
    12    34    36   ar
    13    31    32    1
    14    32    33    1
    15     2     3   ar
    16     3     4   ar
    17     4     5   ar
    18     5     6   ar
    19     6     7    1
    20     7     8   ar
    21     8     9   ar
    22     9    10   ar
    23    10    12    1
    24    12    13   ar
    25    13    14   ar
    26    14    15   ar
    27    15    20    1
    28    20    21    1
    29    21    22    1
    30    21    23    1
    31    15    16   ar
    32    16    18    1
    33    18    19    3
    34    16    17   ar
    35    10    11   ar
    36     6     1   ar
    37    11     7   ar
    38    33    28    1
    39    17    12   ar
@<TRIPOS>MOLECULE
*****
 36 39 0 0 0
SMALL
GASTEIGER

@<TRIPOS>ATOM
      1 C           3.7409    0.5561   29.2310 C.ar    1  UNL1       -0.0231
      2 C           4.4595    0.8320   30.5184 C.ar    1  UNL1       -0.0246
      3 C           5.5130    1.8982   30.5757 C.ar    1  UNL1       -0.0045
      4 C           5.8480    2.6885   29.3456 C.ar    1  UNL1       -0.0002
      5 C           5.1294    2.4125   28.0582 C.ar    1  UNL1        0.0027
      6 C           4.0758    1.3463   28.0009 C.ar    1  UNL1        0.0322
      7 C           3.3572    1.0704   26.7134 C.ar    1  UNL1        0.1700
      8 N           1.9748    1.5321   26.3588 N.ar    1  UNL1       -0.1885
      9 S           1.6581    1.0314   24.9808 S.2     1  UNL1        0.0341
     10 C           2.8448    0.2602   24.4837 C.ar    1  UNL1        0.1299
     11 N           3.8949    0.2843   25.5545 N.ar    1  UNL1       -0.2181
     12 C           2.9610   -0.4163   23.1500 C.ar    1  UNL1        0.0259
     13 C           3.7986   -1.6524   23.0064 C.ar    1  UNL1        0.0018
     14 C           3.9148   -2.3289   21.6727 C.ar    1  UNL1       -0.0035
     15 C           3.1934   -1.7694   20.4826 C.ar    1  UNL1       -0.0126
     16 C           2.3558   -0.5333   20.6261 C.ar    1  UNL1        0.0645
     17 C           2.2396    0.1432   21.9598 C.ar    1  UNL1        0.0120
     18 C           1.6344    0.0262   19.4359 C.1     1  UNL1        0.1001
     19 N           0.9130    0.5857   18.2458 N.1     1  UNL1       -0.1908
     20 C           3.3096   -2.4459   19.1488 C.3     1  UNL1        0.0270
     21 C           4.4669   -3.3581   18.8689 C.3     1  UNL1        0.0044
     22 C           5.7951   -2.7846   18.4722 C.3     1  UNL1        0.0003
     23 C           4.2963   -4.8438   18.9857 C.3     1  UNL1        0.0003
     24 C           1.2536   -0.1632   29.4457 C.3     1  UNL1        0.0050
     25 C           2.6874   -0.5101   29.1737 C.3     1  UNL1        0.0261
     26 C           4.1246    0.0417   31.7486 C.3     1  UNL1        0.0433
     27 C           5.0169    0.1136   32.9522 C.3     1  UNL1        0.0768
     28 N           4.4545    0.5300   34.2790 N.3     1  UNL1       -0.2724
     29 C           3.4962    1.6812   34.3594 C.3     1  UNL1        0.0725
     30 C           2.9339    2.0976   35.6862 C.3     1  UNL1        0.0229
     31 C           3.3298    1.3629   36.9325 C.3     1  UNL1        0.0393
     32 C           4.2880    0.2117   36.8521 C.3     1  UNL1        0.0229
     33 C           4.8504   -0.2047   35.5254 C.3     1  UNL1        0.0725
     34 C           2.7674    1.7793   38.2593 C.2     1  UNL1        0.0501
     35 O           3.6905    2.1207   39.3913 O.co2   1  UNL1       -0.5492
     36 O           1.2821    1.8544   38.4541 O.co2   1  UNL1       -0.5492
@<TRIPOS>UNITY_ATOM_ATTR
35 1
charge -1
@<TRIPOS>BOND
     1    24    25    1
     2    25     1    1
     3     1     2   ar
     4     2    26    1
     5    26    27    1
     6    27    28    1
     7    28    29    1
     8    29    30    1
     9    30    31    1
    10    31    34    1
    11    34    35   ar
    12    34    36   ar
    13    31    32    1
    14    32    33    1
    15     2     3   ar
    16     3     4   ar
    17     4     5   ar
    18     5     6   ar
    19     6     7    1
    20     7     8   ar
    21     8     9   ar
    22     9    10   ar
    23    10    12    1
    24    12    13   ar
    25    13    14   ar
    26    14    15   ar
    27    15    20    1
    28    20    21    1
    29    21    22    1
    30    21    23    1
    31    15    16   ar
    32    16    18    1
    33    18    19    3
    34    16    17   ar
    35    10    11   ar
    36     6     1   ar
    37    11     7   ar
    38    33    28    1
    39    17    12   ar
@<TRIPOS>MOLECULE
*****
 36 39 0 0 0
SMALL
GASTEIGER

@<TRIPOS>ATOM
      1 C           5.5726    0.9013   33.1553 C.ar    1  UNL1       -0.0231
      2 C           4.9039    2.1662   33.6054 C.ar    1  UNL1       -0.0246
      3 C           3.4361    2.3642   33.3676 C.ar    1  UNL1       -0.0045
      4 C           2.6372    1.2972   32.6797 C.ar    1  UNL1       -0.0002
      5 C           3.3060    0.0323   32.2296 C.ar    1  UNL1        0.0027
      6 C           4.7737   -0.1657   32.4675 C.ar    1  UNL1        0.0322
      7 C           5.4425   -1.4307   32.0174 C.ar    1  UNL1        0.1700
      8 N           5.7432   -2.6229   32.8765 N.ar    1  UNL1       -0.1885
      9 S           6.4145   -3.6546   32.0192 S.2     1  UNL1        0.0341
     10 C           6.5287   -3.1000   30.6302 C.ar    1  UNL1        0.1299
     11 N           5.9280   -1.7256   30.6290 N.ar    1  UNL1       -0.2181
     12 C           7.1369   -3.7974   29.4496 C.ar    1  UNL1        0.0259
     13 C           8.3030   -4.7208   29.6429 C.ar    1  UNL1        0.0018
     14 C           8.9112   -5.4182   28.4623 C.ar    1  UNL1       -0.0035
     15 C           8.3532   -5.1921   27.0884 C.ar    1  UNL1       -0.0126
     16 C           7.1871   -4.2687   26.8951 C.ar    1  UNL1        0.0645
     17 C           6.5789   -3.5713   28.0757 C.ar    1  UNL1        0.0120
     18 C           6.6291   -4.0427   25.5212 C.1     1  UNL1        0.1001
     19 N           6.0711   -3.8167   24.1474 N.1     1  UNL1       -0.1908
     20 C           8.9614   -5.8895   25.9079 C.3     1  UNL1        0.0270
     21 C           8.2802   -7.0848   25.3101 C.3     1  UNL1        0.0044
     22 C           8.4989   -7.4288   23.8665 C.3     1  UNL1        0.0003
     23 C           7.3802   -7.9362   26.1559 C.3     1  UNL1        0.0003
     24 C           7.5137    0.0470   34.6562 C.3     1  UNL1        0.0050
     25 C           7.0404    0.7033   33.3932 C.3     1  UNL1        0.0261
     26 C           5.7028    3.2333   34.2933 C.3     1  UNL1        0.0433
     27 C           5.8288    3.2297   35.7880 C.3     1  UNL1        0.0768
     28 N           4.6755    2.7828   36.6368 N.3     1  UNL1       -0.2724
     29 C           3.5910    3.7534   36.9996 C.3     1  UNL1        0.0725
     30 C           2.4378    3.3065   37.8484 C.3     1  UNL1        0.0229
     31 C           2.3692    1.8890   38.3343 C.3     1  UNL1        0.0393
     32 C           3.4538    0.9185   37.9715 C.3     1  UNL1        0.0229
     33 C           4.6069    1.3653   37.1227 C.3     1  UNL1        0.0725
     34 C           1.2160    1.4421   39.1832 C.2     1  UNL1        0.0501
     35 O           1.4381    0.4556   40.2910 O.co2   1  UNL1       -0.5492
     36 O          -0.1594    1.9818   38.9241 O.co2   1  UNL1       -0.5492
@<TRIPOS>UNITY_ATOM_ATTR
35 1
charge -1
@<TRIPOS>BOND
     1    24    25    1
     2    25     1    1
     3     1     2   ar
     4     2    26    1
     5    26    27    1
     6    27    28    1
     7    28    29    1
     8    29    30    1
     9    30    31    1
    10    31    34    1
    11    34    35   ar
    12    34    36   ar
    13    31    32    1
    14    32    33    1
    15     2     3   ar
    16     3     4   ar
    17     4     5   ar
    18     5     6   ar
    19     6     7    1
    20     7     8   ar
    21     8     9   ar
    22     9    10   ar
    23    10    12    1
    24    12    13   ar
    25    13    14   ar
    26    14    15   ar
    27    15    20    1
    28    20    21    1
    29    21    22    1
    30    21    23    1
    31    15    16   ar
    32    16    18    1
    33    18    19    3
    34    16    17   ar
    35    10    11   ar
    36     6     1   ar
    37    11     7   ar
    38    33    28    1
    39    17    12   ar
@<TRIPOS>MOLECULE
*****
 36 39 0 0 0
SMALL
GASTEIGER

@<TRIPOS>ATOM
      1 C           8.3655   -5.1801   26.3070 C.ar    1  UNL1       -0.0231
      2 C           8.7847   -5.9686   27.5122 C.ar    1  UNL1       -0.0246
      3 C           8.8415   -7.4661   27.4462 C.ar    1  UNL1       -0.0045
      4 C           8.4791   -8.1750   26.1750 C.ar    1  UNL1       -0.0002
      5 C           8.0599   -7.3865   24.9698 C.ar    1  UNL1        0.0027
      6 C           8.0030   -5.8891   25.0358 C.ar    1  UNL1        0.0322
      7 C           7.5838   -5.1006   23.8306 C.ar    1  UNL1        0.1700
      8 N           8.4510   -4.7580   22.6557 N.ar    1  UNL1       -0.1885
      9 S           7.6269   -3.9619   21.6877 S.2     1  UNL1        0.0341
     10 C           6.2502   -3.8125   22.2643 C.ar    1  UNL1        0.1299
     11 N           6.2236   -4.5162   23.5887 N.ar    1  UNL1       -0.2181
     12 C           5.1018   -3.0868   21.6282 C.ar    1  UNL1        0.0259
     13 C           4.6265   -3.4858   20.2626 C.ar    1  UNL1        0.0018
     14 C           3.4782   -2.7601   19.6266 C.ar    1  UNL1       -0.0035
     15 C           2.8051   -1.6354   20.3561 C.ar    1  UNL1       -0.0126
     16 C           3.2804   -1.2365   21.7217 C.ar    1  UNL1        0.0645
     17 C           4.4288   -1.9622   22.3578 C.ar    1  UNL1        0.0120
     18 C           2.6073   -0.1119   22.4513 C.1     1  UNL1        0.1001
     19 N           1.9343    1.0127   23.1808 N.1     1  UNL1       -0.1908
     20 C           1.6567   -0.9098   19.7200 C.3     1  UNL1        0.0270
     21 C           1.9182    0.2146   18.7622 C.3     1  UNL1        0.0044
     22 C           0.9253    1.3309   18.6269 C.3     1  UNL1        0.0003
     23 C           3.1725    0.2229   17.9396 C.3     1  UNL1        0.0003
     24 C           9.5360   -2.8718   26.0796 C.3     1  UNL1        0.0050
     25 C           8.3086   -3.6826   26.3731 C.3     1  UNL1        0.0261
     26 C           9.1471   -5.2596   28.7835 C.3     1  UNL1        0.0433
     27 C           8.3561   -5.5093   30.0332 C.3     1  UNL1        0.0768
     28 N           7.9786   -4.3625   30.9236 N.3     1  UNL1       -0.2724
     29 C           6.5392   -3.9650   31.0650 C.3     1  UNL1        0.0725
     30 C           6.1619   -2.8184   31.9554 C.3     1  UNL1        0.0229
     31 C           7.2240   -2.0693   32.7042 C.3     1  UNL1        0.0393
     32 C           8.6634   -2.4668   32.5628 C.3     1  UNL1        0.0229
     33 C           9.0407   -3.6134   31.6724 C.3     1  UNL1        0.0725
     34 C           6.8465   -0.9225   33.5946 C.2     1  UNL1        0.0501
     35 O           7.9077   -0.1793   34.3506 O.co2   1  UNL1       -0.5492
     36 O           5.4081   -0.5192   33.7290 O.co2   1  UNL1       -0.5492
@<TRIPOS>UNITY_ATOM_ATTR
35 1
charge -1
@<TRIPOS>BOND
     1    24    25    1
     2    25     1    1
     3     1     2   ar
     4     2    26    1
     5    26    27    1
     6    27    28    1
     7    28    29    1
     8    29    30    1
     9    30    31    1
    10    31    34    1
    11    34    35   ar
    12    34    36   ar
    13    31    32    1
    14    32    33    1
    15     2     3   ar
    16     3     4   ar
    17     4     5   ar
    18     5     6   ar
    19     6     7    1
    20     7     8   ar
    21     8     9   ar
    22     9    10   ar
    23    10    12    1
    24    12    13   ar
    25    13    14   ar
    26    14    15   ar
    27    15    20    1
    28    20    21    1
    29    21    22    1
    30    21    23    1
    31    15    16   ar
    32    16    18    1
    33    18    19    3
    34    16    17   ar
    35    10    11   ar
    36     6     1   ar
    37    11     7   ar
    38    33    28    1
    39    17    12   ar
