@<TRIPOS>MOLECULE
*****
 31 33 0 0 0
SMALL
GASTEIGER

@<TRIPOS>ATOM
      1 C          -8.0650  -19.8904   22.3173 C.ar    1  UNL1        0.0391
      2 C          -7.9817  -19.1627   21.0083 C.ar    1  UNL1        0.0029
      3 C          -6.8071  -19.3821   20.1017 C.ar    1  UNL1       -0.0025
      4 C          -5.7157  -20.3292   20.5040 C.ar    1  UNL1       -0.0026
      5 C          -5.7990  -21.0569   21.8130 C.ar    1  UNL1       -0.0025
      6 C          -6.9737  -20.8376   22.7196 C.ar    1  UNL1        0.0029
      7 C         -11.3872  -18.9347   24.0824 C.ar    1  UNL1        0.2366
      8 N         -10.4800  -18.8970   22.8884 N.ar    1  UNL1       -0.1907
      9 C          -9.2397  -19.6711   23.2240 C.ar    1  UNL1        0.2033
     10 N          -9.3804  -20.1872   24.6253 N.ar    1  UNL1       -0.0560
     11 O         -10.7075  -19.7322   25.1559 O.2     1  UNL1       -0.3370
     12 C         -12.7370  -18.2886   24.1849 C.3     1  UNL1        0.0880
     13 C         -13.2612  -17.4622   23.0481 C.3     1  UNL1        0.0098
     14 C         -12.6762  -16.1087   22.7727 C.3     1  UNL1        0.0005
     15 C         -11.6380  -15.9440   21.7026 C.3     1  UNL1        0.0000
     16 C         -11.9178  -16.4172   20.3069 C.3     1  UNL1        0.0000
     17 C         -11.2366  -18.8329   19.6360 C.3     1  UNL1        0.0000
     18 C         -10.9660  -17.3575   19.6288 C.3     1  UNL1        0.0000
     19 C          -4.5410  -20.5486   19.5973 C.3     1  UNL1        0.1164
     20 N          -3.4785  -19.4965   19.4785 N.am    1  UNL1       -0.2993
     21 C          -2.3734  -19.4289   20.4905 C.2     1  UNL1        0.2394
     22 O          -2.3308  -20.4135   21.6213 O.2     1  UNL1       -0.2736
     23 H          -3.5065  -18.8503   18.7363 H       1  UNL1        0.1498
     24 C          -1.3109  -18.3768   20.3717 C.3     1  UNL1        0.1586
     25 N           0.0858  -18.5873   19.8669 N.3     1  UNL1       -0.2893
     26 C           0.8014  -17.2701   19.9200 C.3     1  UNL1        0.0715
     27 C          -0.1532  -16.2454   20.4576 C.3     1  UNL1        0.0482
     28 C          -1.4586  -16.9294   20.7367 C.3     1  UNL1        0.1350
     29 O          -2.6947  -16.2800   21.2847 O.3     1  UNL1       -0.3825
     30 H           0.0589  -18.9282   18.9059 H       1  UNL1        0.1237
     31 H          -2.5249  -15.3369   21.4352 H       1  UNL1        0.2104
@<TRIPOS>BOND
     1    17    18    1
     2    18    16    1
     3    16    15    1
     4    15    14    1
     5    14    13    1
     6    13    12    1
     7    12     7    1
     8     7     8   ar
     9     8     9   ar
    10     9     1    1
    11     1     2   ar
    12     2     3   ar
    13     3     4   ar
    14     4    19    1
    15    19    20    1
    16    20    21   am
    17    21    22    2
    18    24    21    1
    19    24    25    1
    20    25    26    1
    21    26    27    1
    22    27    28    1
    23    28    29    1
    24     4     5   ar
    25     5     6   ar
    26     9    10   ar
    27    10    11   ar
    28    11     7   ar
    29     6     1   ar
    30    28    24    1
    31    20    23    1
    32    25    30    1
    33    29    31    1
@<TRIPOS>MOLECULE
*****
 31 33 0 0 0
SMALL
GASTEIGER

@<TRIPOS>ATOM
      1 C          -8.7968  -19.1699   20.5337 C.ar    1  UNL1        0.0391
      2 C          -7.8746  -19.1711   21.7166 C.ar    1  UNL1        0.0029
      3 C          -6.5067  -19.7755   21.6006 C.ar    1  UNL1       -0.0025
      4 C          -6.0610  -20.3787   20.3016 C.ar    1  UNL1       -0.0026
      5 C          -6.9832  -20.3775   19.1186 C.ar    1  UNL1       -0.0025
      6 C          -8.3511  -19.7731   19.2346 C.ar    1  UNL1        0.0029
      7 C         -12.3886  -18.0252   21.4581 C.ar    1  UNL1        0.2366
      8 N         -11.1609  -18.8407   21.7369 N.ar    1  UNL1       -0.1907
      9 C         -10.1648  -18.5656   20.6497 C.ar    1  UNL1        0.2033
     10 N         -10.7768  -17.5800   19.6989 N.ar    1  UNL1       -0.0560
     11 O         -12.1512  -17.2460   20.1984 O.2     1  UNL1       -0.3370
     12 C         -13.6348  -17.9942   22.2923 C.3     1  UNL1        0.0880
     13 C         -13.5572  -17.6200   23.7428 C.3     1  UNL1        0.0098
     14 C         -12.9882  -18.5877   24.7377 C.3     1  UNL1        0.0005
     15 C         -11.5862  -19.0949   24.5732 C.3     1  UNL1        0.0000
     16 C         -10.4548  -18.4170   25.2876 C.3     1  UNL1        0.0000
     17 C          -9.8627  -16.3327   23.8540 C.3     1  UNL1        0.0000
     18 C          -9.4509  -17.6160   24.5124 C.3     1  UNL1        0.0000
     19 C          -4.6930  -20.9830   20.1855 C.3     1  UNL1        0.1164
     20 N          -3.5151  -20.1150   19.8554 N.am    1  UNL1       -0.2993
     21 C          -2.8500  -19.3114   20.9334 C.2     1  UNL1        0.2394
     22 O          -3.3629  -19.3759   22.3415 O.2     1  UNL1       -0.2736
     23 H          -3.1785  -20.0726   18.9312 H       1  UNL1        0.1498
     24 C          -1.6721  -18.4434   20.6033 C.3     1  UNL1        0.1586
     25 N          -0.3677  -18.9090   20.0274 N.3     1  UNL1       -0.2893
     26 C           0.5188  -17.7107   19.8593 C.3     1  UNL1        0.0715
     27 C          -0.2378  -16.5045   20.3312 C.3     1  UNL1        0.0482
     28 C          -1.5918  -16.9573   20.7910 C.3     1  UNL1        0.1350
     29 O          -2.6754  -16.0784   21.3419 O.3     1  UNL1       -0.3825
     30 H          -0.5271  -19.3513   19.1223 H       1  UNL1        0.1237
     31 H          -2.3685  -15.1584   21.3581 H       1  UNL1        0.2104
@<TRIPOS>BOND
     1    17    18    1
     2    18    16    1
     3    16    15    1
     4    15    14    1
     5    14    13    1
     6    13    12    1
     7    12     7    1
     8     7     8   ar
     9     8     9   ar
    10     9     1    1
    11     1     2   ar
    12     2     3   ar
    13     3     4   ar
    14     4    19    1
    15    19    20    1
    16    20    21   am
    17    21    22    2
    18    24    21    1
    19    24    25    1
    20    25    26    1
    21    26    27    1
    22    27    28    1
    23    28    29    1
    24     4     5   ar
    25     5     6   ar
    26     9    10   ar
    27    10    11   ar
    28    11     7   ar
    29     6     1   ar
    30    28    24    1
    31    20    23    1
    32    25    30    1
    33    29    31    1
@<TRIPOS>MOLECULE
*****
 31 33 0 0 0
SMALL
GASTEIGER

@<TRIPOS>ATOM
      1 C           8.0774   -5.7265   24.3474 C.ar    1  UNL1        0.0391
      2 C           8.9755   -6.9129   24.1580 C.ar    1  UNL1        0.0029
      3 C           8.9474   -8.0402   25.1470 C.ar    1  UNL1       -0.0025
      4 C           8.0213   -7.9812   26.3254 C.ar    1  UNL1       -0.0026
      5 C           7.1231   -6.7949   26.5149 C.ar    1  UNL1       -0.0025
      6 C           7.1512   -5.6675   25.5258 C.ar    1  UNL1        0.0029
      7 C           7.7459   -3.2758   21.3557 C.ar    1  UNL1        0.2366
      8 N           7.4705   -4.6024   21.9994 N.ar    1  UNL1       -0.1907
      9 C           8.1054   -4.5991   23.3583 C.ar    1  UNL1        0.2033
     10 N           8.7734   -3.2704   23.5546 N.ar    1  UNL1       -0.0560
     11 O           8.5512   -2.4526   22.3170 O.2     1  UNL1       -0.3370
     12 C           7.2953   -2.8476   19.9906 C.3     1  UNL1        0.0880
     13 C           6.2238   -1.8078   19.8464 C.3     1  UNL1        0.0098
     14 C           5.1592   -1.6775   20.8949 C.3     1  UNL1        0.0005
     15 C           3.7734   -2.1835   20.6237 C.3     1  UNL1        0.0000
     16 C           3.4579   -2.8399   19.3124 C.3     1  UNL1        0.0000
     17 C           4.5736   -5.1166   18.7451 C.3     1  UNL1        0.0000
     18 C           3.3848   -4.3354   19.2206 C.3     1  UNL1        0.0000
     19 C           7.9932   -9.1087   27.3145 C.3     1  UNL1        0.1164
     20 N           6.7242   -9.8754   27.5420 N.am    1  UNL1       -0.2993
     21 C           6.7779  -11.3474   27.8255 C.2     1  UNL1        0.2394
     22 O           8.1005  -12.0527   27.8813 O.2     1  UNL1       -0.2736
     23 H           5.8561   -9.4125   27.5054 H       1  UNL1        0.1498
     24 C           5.5089  -12.1141   28.0530 C.3     1  UNL1        0.1586
     25 N           5.3975  -13.4624   28.7009 N.3     1  UNL1       -0.2893
     26 C           3.9483  -13.8487   28.7209 C.3     1  UNL1        0.0715
     27 C           3.1639  -12.7392   28.0854 C.3     1  UNL1        0.0482
     28 C           4.1285  -11.6672   27.6726 C.3     1  UNL1        0.1350
     29 O           3.7747  -10.3751   26.9978 O.3     1  UNL1       -0.3825
     30 H           5.7574  -13.4190   29.6543 H       1  UNL1        0.1237
     31 H           2.8148  -10.3322   26.8645 H       1  UNL1        0.2104
@<TRIPOS>BOND
     1    17    18    1
     2    18    16    1
     3    16    15    1
     4    15    14    1
     5    14    13    1
     6    13    12    1
     7    12     7    1
     8     7     8   ar
     9     8     9   ar
    10     9     1    1
    11     1     2   ar
    12     2     3   ar
    13     3     4   ar
    14     4    19    1
    15    19    20    1
    16    20    21   am
    17    21    22    2
    18    24    21    1
    19    24    25    1
    20    25    26    1
    21    26    27    1
    22    27    28    1
    23    28    29    1
    24     4     5   ar
    25     5     6   ar
    26     9    10   ar
    27    10    11   ar
    28    11     7   ar
    29     6     1   ar
    30    28    24    1
    31    20    23    1
    32    25    30    1
    33    29    31    1
@<TRIPOS>MOLECULE
*****
 31 33 0 0 0
SMALL
GASTEIGER

@<TRIPOS>ATOM
      1 C           8.0179   -5.7377   24.1673 C.ar    1  UNL1        0.0391
      2 C           8.8804   -6.9489   23.9698 C.ar    1  UNL1        0.0029
      3 C           8.8752   -8.0478   24.9907 C.ar    1  UNL1       -0.0025
      4 C           8.0076   -7.9356   26.2091 C.ar    1  UNL1       -0.0026
      5 C           7.1451   -6.7244   26.4066 C.ar    1  UNL1       -0.0025
      6 C           7.1502   -5.6254   25.3857 C.ar    1  UNL1        0.0029
      7 C           7.5177   -3.3185   21.1734 C.ar    1  UNL1        0.2366
      8 N           7.1957   -4.5930   21.8960 N.ar    1  UNL1       -0.1907
      9 C           8.0230   -4.6387   23.1464 C.ar    1  UNL1        0.2033
     10 N           8.8563   -3.3925   23.1966 N.ar    1  UNL1       -0.0560
     11 O           8.5441   -2.5766   21.9773 O.2     1  UNL1       -0.3370
     12 C           6.9186   -2.8656   19.8750 C.3     1  UNL1        0.0880
     13 C           5.7080   -3.5599   19.3249 C.3     1  UNL1        0.0098
     14 C           4.5192   -2.7583   18.8842 C.3     1  UNL1        0.0005
     15 C           3.4774   -2.3505   19.8834 C.3     1  UNL1        0.0000
     16 C           3.7942   -1.3078   20.9141 C.3     1  UNL1        0.0000
     17 C           4.3310   -2.8369   22.9447 C.3     1  UNL1        0.0000
     18 C           3.6525   -1.6276   22.3727 C.3     1  UNL1        0.0000
     19 C           8.0024   -9.0346   27.2300 C.3     1  UNL1        0.1164
     20 N           6.7345   -9.7808   27.5224 N.am    1  UNL1       -0.2993
     21 C           6.7839  -11.2433   27.8519 C.2     1  UNL1        0.2394
     22 O           8.1013  -11.9596   27.8891 O.2     1  UNL1       -0.2736
     23 H           5.8699   -9.3106   27.4980 H       1  UNL1        0.1498
     24 C           5.5160  -11.9895   28.1442 C.3     1  UNL1        0.1586
     25 N           4.5748  -11.7175   29.2800 N.3     1  UNL1       -0.2893
     26 C           3.4437  -12.6986   29.1899 C.3     1  UNL1        0.0715
     27 C           3.6859  -13.5770   27.9983 C.3     1  UNL1        0.0482
     28 C           4.9667  -13.1388   27.3521 C.3     1  UNL1        0.1350
     29 O           5.5888  -13.7436   26.1286 O.3     1  UNL1       -0.3825
     30 H           4.2140  -10.7660   29.2103 H       1  UNL1        0.1237
     31 H           5.0333  -14.4722   25.8099 H       1  UNL1        0.2104
@<TRIPOS>BOND
     1    17    18    1
     2    18    16    1
     3    16    15    1
     4    15    14    1
     5    14    13    1
     6    13    12    1
     7    12     7    1
     8     7     8   ar
     9     8     9   ar
    10     9     1    1
    11     1     2   ar
    12     2     3   ar
    13     3     4   ar
    14     4    19    1
    15    19    20    1
    16    20    21   am
    17    21    22    2
    18    24    21    1
    19    24    25    1
    20    25    26    1
    21    26    27    1
    22    27    28    1
    23    28    29    1
    24     4     5   ar
    25     5     6   ar
    26     9    10   ar
    27    10    11   ar
    28    11     7   ar
    29     6     1   ar
    30    28    24    1
    31    20    23    1
    32    25    30    1
    33    29    31    1
@<TRIPOS>MOLECULE
*****
 31 33 0 0 0
SMALL
GASTEIGER

@<TRIPOS>ATOM
      1 C          -8.1116  -17.0468   23.9852 C.ar    1  UNL1        0.0391
      2 C          -7.1960  -17.7103   22.9996 C.ar    1  UNL1        0.0029
      3 C          -5.7970  -17.2015   22.8155 C.ar    1  UNL1       -0.0025
      4 C          -5.3137  -16.0292   23.6169 C.ar    1  UNL1       -0.0026
      5 C          -6.2294  -15.3658   24.6024 C.ar    1  UNL1       -0.0025
      6 C          -7.6283  -15.8746   24.7866 C.ar    1  UNL1        0.0029
      7 C         -11.8757  -17.9813   23.8283 C.ar    1  UNL1        0.2366
      8 N         -10.6762  -17.2766   23.2673 N.ar    1  UNL1       -0.1907
      9 C          -9.5107  -17.5556   24.1693 C.ar    1  UNL1        0.2033
     10 N          -9.9898  -18.4327   25.2879 N.ar    1  UNL1       -0.0560
     11 O         -11.4514  -18.6958   25.0771 O.2     1  UNL1       -0.3370
     12 C         -13.2568  -17.9729   23.2432 C.3     1  UNL1        0.0880
     13 C         -13.4530  -17.6674   21.7878 C.3     1  UNL1        0.0098
     14 C         -12.2979  -17.7736   20.8368 C.3     1  UNL1        0.0005
     15 C         -11.7609  -19.1216   20.4566 C.3     1  UNL1        0.0000
     16 C         -10.3500  -19.4925   20.8056 C.3     1  UNL1        0.0000
     17 C          -8.0765  -19.7243   19.5697 C.3     1  UNL1        0.0000
     18 C          -9.2052  -18.8687   20.0639 C.3     1  UNL1        0.0000
     19 C          -3.9146  -15.5204   23.4327 C.3     1  UNL1        0.1164
     20 N          -3.1459  -15.8716   22.1935 N.am    1  UNL1       -0.2993
     21 C          -2.3724  -17.1553   22.1293 C.2     1  UNL1        0.2394
     22 O          -2.3678  -18.0877   23.3043 O.2     1  UNL1       -0.2736
     23 H          -3.1490  -15.2597   21.4223 H       1  UNL1        0.1498
     24 C          -1.6037  -17.5065   20.8901 C.3     1  UNL1        0.1586
     25 N          -0.1394  -17.8243   20.8214 N.3     1  UNL1       -0.2893
     26 C           0.2051  -18.1158   19.3909 C.3     1  UNL1        0.0715
     27 C          -1.0465  -17.9782   18.5754 C.3     1  UNL1        0.0482
     28 C          -2.1643  -17.6017   19.5021 C.3     1  UNL1        0.1350
     29 O          -3.5921  -17.3623   19.1095 O.3     1  UNL1       -0.3825
     30 H           0.0655  -18.6391   21.3997 H       1  UNL1        0.1237
     31 H          -3.6899  -17.4885   18.1527 H       1  UNL1        0.2104
@<TRIPOS>BOND
     1    17    18    1
     2    18    16    1
     3    16    15    1
     4    15    14    1
     5    14    13    1
     6    13    12    1
     7    12     7    1
     8     7     8   ar
     9     8     9   ar
    10     9     1    1
    11     1     2   ar
    12     2     3   ar
    13     3     4   ar
    14     4    19    1
    15    19    20    1
    16    20    21   am
    17    21    22    2
    18    24    21    1
    19    24    25    1
    20    25    26    1
    21    26    27    1
    22    27    28    1
    23    28    29    1
    24     4     5   ar
    25     5     6   ar
    26     9    10   ar
    27    10    11   ar
    28    11     7   ar
    29     6     1   ar
    30    28    24    1
    31    20    23    1
    32    25    30    1
    33    29    31    1
@<TRIPOS>MOLECULE
*****
 31 33 0 0 0
SMALL
GASTEIGER

@<TRIPOS>ATOM
      1 C           7.0489   -4.7435   26.2619 C.ar    1  UNL1        0.0391
      2 C           6.7925   -3.5356   27.1135 C.ar    1  UNL1        0.0029
      3 C           6.7675   -3.6631   28.6078 C.ar    1  UNL1       -0.0025
      4 C           6.9989   -4.9985   29.2506 C.ar    1  UNL1       -0.0026
      5 C           7.2553   -6.2064   28.3990 C.ar    1  UNL1       -0.0025
      6 C           7.2803   -6.0789   26.9047 C.ar    1  UNL1        0.0029
      7 C           6.8239   -3.7295   22.5220 C.ar    1  UNL1        0.2366
      8 N           6.6219   -3.4243   23.9766 N.ar    1  UNL1       -0.1907
      9 C           7.0739   -4.6160   24.7675 C.ar    1  UNL1        0.2033
     10 N           7.5554   -5.6578   23.8017 N.ar    1  UNL1       -0.0560
     11 O           7.4009   -5.1100   22.4139 O.2     1  UNL1       -0.3370
     12 C           6.5051   -2.8150   21.3766 C.3     1  UNL1        0.0880
     13 C           7.0977   -3.0735   20.0230 C.3     1  UNL1        0.0098
     14 C           6.6523   -2.2629   18.8421 C.3     1  UNL1        0.0005
     15 C           5.4410   -2.6784   18.0611 C.3     1  UNL1        0.0000
     16 C           4.0950   -2.7053   18.7226 C.3     1  UNL1        0.0000
     17 C           4.2620   -5.2852   18.9801 C.3     1  UNL1        0.0000
     18 C           3.4723   -4.0158   19.1030 C.3     1  UNL1        0.0000
     19 C           6.9739   -5.1260   30.7450 C.3     1  UNL1        0.1164
     20 N           6.2281   -4.1204   31.5711 N.am    1  UNL1       -0.2993
     21 C           6.9730   -3.0164   32.2614 C.2     1  UNL1        0.2394
     22 O           8.4636   -2.9180   32.1255 O.2     1  UNL1       -0.2736
     23 H           5.2498   -4.1849   31.6603 H       1  UNL1        0.1498
     24 C           6.2272   -2.0107   33.0875 C.3     1  UNL1        0.1586
     25 N           6.7671   -0.7016   33.5821 N.3     1  UNL1       -0.2893
     26 C           5.6843   -0.0194   34.3644 C.3     1  UNL1        0.0715
     27 C           4.4750   -0.9070   34.3533 C.3     1  UNL1        0.0482
     28 C           4.8106   -2.1376   33.5641 C.3     1  UNL1        0.1350
     29 O           3.8910   -3.2925   33.2983 O.3     1  UNL1       -0.3825
     30 H           7.0418   -0.1194   32.7909 H       1  UNL1        0.1237
     31 H           3.0326   -3.1255   33.7179 H       1  UNL1        0.2104
@<TRIPOS>BOND
     1    17    18    1
     2    18    16    1
     3    16    15    1
     4    15    14    1
     5    14    13    1
     6    13    12    1
     7    12     7    1
     8     7     8   ar
     9     8     9   ar
    10     9     1    1
    11     1     2   ar
    12     2     3   ar
    13     3     4   ar
    14     4    19    1
    15    19    20    1
    16    20    21   am
    17    21    22    2
    18    24    21    1
    19    24    25    1
    20    25    26    1
    21    26    27    1
    22    27    28    1
    23    28    29    1
    24     4     5   ar
    25     5     6   ar
    26     9    10   ar
    27    10    11   ar
    28    11     7   ar
    29     6     1   ar
    30    28    24    1
    31    20    23    1
    32    25    30    1
    33    29    31    1
@<TRIPOS>MOLECULE
*****
 31 33 0 0 0
SMALL
GASTEIGER

@<TRIPOS>ATOM
      1 C           6.2860   -3.9222   23.2099 C.ar    1  UNL1        0.0391
      2 C           7.4030   -4.8977   23.4344 C.ar    1  UNL1        0.0029
      3 C           8.0239   -5.0270   24.7938 C.ar    1  UNL1       -0.0025
      4 C           7.5276   -4.1808   25.9285 C.ar    1  UNL1       -0.0026
      5 C           6.4106   -3.2053   25.7040 C.ar    1  UNL1       -0.0025
      6 C           5.7897   -3.0760   24.3446 C.ar    1  UNL1        0.0029
      7 C           5.2850   -3.1668   19.5365 C.ar    1  UNL1        0.2366
      8 N           6.2309   -3.0260   20.6921 N.ar    1  UNL1       -0.1907
      9 C           5.6651   -3.7928   21.8505 C.ar    1  UNL1        0.2033
     10 N           4.3694   -4.4076   21.4108 N.ar    1  UNL1       -0.0560
     11 O           4.1345   -4.0207   19.9808 O.2     1  UNL1       -0.3370
     12 C           5.4590   -2.5602   18.1757 C.3     1  UNL1        0.0880
     13 C           5.1180   -1.1173   17.9486 C.3     1  UNL1        0.0098
     14 C           3.7128   -0.7244   17.6007 C.3     1  UNL1        0.0005
     15 C           3.0300    0.3721   18.3632 C.3     1  UNL1        0.0000
     16 C           1.6401    0.1673   18.8885 C.3     1  UNL1        0.0000
     17 C           2.5911   -0.9898   21.0115 C.3     1  UNL1        0.0000
     18 C           1.4224   -0.6182   20.1478 C.3     1  UNL1        0.0000
     19 C           8.1485   -4.3102   27.2879 C.3     1  UNL1        0.1164
     20 N           7.6790   -3.4364   28.4131 N.am    1  UNL1       -0.2993
     21 C           6.8969   -4.0298   29.5473 C.2     1  UNL1        0.2394
     22 O           6.5844   -5.4969   29.5563 O.2     1  UNL1       -0.2736
     23 H           7.8840   -2.4736   28.4072 H       1  UNL1        0.1498
     24 C           6.4273   -3.1561   30.6725 C.3     1  UNL1        0.1586
     25 N           6.1192   -1.6909   30.5816 N.3     1  UNL1       -0.2893
     26 C           5.6849   -1.2234   31.9391 C.3     1  UNL1        0.0715
     27 C           5.7246   -2.3997   32.8691 C.3     1  UNL1        0.0482
     28 C           6.1835   -3.5941   32.0863 C.3     1  UNL1        0.1350
     29 O           6.3663   -4.9828   32.6230 O.3     1  UNL1       -0.3825
     30 H           5.3707   -1.5359   29.9062 H       1  UNL1        0.1237
     31 H           6.1409   -4.9971   33.5664 H       1  UNL1        0.2104
@<TRIPOS>BOND
     1    17    18    1
     2    18    16    1
     3    16    15    1
     4    15    14    1
     5    14    13    1
     6    13    12    1
     7    12     7    1
     8     7     8   ar
     9     8     9   ar
    10     9     1    1
    11     1     2   ar
    12     2     3   ar
    13     3     4   ar
    14     4    19    1
    15    19    20    1
    16    20    21   am
    17    21    22    2
    18    24    21    1
    19    24    25    1
    20    25    26    1
    21    26    27    1
    22    27    28    1
    23    28    29    1
    24     4     5   ar
    25     5     6   ar
    26     9    10   ar
    27    10    11   ar
    28    11     7   ar
    29     6     1   ar
    30    28    24    1
    31    20    23    1
    32    25    30    1
    33    29    31    1
@<TRIPOS>MOLECULE
*****
 31 33 0 0 0
SMALL
GASTEIGER

@<TRIPOS>ATOM
      1 C           3.5642    0.7328   18.3191 C.ar    1  UNL1        0.0391
      2 C           2.1022    0.3976   18.3294 C.ar    1  UNL1        0.0029
      3 C           1.0822    1.4933   18.4241 C.ar    1  UNL1       -0.0025
      4 C           1.5243    2.9242   18.5085 C.ar    1  UNL1       -0.0026
      5 C           2.9863    3.2594   18.4982 C.ar    1  UNL1       -0.0025
      6 C           4.0062    2.1637   18.4035 C.ar    1  UNL1        0.0029
      7 C           6.4307   -1.8492   18.7467 C.ar    1  UNL1        0.2366
      8 N           5.6315   -0.6836   19.2494 N.ar    1  UNL1       -0.1907
      9 C           4.5843   -0.3629   18.2244 C.ar    1  UNL1        0.2033
     10 N           4.7362   -1.3304   17.0883 N.ar    1  UNL1       -0.0560
     11 O           5.8773   -2.2489   17.4110 O.2     1  UNL1       -0.3370
     12 C           7.5811   -2.5006   19.4552 C.3     1  UNL1        0.0880
     13 C           7.3229   -3.5144   20.5302 C.3     1  UNL1        0.0098
     14 C           6.4581   -3.1599   21.7033 C.3     1  UNL1        0.0005
     15 C           5.0730   -3.7253   21.8121 C.3     1  UNL1        0.0000
     16 C           4.1189   -3.5991   20.6616 C.3     1  UNL1        0.0000
     17 C           4.5098   -5.2163   18.6661 C.3     1  UNL1        0.0000
     18 C           3.7229   -4.8158   19.8787 C.3     1  UNL1        0.0000
     19 C           0.5042    4.0200   18.6032 C.3     1  UNL1        0.1164
     20 N          -0.7309    3.8253   19.4317 N.am    1  UNL1       -0.2993
     21 C          -2.0847    3.9074   18.7908 C.2     1  UNL1        0.2394
     22 O          -2.2032    4.1842   17.3214 O.2     1  UNL1       -0.2736
     23 H          -0.6531    3.6436   20.3962 H       1  UNL1        0.1498
     24 C          -3.3198    3.7128   19.6194 C.3     1  UNL1        0.1586
     25 N          -3.4347    2.8511   20.8418 N.3     1  UNL1       -0.2893
     26 C          -4.8427    2.9513   21.3489 C.3     1  UNL1        0.0715
     27 C          -5.5982    3.8750   20.4399 C.3     1  UNL1        0.0482
     28 C          -4.6569    4.3456   19.3710 C.3     1  UNL1        0.1350
     29 O          -4.9937    5.2842   18.2505 O.3     1  UNL1       -0.3825
     30 H          -2.7850    3.1771   21.5574 H       1  UNL1        0.1237
     31 H          -5.9248    5.5476   18.3182 H       1  UNL1        0.2104
@<TRIPOS>BOND
     1    17    18    1
     2    18    16    1
     3    16    15    1
     4    15    14    1
     5    14    13    1
     6    13    12    1
     7    12     7    1
     8     7     8   ar
     9     8     9   ar
    10     9     1    1
    11     1     2   ar
    12     2     3   ar
    13     3     4   ar
    14     4    19    1
    15    19    20    1
    16    20    21   am
    17    21    22    2
    18    24    21    1
    19    24    25    1
    20    25    26    1
    21    26    27    1
    22    27    28    1
    23    28    29    1
    24     4     5   ar
    25     5     6   ar
    26     9    10   ar
    27    10    11   ar
    28    11     7   ar
    29     6     1   ar
    30    28    24    1
    31    20    23    1
    32    25    30    1
    33    29    31    1
@<TRIPOS>MOLECULE
*****
 31 33 0 0 0
SMALL
GASTEIGER

@<TRIPOS>ATOM
      1 C           8.4845   -6.2193   26.5634 C.ar    1  UNL1        0.0391
      2 C           9.4804   -6.8390   27.4982 C.ar    1  UNL1        0.0029
      3 C           9.2936   -8.2526   27.9635 C.ar    1  UNL1       -0.0025
      4 C           8.1107   -9.0466   27.4940 C.ar    1  UNL1       -0.0026
      5 C           7.1148   -8.4270   26.5591 C.ar    1  UNL1       -0.0025
      6 C           7.3016   -7.0133   26.0938 C.ar    1  UNL1        0.0029
      7 C           8.7950   -2.8393   24.6805 C.ar    1  UNL1        0.2366
      8 N           8.5161   -4.3131   24.6896 N.ar    1  UNL1       -0.1907
      9 C           8.6713   -4.8055   26.0980 C.ar    1  UNL1        0.2033
     10 N           9.0461   -3.6361   26.9593 N.ar    1  UNL1       -0.0560
     11 O           9.1226   -2.4209   26.0832 O.2     1  UNL1       -0.3370
     12 C           8.7536   -1.9416   23.4795 C.3     1  UNL1        0.0880
     13 C           7.5064   -1.8547   22.6507 C.3     1  UNL1        0.0098
     14 C           7.5863   -1.9897   21.1589 C.3     1  UNL1        0.0005
     15 C           7.0671   -3.2273   20.4890 C.3     1  UNL1        0.0000
     16 C           6.1081   -3.1128   19.3414 C.3     1  UNL1        0.0000
     17 C           4.4330   -5.0467   18.8895 C.3     1  UNL1        0.0000
     18 C           4.7283   -3.6898   19.4566 C.3     1  UNL1        0.0000
     19 C           7.9239  -10.4604   27.9593 C.3     1  UNL1        0.1164
     20 N           6.5497  -11.0600   28.0037 N.am    1  UNL1       -0.2993
     21 C           6.3383  -12.4832   27.5794 C.2     1  UNL1        0.2394
     22 O           7.5011  -13.3067   27.1109 O.2     1  UNL1       -0.2736
     23 H           5.7865  -10.5194   28.3112 H       1  UNL1        0.1498
     24 C           4.9641  -13.0827   27.6238 C.3     1  UNL1        0.1586
     25 N           4.4291  -13.9828   28.6979 N.3     1  UNL1       -0.2893
     26 C           3.0179  -14.3438   28.3398 C.3     1  UNL1        0.0715
     27 C           2.6807  -13.6669   27.0443 C.3     1  UNL1        0.0482
     28 C           3.8835  -12.8875   26.6018 C.3     1  UNL1        0.1350
     29 O           3.9875  -12.0585   25.3561 O.3     1  UNL1       -0.3825
     30 H           4.4453  -13.4983   29.5953 H       1  UNL1        0.1237
     31 H           3.1496  -12.0999   24.8692 H       1  UNL1        0.2104
@<TRIPOS>BOND
     1    17    18    1
     2    18    16    1
     3    16    15    1
     4    15    14    1
     5    14    13    1
     6    13    12    1
     7    12     7    1
     8     7     8   ar
     9     8     9   ar
    10     9     1    1
    11     1     2   ar
    12     2     3   ar
    13     3     4   ar
    14     4    19    1
    15    19    20    1
    16    20    21   am
    17    21    22    2
    18    24    21    1
    19    24    25    1
    20    25    26    1
    21    26    27    1
    22    27    28    1
    23    28    29    1
    24     4     5   ar
    25     5     6   ar
    26     9    10   ar
    27    10    11   ar
    28    11     7   ar
    29     6     1   ar
    30    28    24    1
    31    20    23    1
    32    25    30    1
    33    29    31    1
