@<TRIPOS>MOLECULE
*****
 34 38 0 0 0
SMALL
GASTEIGER

@<TRIPOS>ATOM
      1 O           9.5051   -2.3776   23.8021 O.2     1  UNL1       -0.2728
      2 C           8.2212   -2.2528   23.0366 C.2     1  UNL1        0.2488
      3 N           8.1412   -1.3386   21.8500 N.am    1  UNL1       -0.2779
      4 C           9.3452   -0.5493   21.4289 C.3     1  UNL1        0.0935
      5 C           9.2652    0.3648   20.2423 C.3     1  UNL1        0.0219
      6 C           7.9813    0.4896   19.4769 C.3     1  UNL1        0.0078
      7 C           6.7773   -0.2997   19.8981 C.3     1  UNL1        0.0419
      8 C           6.8573   -1.2138   21.0846 C.3     1  UNL1        0.0953
      9 C           5.4933   -0.1749   19.1326 C.ar    1  UNL1       -0.0209
     10 C           4.3634    0.6385   19.6909 C.ar    1  UNL1       -0.0042
     11 C           3.0795    0.7634   18.9255 C.ar    1  UNL1       -0.0003
     12 C           2.9254    0.0748   17.6018 C.ar    1  UNL1       -0.0000
     13 C           4.0553   -0.7386   17.0436 C.ar    1  UNL1       -0.0003
     14 C           5.3393   -0.8634   17.8090 C.ar    1  UNL1       -0.0042
     15 C           7.0172   -3.0421   23.4578 C.3     1  UNL1        0.1943
     16 N           6.7047   -3.2134   24.9149 N.ar    1  UNL1       -0.2839
     17 C           6.0043   -2.1197   25.6653 C.ar    1  UNL1        0.2806
     18 O           5.6162   -0.8548   24.9588 O.2     1  UNL1       -0.2652
     19 C           5.6919   -2.2911   27.1224 C.ar    1  UNL1        0.1595
     20 N           6.0799   -3.5560   27.8290 N.ar    1  UNL1       -0.2374
     21 C           6.7804   -4.6497   27.0785 C.ar    1  UNL1        0.0982
     22 C           7.1684   -5.9147   27.7851 C.ar    1  UNL1        0.0328
     23 C           7.8689   -7.0083   27.0346 C.ar    1  UNL1        0.0698
     24 CL          8.2569   -8.2733   27.7412 Cl      1  UNL1       -0.0813
     25 C           8.1813   -6.8370   25.5775 C.ar    1  UNL1        0.0697
     26 CL          8.8818   -7.9307   24.8271 Cl      1  UNL1       -0.0813
     27 C           7.7933   -5.5720   24.8709 C.ar    1  UNL1        0.0310
     28 C           7.0928   -4.4784   25.6215 C.ar    1  UNL1        0.0815
     29 C           5.6532   -2.0032   21.5058 C.3     1  UNL1        0.0924
     30 N           5.0117   -2.9615   20.5467 N.3     1  UNL1       -0.2713
     31 C           3.5603   -2.9919   20.1689 C.3     1  UNL1        0.0722
     32 C           3.3605   -4.1070   19.1857 C.3     1  UNL1        0.0188
     33 C           4.6883   -4.7658   18.9558 C.3     1  UNL1        0.0188
     34 C           5.7088   -4.0578   19.7969 C.3     1  UNL1        0.0722
@<TRIPOS>BOND
     1     1     2    2
     2     2    15    1
     3    15    16    1
     4    16    17   ar
     5    17    18    2
     6    17    19   ar
     7    19    20   ar
     8    20    21   ar
     9    21    22   ar
    10    22    23   ar
    11    23    24    1
    12    23    25   ar
    13    25    26    1
    14    25    27   ar
    15    27    28   ar
    16     2     3   am
    17     3     4    1
    18     4     5    1
    19     5     6    1
    20     6     7    1
    21     7     9    1
    22     9    10   ar
    23    10    11   ar
    24    11    12   ar
    25    12    13   ar
    26    13    14   ar
    27     7     8    1
    28     8    29    1
    29    29    30    1
    30    30    31    1
    31    31    32    1
    32    32    33    1
    33    33    34    1
    34    28    16   ar
    35     8     3    1
    36    34    30    1
    37    28    21   ar
    38    14     9   ar
@<TRIPOS>MOLECULE
*****
 34 38 0 0 0
SMALL
GASTEIGER

@<TRIPOS>ATOM
      1 O           0.0625    2.7420   22.4635 O.2     1  UNL1       -0.2728
      2 C           0.7433    1.8131   21.5025 C.2     1  UNL1        0.2488
      3 N           1.6788    0.7581   22.0143 N.am    1  UNL1       -0.2779
      4 C           1.9336    0.6322   23.4871 C.3     1  UNL1        0.0935
      5 C           2.8691   -0.4227   23.9989 C.3     1  UNL1        0.0219
      6 C           3.5498   -1.3517   23.0378 C.3     1  UNL1        0.0078
      7 C           3.2951   -1.2258   21.5650 C.3     1  UNL1        0.0419
      8 C           2.3596   -0.1709   21.0533 C.3     1  UNL1        0.0953
      9 C           3.9758   -2.1548   20.6040 C.ar    1  UNL1       -0.0209
     10 C           5.4391   -1.9951   20.3156 C.ar    1  UNL1       -0.0042
     11 C           6.1198   -2.9241   19.3545 C.ar    1  UNL1       -0.0003
     12 C           5.3373   -4.0127   18.6819 C.ar    1  UNL1       -0.0000
     13 C           3.8740   -4.1723   18.9703 C.ar    1  UNL1       -0.0003
     14 C           3.1932   -3.2434   19.9313 C.ar    1  UNL1       -0.0042
     15 C           0.4885    1.9390   20.0297 C.3     1  UNL1        0.1943
     16 N          -0.1241    3.1926   19.4789 N.ar    1  UNL1       -0.2839
     17 C          -1.5654    3.5056   19.7518 C.ar    1  UNL1        0.2806
     18 O          -2.3943    2.5650   20.5753 O.2     1  UNL1       -0.2652
     19 C          -2.1779    4.7592   19.2011 C.ar    1  UNL1        0.1595
     20 N          -1.3490    5.6998   18.3775 N.ar    1  UNL1       -0.2374
     21 C           0.0923    5.3868   18.1047 C.ar    1  UNL1        0.0982
     22 C           0.9212    6.3274   17.2811 C.ar    1  UNL1        0.0328
     23 C           2.3626    6.0145   17.0083 C.ar    1  UNL1        0.0698
     24 CL          3.1914    6.9551   16.1848 Cl      1  UNL1       -0.0813
     25 C           2.9751    4.7608   17.5590 C.ar    1  UNL1        0.0697
     26 CL          4.4165    4.4478   17.2862 Cl      1  UNL1       -0.0813
     27 C           2.1463    3.8202   18.3826 C.ar    1  UNL1        0.0310
     28 C           0.7048    4.1332   18.6554 C.ar    1  UNL1        0.0815
     29 C           2.1047   -0.0449   19.5804 C.3     1  UNL1        0.0924
     30 N           3.2537    0.1363   18.6333 N.3     1  UNL1       -0.2713
     31 C           4.3948    1.0947   18.8045 C.3     1  UNL1        0.0722
     32 C           5.3097    0.9416   17.6257 C.3     1  UNL1        0.0188
     33 C           4.7341   -0.1116   16.7259 C.3     1  UNL1        0.0188
     34 C           3.4634   -0.6093   17.3487 C.3     1  UNL1        0.0722
@<TRIPOS>BOND
     1     1     2    2
     2     2    15    1
     3    15    16    1
     4    16    17   ar
     5    17    18    2
     6    17    19   ar
     7    19    20   ar
     8    20    21   ar
     9    21    22   ar
    10    22    23   ar
    11    23    24    1
    12    23    25   ar
    13    25    26    1
    14    25    27   ar
    15    27    28   ar
    16     2     3   am
    17     3     4    1
    18     4     5    1
    19     5     6    1
    20     6     7    1
    21     7     9    1
    22     9    10   ar
    23    10    11   ar
    24    11    12   ar
    25    12    13   ar
    26    13    14   ar
    27     7     8    1
    28     8    29    1
    29    29    30    1
    30    30    31    1
    31    31    32    1
    32    32    33    1
    33    33    34    1
    34    28    16   ar
    35     8     3    1
    36    34    30    1
    37    28    21   ar
    38    14     9   ar
@<TRIPOS>MOLECULE
*****
 34 38 0 0 0
SMALL
GASTEIGER

@<TRIPOS>ATOM
      1 O           7.2217   -0.5985   22.4838 O.2     1  UNL1       -0.2728
      2 C           7.0535   -1.7136   23.4729 C.2     1  UNL1        0.2488
      3 N           7.8248   -1.6977   24.7594 N.am    1  UNL1       -0.2779
      4 C           8.7643   -0.5668   25.0566 C.3     1  UNL1        0.0935
      5 C           9.5356   -0.5510   26.3430 C.3     1  UNL1        0.0219
      6 C           9.3674   -1.6661   27.3321 C.3     1  UNL1        0.0078
      7 C           8.4279   -2.7970   27.0349 C.3     1  UNL1        0.0419
      8 C           7.6567   -2.8128   25.7485 C.3     1  UNL1        0.0953
      9 C           8.2598   -3.9120   28.0240 C.ar    1  UNL1       -0.0209
     10 C           9.3317   -4.9506   28.1728 C.ar    1  UNL1       -0.0042
     11 C           9.1635   -6.0657   29.1619 C.ar    1  UNL1       -0.0003
     12 C           7.9234   -6.1422   30.0022 C.ar    1  UNL1       -0.0000
     13 C           6.8514   -5.1036   29.8533 C.ar    1  UNL1       -0.0003
     14 C           7.0196   -3.9885   28.8642 C.ar    1  UNL1       -0.0042
     15 C           6.1140   -2.8445   23.1757 C.3     1  UNL1        0.1943
     16 N           5.4348   -2.9241   21.8406 N.ar    1  UNL1       -0.2839
     17 C           5.9768   -3.8314   20.7762 C.ar    1  UNL1        0.2806
     18 O           7.1981   -4.6592   21.0469 O.2     1  UNL1       -0.2652
     19 C           5.2975   -3.9109   19.4412 C.ar    1  UNL1        0.1595
     20 N           4.0763   -3.0832   19.1706 N.ar    1  UNL1       -0.2374
     21 C           3.5342   -2.1758   20.2350 C.ar    1  UNL1        0.0982
     22 C           2.3130   -1.3480   19.9643 C.ar    1  UNL1        0.0328
     23 C           1.7709   -0.4407   21.0287 C.ar    1  UNL1        0.0698
     24 CL          0.5497    0.3871   20.7580 Cl      1  UNL1       -0.0813
     25 C           2.4502   -0.3611   22.3637 C.ar    1  UNL1        0.0697
     26 CL          1.9082    0.5462   23.4281 Cl      1  UNL1       -0.0813
     27 C           3.6715   -1.1889   22.6344 C.ar    1  UNL1        0.0310
     28 C           4.2135   -2.0963   21.5699 C.ar    1  UNL1        0.0815
     29 C           6.7171   -3.9437   25.4511 C.3     1  UNL1        0.0924
     30 N           7.2467   -5.3392   25.3019 N.3     1  UNL1       -0.2713
     31 C           8.2230   -5.8053   24.2628 C.3     1  UNL1        0.0722
     32 C           8.4727   -7.2677   24.4842 C.3     1  UNL1        0.0188
     33 C           7.6506   -7.7055   25.6600 C.3     1  UNL1        0.0188
     34 C           6.8929   -6.5136   26.1654 C.3     1  UNL1        0.0722
@<TRIPOS>BOND
     1     1     2    2
     2     2    15    1
     3    15    16    1
     4    16    17   ar
     5    17    18    2
     6    17    19   ar
     7    19    20   ar
     8    20    21   ar
     9    21    22   ar
    10    22    23   ar
    11    23    24    1
    12    23    25   ar
    13    25    26    1
    14    25    27   ar
    15    27    28   ar
    16     2     3   am
    17     3     4    1
    18     4     5    1
    19     5     6    1
    20     6     7    1
    21     7     9    1
    22     9    10   ar
    23    10    11   ar
    24    11    12   ar
    25    12    13   ar
    26    13    14   ar
    27     7     8    1
    28     8    29    1
    29    29    30    1
    30    30    31    1
    31    31    32    1
    32    32    33    1
    33    33    34    1
    34    28    16   ar
    35     8     3    1
    36    34    30    1
    37    28    21   ar
    38    14     9   ar
@<TRIPOS>MOLECULE
*****
 34 38 0 0 0
SMALL
GASTEIGER

@<TRIPOS>ATOM
      1 O           6.6166   -4.5028   23.2445 O.2     1  UNL1       -0.2728
      2 C           5.9890   -3.2177   22.7924 C.2     1  UNL1        0.2488
      3 N           5.0485   -3.2127   21.6238 N.am    1  UNL1       -0.2779
      4 C           4.7358   -4.4928   20.9073 C.3     1  UNL1        0.0935
      5 C           3.7954   -4.4878   19.7387 C.3     1  UNL1        0.0219
      6 C           3.1677   -3.2026   19.2867 C.3     1  UNL1        0.0078
      7 C           3.4804   -1.9225   20.0032 C.3     1  UNL1        0.0419
      8 C           4.4208   -1.9275   21.1717 C.3     1  UNL1        0.0953
      9 C           2.8527   -0.6373   19.5511 C.ar    1  UNL1       -0.0209
     10 C           3.6680    0.3711   18.7972 C.ar    1  UNL1       -0.0042
     11 C           3.0404    1.6562   18.3452 C.ar    1  UNL1       -0.0003
     12 C           1.5974    1.9330   18.6470 C.ar    1  UNL1       -0.0000
     13 C           0.7821    0.9246   19.4009 C.ar    1  UNL1       -0.0003
     14 C           1.4098   -0.3605   19.8529 C.ar    1  UNL1       -0.0042
     15 C           6.3017   -1.9375   23.5089 C.3     1  UNL1        0.1943
     16 N           7.1809   -1.9537   24.7241 N.ar    1  UNL1       -0.2839
     17 C           8.6567   -2.1794   24.5792 C.ar    1  UNL1        0.2806
     18 O           9.2533   -2.3890   23.2190 O.2     1  UNL1       -0.2652
     19 C           9.5359   -2.1955   25.7944 C.ar    1  UNL1        0.1595
     20 N           8.9393   -1.9859   27.1545 N.ar    1  UNL1       -0.2374
     21 C           7.4635   -1.7602   27.2995 C.ar    1  UNL1        0.0982
     22 C           6.8669   -1.5505   28.6597 C.ar    1  UNL1        0.0328
     23 C           5.3911   -1.3248   28.8047 C.ar    1  UNL1        0.0698
     24 CL          4.7945   -1.1152   30.1649 Cl      1  UNL1       -0.0813
     25 C           4.5119   -1.3087   27.5895 C.ar    1  UNL1        0.0697
     26 CL          3.0361   -1.0829   27.7345 Cl      1  UNL1       -0.0813
     27 C           5.1085   -1.5183   26.2293 C.ar    1  UNL1        0.0310
     28 C           6.5843   -1.7440   26.0843 C.ar    1  UNL1        0.0815
     29 C           4.7336   -0.6473   21.8883 C.3     1  UNL1        0.0924
     30 N           3.6455    0.0965   22.6044 N.3     1  UNL1       -0.2713
     31 C           2.7024   -0.4809   23.6179 C.3     1  UNL1        0.0722
     32 C           1.7834    0.6140   24.0726 C.3     1  UNL1        0.0188
     33 C           2.1586    1.8681   23.3401 C.3     1  UNL1        0.0188
     34 C           3.3094    1.5482   22.4327 C.3     1  UNL1        0.0722
@<TRIPOS>BOND
     1     1     2    2
     2     2    15    1
     3    15    16    1
     4    16    17   ar
     5    17    18    2
     6    17    19   ar
     7    19    20   ar
     8    20    21   ar
     9    21    22   ar
    10    22    23   ar
    11    23    24    1
    12    23    25   ar
    13    25    26    1
    14    25    27   ar
    15    27    28   ar
    16     2     3   am
    17     3     4    1
    18     4     5    1
    19     5     6    1
    20     6     7    1
    21     7     9    1
    22     9    10   ar
    23    10    11   ar
    24    11    12   ar
    25    12    13   ar
    26    13    14   ar
    27     7     8    1
    28     8    29    1
    29    29    30    1
    30    30    31    1
    31    31    32    1
    32    32    33    1
    33    33    34    1
    34    28    16   ar
    35     8     3    1
    36    34    30    1
    37    28    21   ar
    38    14     9   ar
@<TRIPOS>MOLECULE
*****
 34 38 0 0 0
SMALL
GASTEIGER

@<TRIPOS>ATOM
      1 O           5.5832    1.5417   24.1537 O.2     1  UNL1       -0.2728
      2 C           4.7727    1.2350   25.3780 C.2     1  UNL1        0.2488
      3 N           4.6632    2.2487   26.4783 N.am    1  UNL1       -0.2779
      4 C           5.3640    3.5690   26.3542 C.3     1  UNL1        0.0935
      5 C           5.2544    4.5826   27.4544 C.3     1  UNL1        0.0219
      6 C           4.4439    4.2759   28.6788 C.3     1  UNL1        0.0078
      7 C           3.7431    2.9555   28.8029 C.3     1  UNL1        0.0419
      8 C           3.8527    1.9419   27.7027 C.3     1  UNL1        0.0953
      9 C           2.9326    2.6488   30.0273 C.ar    1  UNL1       -0.0209
     10 C           3.4854    1.7392   31.0841 C.ar    1  UNL1       -0.0042
     11 C           2.6749    1.4324   32.3085 C.ar    1  UNL1       -0.0003
     12 C           1.3117    2.0353   32.4760 C.ar    1  UNL1       -0.0000
     13 C           0.7589    2.9449   31.4191 C.ar    1  UNL1       -0.0003
     14 C           1.5694    3.2517   30.1948 C.ar    1  UNL1       -0.0042
     15 C           4.0719   -0.0854   25.5022 C.3     1  UNL1        0.1943
     16 N           4.7590   -1.3437   25.0610 N.ar    1  UNL1       -0.2839
     17 C           5.7048   -2.0467   25.9890 C.ar    1  UNL1        0.2806
     18 O           5.9634   -1.4915   27.3582 O.2     1  UNL1       -0.2652
     19 C           6.3918   -3.3049   25.5478 C.ar    1  UNL1        0.1595
     20 N           6.1332   -3.8601   24.1785 N.ar    1  UNL1       -0.2374
     21 C           5.1874   -3.1571   23.2505 C.ar    1  UNL1        0.0982
     22 C           4.9288   -3.7124   21.8813 C.ar    1  UNL1        0.0328
     23 C           3.9830   -3.0093   20.9532 C.ar    1  UNL1        0.0698
     24 CL          3.7243   -3.5646   19.5840 Cl      1  UNL1       -0.0813
     25 C           3.2959   -1.7510   21.3944 C.ar    1  UNL1        0.0697
     26 CL          2.3501   -1.0480   20.4664 Cl      1  UNL1       -0.0813
     27 C           3.5545   -1.1958   22.7637 C.ar    1  UNL1        0.0310
     28 C           4.5003   -1.8989   23.6917 C.ar    1  UNL1        0.0815
     29 C           3.1518    0.6215   27.8268 C.3     1  UNL1        0.0924
     30 N           1.6587    0.5748   27.9628 N.3     1  UNL1       -0.2713
     31 C           0.8895   -0.2338   28.9650 C.3     1  UNL1        0.0722
     32 C          -0.5719    0.0202   28.7421 C.3     1  UNL1        0.0188
     33 C          -0.7060    0.9858   27.6021 C.3     1  UNL1        0.0188
     34 C           0.6726    1.3286   27.1205 C.3     1  UNL1        0.0722
@<TRIPOS>BOND
     1     1     2    2
     2     2    15    1
     3    15    16    1
     4    16    17   ar
     5    17    18    2
     6    17    19   ar
     7    19    20   ar
     8    20    21   ar
     9    21    22   ar
    10    22    23   ar
    11    23    24    1
    12    23    25   ar
    13    25    26    1
    14    25    27   ar
    15    27    28   ar
    16     2     3   am
    17     3     4    1
    18     4     5    1
    19     5     6    1
    20     6     7    1
    21     7     9    1
    22     9    10   ar
    23    10    11   ar
    24    11    12   ar
    25    12    13   ar
    26    13    14   ar
    27     7     8    1
    28     8    29    1
    29    29    30    1
    30    30    31    1
    31    31    32    1
    32    32    33    1
    33    33    34    1
    34    28    16   ar
    35     8     3    1
    36    34    30    1
    37    28    21   ar
    38    14     9   ar
@<TRIPOS>MOLECULE
*****
 34 38 0 0 0
SMALL
GASTEIGER

@<TRIPOS>ATOM
      1 O           5.5344    1.2899   24.9117 O.2     1  UNL1       -0.2728
      2 C           5.6003   -0.1826   24.6336 C.2     1  UNL1        0.2488
      3 N           6.8712   -0.9378   24.8882 N.am    1  UNL1       -0.2779
      4 C           8.0760   -0.2205   25.4209 C.3     1  UNL1        0.0935
      5 C           9.3467   -0.9757   25.6755 C.3     1  UNL1        0.0219
      6 C           9.4127   -2.4482   25.3973 C.3     1  UNL1        0.0078
      7 C           8.2079   -3.1655   24.8646 C.3     1  UNL1        0.0419
      8 C           6.9371   -2.4103   24.6101 C.3     1  UNL1        0.0953
      9 C           8.2738   -4.6380   24.5865 C.ar    1  UNL1       -0.0209
     10 C           8.8074   -5.1302   23.2739 C.ar    1  UNL1       -0.0042
     11 C           8.8734   -6.6027   22.9958 C.ar    1  UNL1       -0.0003
     12 C           8.4057   -7.5831   24.0302 C.ar    1  UNL1       -0.0000
     13 C           7.8721   -7.0909   25.3428 C.ar    1  UNL1       -0.0003
     14 C           7.8061   -5.6184   25.6210 C.ar    1  UNL1       -0.0042
     15 C           4.3955   -0.9000   24.1009 C.3     1  UNL1        0.1943
     16 N           3.1197   -0.1481   23.8619 N.ar    1  UNL1       -0.2839
     17 C           2.3419    0.3972   25.0227 C.ar    1  UNL1        0.2806
     18 O           2.8397    0.1907   26.4225 O.2     1  UNL1       -0.2652
     19 C           1.0661    1.1491   24.7837 C.ar    1  UNL1        0.1595
     20 N           0.5683    1.3556   23.3839 N.ar    1  UNL1       -0.2374
     21 C           1.3461    0.8103   22.2231 C.ar    1  UNL1        0.0982
     22 C           0.8482    1.0169   20.8233 C.ar    1  UNL1        0.0328
     23 C           1.6261    0.4716   19.6625 C.ar    1  UNL1        0.0698
     24 CL          1.1282    0.6781   18.2627 Cl      1  UNL1       -0.0813
     25 C           2.9019   -0.2803   19.9015 C.ar    1  UNL1        0.0697
     26 CL          3.6798   -0.8256   18.7407 Cl      1  UNL1       -0.0813
     27 C           3.3998   -0.4869   21.3013 C.ar    1  UNL1        0.0310
     28 C           2.6218    0.0585   22.4621 C.ar    1  UNL1        0.0815
     29 C           5.7322   -3.1277   24.0773 C.3     1  UNL1        0.0924
     30 N           5.5695   -3.3250   22.5993 N.3     1  UNL1       -0.2713
     31 C           6.5437   -2.9006   21.5406 C.3     1  UNL1        0.0722
     32 C           5.9804   -3.2947   20.2074 C.3     1  UNL1        0.0188
     33 C           4.6580   -3.9628   20.4422 C.3     1  UNL1        0.0188
     34 C           4.4042   -3.9816   21.9204 C.3     1  UNL1        0.0722
@<TRIPOS>BOND
     1     1     2    2
     2     2    15    1
     3    15    16    1
     4    16    17   ar
     5    17    18    2
     6    17    19   ar
     7    19    20   ar
     8    20    21   ar
     9    21    22   ar
    10    22    23   ar
    11    23    24    1
    12    23    25   ar
    13    25    26    1
    14    25    27   ar
    15    27    28   ar
    16     2     3   am
    17     3     4    1
    18     4     5    1
    19     5     6    1
    20     6     7    1
    21     7     9    1
    22     9    10   ar
    23    10    11   ar
    24    11    12   ar
    25    12    13   ar
    26    13    14   ar
    27     7     8    1
    28     8    29    1
    29    29    30    1
    30    30    31    1
    31    31    32    1
    32    32    33    1
    33    33    34    1
    34    28    16   ar
    35     8     3    1
    36    34    30    1
    37    28    21   ar
    38    14     9   ar
@<TRIPOS>MOLECULE
*****
 34 38 0 0 0
SMALL
GASTEIGER

@<TRIPOS>ATOM
      1 O           0.2004    2.2726   20.5136 O.2     1  UNL1       -0.2728
      2 C           0.5708    1.8696   21.9102 C.2     1  UNL1        0.2488
      3 N          -0.2383    2.3634   23.0728 N.am    1  UNL1       -0.2779
      4 C          -1.4178    3.2600   22.8389 C.3     1  UNL1        0.0935
      5 C          -2.2269    3.7537   24.0015 C.3     1  UNL1        0.0219
      6 C          -1.8564    3.3507   25.3980 C.3     1  UNL1        0.0078
      7 C          -0.6769    2.4540   25.6320 C.3     1  UNL1        0.0419
      8 C           0.1321    1.9604   24.4694 C.3     1  UNL1        0.0953
      9 C          -0.3065    2.0511   27.0286 C.ar    1  UNL1       -0.0209
     10 C           0.3797    3.0300   27.9346 C.ar    1  UNL1       -0.0042
     11 C           0.7501    2.6270   29.3311 C.ar    1  UNL1       -0.0003
     12 C           0.4344    1.2451   29.8217 C.ar    1  UNL1       -0.0000
     13 C          -0.2518    0.2662   28.9157 C.ar    1  UNL1       -0.0003
     14 C          -0.6222    0.6692   27.5191 C.ar    1  UNL1       -0.0042
     15 C           1.7503    0.9730   22.1442 C.3     1  UNL1        0.1943
     16 N           3.0674    1.2816   21.4959 N.ar    1  UNL1       -0.2839
     17 C           3.6986    2.6292   21.6846 C.ar    1  UNL1        0.2806
     18 O           3.0129    3.6681   22.5215 O.2     1  UNL1       -0.2652
     19 C           5.0156    2.9378   21.0364 C.ar    1  UNL1        0.1595
     20 N           5.7013    1.8988   20.1995 N.ar    1  UNL1       -0.2374
     21 C           5.0701    0.5513   20.0108 C.ar    1  UNL1        0.0982
     22 C           5.7558   -0.4876   19.1738 C.ar    1  UNL1        0.0328
     23 C           5.1245   -1.8351   18.9851 C.ar    1  UNL1        0.0698
     24 CL          5.8102   -2.8740   18.1482 Cl      1  UNL1       -0.0813
     25 C           3.8075   -2.1438   19.6334 C.ar    1  UNL1        0.0697
     26 CL          3.1762   -3.4913   19.4447 Cl      1  UNL1       -0.0813
     27 C           3.1217   -1.1048   20.4703 C.ar    1  UNL1        0.0310
     28 C           3.7531    0.2427   20.6590 C.ar    1  UNL1        0.0815
     29 C           1.3117    1.0637   24.7033 C.3     1  UNL1        0.0924
     30 N           2.4059    1.4917   25.6357 N.3     1  UNL1       -0.2713
     31 C           3.0854    2.8290   25.6428 C.3     1  UNL1        0.0722
     32 C           4.1122    2.8215   26.7362 C.3     1  UNL1        0.0188
     33 C           4.0675    1.4795   27.4049 C.3     1  UNL1        0.0188
     34 C           3.0129    0.6577   26.7247 C.3     1  UNL1        0.0722
@<TRIPOS>BOND
     1     1     2    2
     2     2    15    1
     3    15    16    1
     4    16    17   ar
     5    17    18    2
     6    17    19   ar
     7    19    20   ar
     8    20    21   ar
     9    21    22   ar
    10    22    23   ar
    11    23    24    1
    12    23    25   ar
    13    25    26    1
    14    25    27   ar
    15    27    28   ar
    16     2     3   am
    17     3     4    1
    18     4     5    1
    19     5     6    1
    20     6     7    1
    21     7     9    1
    22     9    10   ar
    23    10    11   ar
    24    11    12   ar
    25    12    13   ar
    26    13    14   ar
    27     7     8    1
    28     8    29    1
    29    29    30    1
    30    30    31    1
    31    31    32    1
    32    32    33    1
    33    33    34    1
    34    28    16   ar
    35     8     3    1
    36    34    30    1
    37    28    21   ar
    38    14     9   ar
@<TRIPOS>MOLECULE
*****
 34 38 0 0 0
SMALL
GASTEIGER

@<TRIPOS>ATOM
      1 O           1.3897    1.3759   31.6732 O.2     1  UNL1       -0.2728
      2 C           2.4337    0.3947   31.2290 C.2     1  UNL1        0.2488
      3 N           3.5069   -0.0415   32.1821 N.am    1  UNL1       -0.2779
      4 C           3.5360    0.5036   33.5792 C.3     1  UNL1        0.0935
      5 C           4.6092    0.0674   34.5321 C.3     1  UNL1        0.0219
      6 C           5.6531   -0.9138   34.0879 C.3     1  UNL1        0.0078
      7 C           5.6240   -1.4589   32.6908 C.3     1  UNL1        0.0419
      8 C           4.5509   -1.0227   31.7379 C.3     1  UNL1        0.0953
      9 C           6.6680   -2.4401   32.2466 C.ar    1  UNL1       -0.0209
     10 C           6.3167   -3.8900   32.0912 C.ar    1  UNL1       -0.0042
     11 C           7.3606   -4.8713   31.6470 C.ar    1  UNL1       -0.0003
     12 C           8.7559   -4.4026   31.3582 C.ar    1  UNL1       -0.0000
     13 C           9.1072   -2.9526   31.5136 C.ar    1  UNL1       -0.0003
     14 C           8.0632   -1.9714   31.9578 C.ar    1  UNL1       -0.0042
     15 C           2.4046   -0.1504   29.8319 C.3     1  UNL1        0.1943
     16 N           1.6730    0.5912   28.7526 N.ar    1  UNL1       -0.2839
     17 C           0.1960    0.3969   28.5779 C.ar    1  UNL1        0.2806
     18 O          -0.5496   -0.5390   29.4825 O.2     1  UNL1       -0.2652
     19 C          -0.5355    1.1385   27.4986 C.ar    1  UNL1        0.1595
     20 N           0.2100    2.0744   26.5940 N.ar    1  UNL1       -0.2374
     21 C           1.6871    2.2687   26.7687 C.ar    1  UNL1        0.0982
     22 C           2.4326    3.2046   25.8642 C.ar    1  UNL1        0.0328
     23 C           3.9097    3.3989   26.0389 C.ar    1  UNL1        0.0698
     24 CL          4.6552    4.3348   25.1343 Cl      1  UNL1       -0.0813
     25 C           4.6412    2.6572   27.1182 C.ar    1  UNL1        0.0697
     26 CL          6.1183    2.8515   27.2929 Cl      1  UNL1       -0.0813
     27 C           3.8957    1.7213   28.0228 C.ar    1  UNL1        0.0310
     28 C           2.4186    1.5271   27.8480 C.ar    1  UNL1        0.0815
     29 C           4.5217   -1.5678   30.3407 C.3     1  UNL1        0.0924
     30 N           5.7243   -1.4267   29.4553 N.3     1  UNL1       -0.2713
     31 C           6.3206   -2.5048   28.5997 C.3     1  UNL1        0.0722
     32 C           7.5066   -1.9271   27.8857 C.3     1  UNL1        0.0188
     33 C           7.6432   -0.4920   28.3000 C.3     1  UNL1        0.0188
     34 C           6.5417   -0.1827   29.2701 C.3     1  UNL1        0.0722
@<TRIPOS>BOND
     1     1     2    2
     2     2    15    1
     3    15    16    1
     4    16    17   ar
     5    17    18    2
     6    17    19   ar
     7    19    20   ar
     8    20    21   ar
     9    21    22   ar
    10    22    23   ar
    11    23    24    1
    12    23    25   ar
    13    25    26    1
    14    25    27   ar
    15    27    28   ar
    16     2     3   am
    17     3     4    1
    18     4     5    1
    19     5     6    1
    20     6     7    1
    21     7     9    1
    22     9    10   ar
    23    10    11   ar
    24    11    12   ar
    25    12    13   ar
    26    13    14   ar
    27     7     8    1
    28     8    29    1
    29    29    30    1
    30    30    31    1
    31    31    32    1
    32    32    33    1
    33    33    34    1
    34    28    16   ar
    35     8     3    1
    36    34    30    1
    37    28    21   ar
    38    14     9   ar
@<TRIPOS>MOLECULE
*****
 34 38 0 0 0
SMALL
GASTEIGER

@<TRIPOS>ATOM
      1 O           5.1663    1.1131   26.1622 O.2     1  UNL1       -0.2728
      2 C           4.6257    0.3713   24.9758 C.2     1  UNL1        0.2488
      3 N           5.5205   -0.5410   24.1902 N.am    1  UNL1       -0.2779
      4 C           6.9559   -0.7115   24.5910 C.3     1  UNL1        0.0935
      5 C           7.8506   -1.6237   23.8054 C.3     1  UNL1        0.0219
      6 C           7.3100   -2.3654   22.6190 C.3     1  UNL1        0.0078
      7 C           5.8747   -2.1949   22.2182 C.3     1  UNL1        0.0419
      8 C           4.9799   -1.2827   23.0038 C.3     1  UNL1        0.0953
      9 C           5.3341   -2.9366   21.0317 C.ar    1  UNL1       -0.0209
     10 C           4.3785   -4.0756   21.2309 C.ar    1  UNL1       -0.0042
     11 C           3.8380   -4.8173   20.0445 C.ar    1  UNL1       -0.0003
     12 C           4.2529   -4.4201   18.6589 C.ar    1  UNL1       -0.0000
     13 C           5.2084   -3.2812   18.4597 C.ar    1  UNL1       -0.0003
     14 C           5.7490   -2.5394   19.6461 C.ar    1  UNL1       -0.0042
     15 C           3.1904    0.5418   24.5750 C.3     1  UNL1        0.1943
     16 N           2.4142    1.7327   25.0541 N.ar    1  UNL1       -0.2839
     17 C           2.1652    2.8872   24.1294 C.ar    1  UNL1        0.2806
     18 O           2.6923    2.8509   22.7256 O.2     1  UNL1       -0.2652
     19 C           1.3891    4.0779   24.6086 C.ar    1  UNL1        0.1595
     20 N           0.8620    4.1142   26.0125 N.ar    1  UNL1       -0.2374
     21 C           1.1111    2.9598   26.9372 C.ar    1  UNL1        0.0982
     22 C           0.5840    2.9961   28.3411 C.ar    1  UNL1        0.0328
     23 C           0.8330    1.8416   29.2658 C.ar    1  UNL1        0.0698
     24 CL          0.3060    1.8779   30.6697 Cl      1  UNL1       -0.0813
     25 C           1.6092    0.6507   28.7866 C.ar    1  UNL1        0.0697
     26 CL          1.8582   -0.5037   29.7113 Cl      1  UNL1       -0.0813
     27 C           2.1363    0.6144   27.3827 C.ar    1  UNL1        0.0310
     28 C           1.8872    1.7690   26.4580 C.ar    1  UNL1        0.0815
     29 C           3.5445   -1.1121   22.6030 C.3     1  UNL1        0.0924
     30 N           3.2040   -0.5678   21.2473 N.3     1  UNL1       -0.2713
     31 C           2.0936   -1.0452   20.3590 C.3     1  UNL1        0.0722
     32 C           2.1174   -0.2230   19.1046 C.3     1  UNL1        0.0188
     33 C           3.2425    0.7626   19.2177 C.3     1  UNL1        0.0188
     34 C           3.9140    0.5494   20.5420 C.3     1  UNL1        0.0722
@<TRIPOS>BOND
     1     1     2    2
     2     2    15    1
     3    15    16    1
     4    16    17   ar
     5    17    18    2
     6    17    19   ar
     7    19    20   ar
     8    20    21   ar
     9    21    22   ar
    10    22    23   ar
    11    23    24    1
    12    23    25   ar
    13    25    26    1
    14    25    27   ar
    15    27    28   ar
    16     2     3   am
    17     3     4    1
    18     4     5    1
    19     5     6    1
    20     6     7    1
    21     7     9    1
    22     9    10   ar
    23    10    11   ar
    24    11    12   ar
    25    12    13   ar
    26    13    14   ar
    27     7     8    1
    28     8    29    1
    29    29    30    1
    30    30    31    1
    31    31    32    1
    32    32    33    1
    33    33    34    1
    34    28    16   ar
    35     8     3    1
    36    34    30    1
    37    28    21   ar
    38    14     9   ar
