@<TRIPOS>MOLECULE
*****
 29 33 0 0 0
SMALL
GASTEIGER

@<TRIPOS>ATOM
      1 N         -13.1353   -2.6672   19.2117 N.pl3   1  UNL1       -0.2803
      2 C         -14.0326   -1.4686   19.1222 C.ar    1  UNL1        0.0513
      3 C         -15.1636   -1.5561   20.1036 C.ar    1  UNL1        0.0146
      4 C         -16.1794   -0.4550   20.1774 C.ar    1  UNL1        0.0013
      5 C         -16.0643    0.7337   19.2697 C.ar    1  UNL1       -0.0001
      6 C         -14.9333    0.8212   18.2883 C.ar    1  UNL1        0.0006
      7 C         -13.9175   -0.2799   18.2145 C.ar    1  UNL1        0.0348
      8 C         -12.8766    0.0036   17.1723 C.3     1  UNL1        0.2333
      9 O         -11.6938   -0.8314   16.7803 O.3     1  UNL1       -0.4693
     10 C         -11.2597   -2.1563   17.3337 C.ar    1  UNL1        0.1548
     11 C         -10.0151   -2.6510   16.6584 C.ar    1  UNL1        0.0678
     12 C          -9.4120   -3.9628   17.0651 C.ar    1  UNL1        0.1433
     13 F          -8.1673   -4.4576   16.3898 F       1  UNL1       -0.2041
     14 C         -10.0534   -4.7799   18.1472 C.ar    1  UNL1        0.0311
     15 C         -11.2981   -4.2851   18.8225 C.ar    1  UNL1        0.0202
     16 C         -11.9012   -2.9733   18.4158 C.ar    1  UNL1        0.0864
     17 C         -13.5233   -3.6959   20.2322 C.3     1  UNL1        0.1222
     18 O         -15.0399  -11.0205   18.0411 O.2     1  UNL1       -0.2707
     19 C         -15.5222   -9.6509   18.4177 C.2     1  UNL1        0.2707
     20 C         -16.9921   -9.3534   18.4405 C.3     1  UNL1        0.2897
     21 O         -17.4744   -7.9839   18.8171 O.3     1  UNL1       -0.4643
     22 C         -16.4866   -6.9119   19.1709 C.ar    1  UNL1        0.1526
     23 C         -16.9689   -5.5423   19.5475 C.ar    1  UNL1        0.0379
     24 C         -15.9811   -4.4704   19.9012 C.ar    1  UNL1        0.0006
     25 C         -14.5111   -4.7679   19.8784 C.ar    1  UNL1       -0.0007
     26 C         -14.0288   -6.1374   19.5018 C.ar    1  UNL1        0.0152
     27 C         -15.0166   -7.2094   19.1481 C.ar    1  UNL1        0.0846
     28 N         -14.5344   -8.5789   18.7714 N.am    1  UNL1       -0.2785
     29 H         -13.5696   -8.7742   18.7565 H       1  UNL1        0.1551
@<TRIPOS>BOND
     1    18    19    2
     2    19    20    1
     3    20    21    1
     4    21    22    1
     5    22    23   ar
     6    23    24   ar
     7    24    25   ar
     8    25    17    1
     9    17     1    1
    10     1     2    1
    11     2     3   ar
    12     3     4   ar
    13     4     5   ar
    14     5     6   ar
    15     6     7   ar
    16     7     8    1
    17     8     9    1
    18     9    10    1
    19    10    11   ar
    20    11    12   ar
    21    12    13    1
    22    12    14   ar
    23    14    15   ar
    24    15    16   ar
    25    25    26   ar
    26    26    27   ar
    27    27    28    1
    28    28    19   am
    29    27    22   ar
    30    16     1    1
    31     7     2   ar
    32    16    10   ar
    33    28    29    1
@<TRIPOS>MOLECULE
*****
 29 33 0 0 0
SMALL
GASTEIGER

@<TRIPOS>ATOM
      1 N         -12.8765   -3.1900   19.1838 N.pl3   1  UNL1       -0.2803
      2 C         -11.6403   -3.6834   18.4921 C.ar    1  UNL1        0.0513
      3 C         -11.2446   -5.0448   18.9820 C.ar    1  UNL1        0.0146
      4 C         -10.0312   -5.7217   18.4170 C.ar    1  UNL1        0.0013
      5 C          -9.2135   -5.0373   17.3620 C.ar    1  UNL1       -0.0001
      6 C          -9.6092   -3.6759   16.8721 C.ar    1  UNL1        0.0006
      7 C         -10.8226   -2.9990   17.4372 C.ar    1  UNL1        0.0348
      8 C         -11.0392   -1.6522   16.8134 C.3     1  UNL1        0.2333
      9 O         -12.1269   -0.6571   17.0903 O.3     1  UNL1       -0.4693
     10 C         -13.2667   -0.7632   18.0597 C.ar    1  UNL1        0.1548
     11 C         -14.1321    0.4615   18.0241 C.ar    1  UNL1        0.0678
     12 C         -15.3311    0.5590   18.9202 C.ar    1  UNL1        0.1433
     13 F         -16.1965    1.7837   18.8846 F       1  UNL1       -0.2041
     14 C         -15.6647   -0.5683   19.8518 C.ar    1  UNL1        0.0311
     15 C         -14.7993   -1.7929   19.8874 C.ar    1  UNL1        0.0202
     16 C         -13.6004   -1.8904   18.9914 C.ar    1  UNL1        0.0864
     17 C         -13.4670   -4.1192   20.2026 C.3     1  UNL1        0.1222
     18 O         -15.2118  -11.3490   17.8710 O.2     1  UNL1       -0.2707
     19 C         -15.6475   -9.9598   18.2320 C.2     1  UNL1        0.2707
     20 C         -17.1004   -9.5913   18.1768 C.3     1  UNL1        0.2897
     21 O         -17.5361   -8.2021   18.5378 O.3     1  UNL1       -0.4643
     22 C         -16.5188   -7.1814   18.9540 C.ar    1  UNL1        0.1526
     23 C         -16.9545   -5.7922   19.3150 C.ar    1  UNL1        0.0379
     24 C         -15.9372   -4.7715   19.7312 C.ar    1  UNL1        0.0006
     25 C         -14.4843   -5.1400   19.7864 C.ar    1  UNL1       -0.0007
     26 C         -14.0486   -6.5292   19.4254 C.ar    1  UNL1        0.0152
     27 C         -15.0659   -7.5498   19.0092 C.ar    1  UNL1        0.0846
     28 N         -14.6302   -8.9390   18.6483 N.am    1  UNL1       -0.2785
     29 H         -13.6765   -9.1809   18.6845 H       1  UNL1        0.1551
@<TRIPOS>BOND
     1    18    19    2
     2    19    20    1
     3    20    21    1
     4    21    22    1
     5    22    23   ar
     6    23    24   ar
     7    24    25   ar
     8    25    17    1
     9    17     1    1
    10     1     2    1
    11     2     3   ar
    12     3     4   ar
    13     4     5   ar
    14     5     6   ar
    15     6     7   ar
    16     7     8    1
    17     8     9    1
    18     9    10    1
    19    10    11   ar
    20    11    12   ar
    21    12    13    1
    22    12    14   ar
    23    14    15   ar
    24    15    16   ar
    25    25    26   ar
    26    26    27   ar
    27    27    28    1
    28    28    19   am
    29    27    22   ar
    30    16     1    1
    31     7     2   ar
    32    16    10   ar
    33    28    29    1
@<TRIPOS>MOLECULE
*****
 29 33 0 0 0
SMALL
GASTEIGER

@<TRIPOS>ATOM
      1 N          -7.7821  -19.4389   21.3971 N.pl3   1  UNL1       -0.2803
      2 C          -8.2228  -20.0829   20.1161 C.ar    1  UNL1        0.0513
      3 C          -7.2928  -21.1874   19.7098 C.ar    1  UNL1        0.0146
      4 C          -7.5539  -21.9633   18.4529 C.ar    1  UNL1        0.0013
      5 C          -8.7449  -21.6347   17.6023 C.ar    1  UNL1       -0.0001
      6 C          -9.6749  -20.5302   18.0086 C.ar    1  UNL1        0.0006
      7 C          -9.4138  -19.7542   19.2655 C.ar    1  UNL1        0.0348
      8 C         -10.4583  -18.7005   19.4860 C.3     1  UNL1        0.2333
      9 O         -10.5699  -17.7151   20.6114 O.3     1  UNL1       -0.4693
     10 C          -9.6643  -17.5401   21.7944 C.ar    1  UNL1        0.1548
     11 C         -10.1384  -16.4329   22.6884 C.ar    1  UNL1        0.0678
     12 C          -9.3719  -16.0928   23.9321 C.ar    1  UNL1        0.1433
     13 F          -9.8460  -14.9856   24.8261 F       1  UNL1       -0.2041
     14 C          -8.1313  -16.8599   24.2818 C.ar    1  UNL1        0.0311
     15 C          -7.6572  -17.9671   23.3878 C.ar    1  UNL1        0.0202
     16 C          -8.4236  -18.3073   22.1441 C.ar    1  UNL1        0.0864
     17 C          -6.5350  -20.0008   22.0127 C.3     1  UNL1        0.1222
     18 O          -0.9947  -17.7989   16.9920 O.2     1  UNL1       -0.2707
     19 C          -1.5151  -17.8863   18.3961 C.2     1  UNL1        0.2707
     20 C          -0.7090  -17.3272   19.5308 C.3     1  UNL1        0.2897
     21 O          -1.2293  -17.4146   20.9350 O.3     1  UNL1       -0.4643
     22 C          -2.5558  -18.0612   21.2044 C.ar    1  UNL1        0.1526
     23 C          -3.0761  -18.1486   22.6086 C.ar    1  UNL1        0.0379
     24 C          -4.4025  -18.7952   22.8779 C.ar    1  UNL1        0.0006
     25 C          -5.2086  -19.3543   21.7433 C.ar    1  UNL1       -0.0007
     26 C          -4.6882  -19.2669   20.3391 C.ar    1  UNL1        0.0152
     27 C          -3.3618  -18.6203   20.0697 C.ar    1  UNL1        0.0846
     28 N          -2.8415  -18.5329   18.6656 N.am    1  UNL1       -0.2785
     29 H          -3.3706  -18.8999   17.9208 H       1  UNL1        0.1551
@<TRIPOS>BOND
     1    18    19    2
     2    19    20    1
     3    20    21    1
     4    21    22    1
     5    22    23   ar
     6    23    24   ar
     7    24    25   ar
     8    25    17    1
     9    17     1    1
    10     1     2    1
    11     2     3   ar
    12     3     4   ar
    13     4     5   ar
    14     5     6   ar
    15     6     7   ar
    16     7     8    1
    17     8     9    1
    18     9    10    1
    19    10    11   ar
    20    11    12   ar
    21    12    13    1
    22    12    14   ar
    23    14    15   ar
    24    15    16   ar
    25    25    26   ar
    26    26    27   ar
    27    27    28    1
    28    28    19   am
    29    27    22   ar
    30    16     1    1
    31     7     2   ar
    32    16    10   ar
    33    28    29    1
@<TRIPOS>MOLECULE
*****
 29 33 0 0 0
SMALL
GASTEIGER

@<TRIPOS>ATOM
      1 N          -7.9500  -19.0938   21.6271 N.pl3   1  UNL1       -0.2803
      2 C          -8.5624  -17.9812   22.4254 C.ar    1  UNL1        0.0513
      3 C          -7.7759  -17.7039   23.6721 C.ar    1  UNL1        0.0146
      4 C          -8.2197  -16.6244   24.6142 C.ar    1  UNL1        0.0013
      5 C          -9.4502  -15.8224   24.3097 C.ar    1  UNL1       -0.0001
      6 C         -10.2367  -16.0997   23.0630 C.ar    1  UNL1        0.0006
      7 C          -9.7928  -17.1792   22.1208 C.ar    1  UNL1        0.0348
      8 C         -10.7147  -17.2916   20.9428 C.3     1  UNL1        0.2333
      9 O         -10.6338  -18.2338   19.7785 O.3     1  UNL1       -0.4693
     10 C          -9.6110  -19.2963   19.5045 C.ar    1  UNL1        0.1548
     11 C          -9.9003  -20.0176   18.2215 C.ar    1  UNL1        0.0678
     12 C          -8.9951  -21.1216   17.7612 C.ar    1  UNL1        0.1433
     13 F          -9.2843  -21.8428   16.4782 F       1  UNL1       -0.2041
     14 C          -7.8007  -21.5043   18.5839 C.ar    1  UNL1        0.0311
     15 C          -7.5115  -20.7831   19.8669 C.ar    1  UNL1        0.0202
     16 C          -8.4166  -19.6791   20.3272 C.ar    1  UNL1        0.0864
     17 C          -6.7063  -19.7014   22.2052 C.3     1  UNL1        0.1222
     18 O          -1.0684  -17.8440   17.1541 O.2     1  UNL1       -0.2707
     19 C          -1.6098  -17.8475   18.5530 C.2     1  UNL1        0.2707
     20 C          -0.8135  -17.2354   19.6669 C.3     1  UNL1        0.2897
     21 O          -1.3549  -17.2388   21.0658 O.3     1  UNL1       -0.4643
     22 C          -2.6928  -17.8545   21.3507 C.ar    1  UNL1        0.1526
     23 C          -3.2343  -17.8580   22.7496 C.ar    1  UNL1        0.0379
     24 C          -4.5721  -18.4736   23.0343 C.ar    1  UNL1        0.0006
     25 C          -5.3685  -19.0858   21.9204 C.ar    1  UNL1       -0.0007
     26 C          -4.8270  -19.0823   20.5215 C.ar    1  UNL1        0.0152
     27 C          -3.4892  -18.4666   20.2367 C.ar    1  UNL1        0.0846
     28 N          -2.9477  -18.4632   18.8379 N.am    1  UNL1       -0.2785
     29 H          -3.4704  -18.8649   18.1067 H       1  UNL1        0.1551
@<TRIPOS>BOND
     1    18    19    2
     2    19    20    1
     3    20    21    1
     4    21    22    1
     5    22    23   ar
     6    23    24   ar
     7    24    25   ar
     8    25    17    1
     9    17     1    1
    10     1     2    1
    11     2     3   ar
    12     3     4   ar
    13     4     5   ar
    14     5     6   ar
    15     6     7   ar
    16     7     8    1
    17     8     9    1
    18     9    10    1
    19    10    11   ar
    20    11    12   ar
    21    12    13    1
    22    12    14   ar
    23    14    15   ar
    24    15    16   ar
    25    25    26   ar
    26    26    27   ar
    27    27    28    1
    28    28    19   am
    29    27    22   ar
    30    16     1    1
    31     7     2   ar
    32    16    10   ar
    33    28    29    1
@<TRIPOS>MOLECULE
*****
 29 33 0 0 0
SMALL
GASTEIGER

@<TRIPOS>ATOM
      1 N          -7.0307  -18.2255   22.2628 N.pl3   1  UNL1       -0.2803
      2 C          -8.2595  -18.4303   21.4273 C.ar    1  UNL1        0.0513
      3 C          -8.1267  -19.6349   20.5433 C.ar    1  UNL1        0.0146
      4 C          -9.2487  -20.0182   19.6245 C.ar    1  UNL1        0.0013
      5 C         -10.5034  -19.1969   19.5897 C.ar    1  UNL1       -0.0001
      6 C         -10.6362  -17.9924   20.4736 C.ar    1  UNL1        0.0006
      7 C          -9.5142  -17.6091   21.3924 C.ar    1  UNL1        0.0348
      8 C          -9.8500  -16.3802   22.1844 C.3     1  UNL1        0.2333
      9 O          -9.0140  -15.6691   23.2069 O.3     1  UNL1       -0.4693
     10 C          -7.6357  -16.0113   23.6899 C.ar    1  UNL1        0.1548
     11 C          -7.1600  -15.0357   24.7253 C.ar    1  UNL1        0.0678
     12 C          -5.8015  -15.1978   25.3404 C.ar    1  UNL1        0.1433
     13 F          -5.3258  -14.2222   26.3757 F       1  UNL1       -0.2041
     14 C          -4.9189  -16.3355   24.9203 C.ar    1  UNL1        0.0311
     15 C          -5.3946  -17.3111   23.8850 C.ar    1  UNL1        0.0202
     16 C          -6.7530  -17.1490   23.2698 C.ar    1  UNL1        0.0864
     17 C          -5.9345  -19.2302   22.0652 C.3     1  UNL1        0.1222
     18 O           1.6364  -17.7554   20.9441 O.2     1  UNL1       -0.2707
     19 C           0.2535  -17.9403   20.3933 C.2     1  UNL1        0.2707
     20 C           0.0114  -17.8185   18.9181 C.3     1  UNL1        0.2897
     21 O          -1.3716  -18.0034   18.3672 O.3     1  UNL1       -0.4643
     22 C          -2.5123  -18.3101   19.2918 C.ar    1  UNL1        0.1526
     23 C          -3.8952  -18.4950   18.7409 C.ar    1  UNL1        0.0379
     24 C          -5.0359  -18.8017   19.6655 C.ar    1  UNL1        0.0006
     25 C          -4.7937  -18.9235   21.1407 C.ar    1  UNL1       -0.0007
     26 C          -3.4108  -18.7386   21.6915 C.ar    1  UNL1        0.0152
     27 C          -2.2702  -18.4319   20.7670 C.ar    1  UNL1        0.0846
     28 N          -0.8872  -18.2470   21.3178 N.am    1  UNL1       -0.2785
     29 H          -0.7283  -18.3270   22.2861 H       1  UNL1        0.1551
@<TRIPOS>BOND
     1    18    19    2
     2    19    20    1
     3    20    21    1
     4    21    22    1
     5    22    23   ar
     6    23    24   ar
     7    24    25   ar
     8    25    17    1
     9    17     1    1
    10     1     2    1
    11     2     3   ar
    12     3     4   ar
    13     4     5   ar
    14     5     6   ar
    15     6     7   ar
    16     7     8    1
    17     8     9    1
    18     9    10    1
    19    10    11   ar
    20    11    12   ar
    21    12    13    1
    22    12    14   ar
    23    14    15   ar
    24    15    16   ar
    25    25    26   ar
    26    26    27   ar
    27    27    28    1
    28    28    19   am
    29    27    22   ar
    30    16     1    1
    31     7     2   ar
    32    16    10   ar
    33    28    29    1
@<TRIPOS>MOLECULE
*****
 29 33 0 0 0
SMALL
GASTEIGER

@<TRIPOS>ATOM
      1 N           3.2935   -0.3901   19.0457 N.pl3   1  UNL1       -0.2803
      2 C           3.8562    0.9246   18.5928 C.ar    1  UNL1        0.0513
      3 C           2.9646    2.0659   18.9829 C.ar    1  UNL1        0.0146
      4 C           3.3454    3.4717   18.6241 C.ar    1  UNL1        0.0013
      5 C           4.6178    3.7360   17.8750 C.ar    1  UNL1       -0.0001
      6 C           5.5094    2.5947   17.4849 C.ar    1  UNL1        0.0006
      7 C           5.1286    1.1889   17.8438 C.ar    1  UNL1        0.0348
      8 C           6.1525    0.2039   17.3627 C.3     1  UNL1        0.2333
      9 O           6.1570   -1.2886   17.5117 O.3     1  UNL1       -0.4693
     10 C           5.1385   -2.1649   18.1788 C.ar    1  UNL1        0.1548
     11 C           5.5277   -3.6116   18.1048 C.ar    1  UNL1        0.0678
     12 C           4.6424   -4.6585   18.7135 C.ar    1  UNL1        0.1433
     13 F           5.0316   -6.1052   18.6396 F       1  UNL1       -0.2041
     14 C           3.3681   -4.2586   19.3962 C.ar    1  UNL1        0.0311
     15 C           2.9789   -2.8119   19.4701 C.ar    1  UNL1        0.0202
     16 C           3.8641   -1.7650   18.8615 C.ar    1  UNL1        0.0864
     17 C           1.9873   -0.3206   19.7799 C.3     1  UNL1        0.1222
     18 O           4.8179   -1.5640   26.9348 O.2     1  UNL1       -0.2707
     19 C           3.8559   -0.8629   26.0221 C.2     1  UNL1        0.2707
     20 C           2.8755    0.1249   26.5816 C.3     1  UNL1        0.2897
     21 O           1.9136    0.8260   25.6689 O.3     1  UNL1       -0.4643
     22 C           1.9320    0.5394   24.1967 C.ar    1  UNL1        0.1526
     23 C           0.9700    1.2405   23.2840 C.ar    1  UNL1        0.0379
     24 C           0.9885    0.9538   21.8117 C.ar    1  UNL1        0.0006
     25 C           1.9689   -0.0339   21.2522 C.ar    1  UNL1       -0.0007
     26 C           2.9308   -0.7351   22.1649 C.ar    1  UNL1        0.0152
     27 C           2.9123   -0.4484   23.6371 C.ar    1  UNL1        0.0846
     28 N           3.8743   -1.1495   24.5498 N.am    1  UNL1       -0.2785
     29 H           4.5178   -1.7978   24.1826 H       1  UNL1        0.1551
@<TRIPOS>BOND
     1    18    19    2
     2    19    20    1
     3    20    21    1
     4    21    22    1
     5    22    23   ar
     6    23    24   ar
     7    24    25   ar
     8    25    17    1
     9    17     1    1
    10     1     2    1
    11     2     3   ar
    12     3     4   ar
    13     4     5   ar
    14     5     6   ar
    15     6     7   ar
    16     7     8    1
    17     8     9    1
    18     9    10    1
    19    10    11   ar
    20    11    12   ar
    21    12    13    1
    22    12    14   ar
    23    14    15   ar
    24    15    16   ar
    25    25    26   ar
    26    26    27   ar
    27    27    28    1
    28    28    19   am
    29    27    22   ar
    30    16     1    1
    31     7     2   ar
    32    16    10   ar
    33    28    29    1
@<TRIPOS>MOLECULE
*****
 29 33 0 0 0
SMALL
GASTEIGER

@<TRIPOS>ATOM
      1 N           3.3172   -0.3235   19.0172 N.pl3   1  UNL1       -0.2803
      2 C           3.8911    0.9860   18.5633 C.ar    1  UNL1        0.0513
      3 C           3.0041    2.1343   18.9434 C.ar    1  UNL1        0.0146
      4 C           3.3961    3.5363   18.5820 C.ar    1  UNL1        0.0013
      5 C           4.6751    3.7900   17.8405 C.ar    1  UNL1       -0.0001
      6 C           5.5622    2.6417   17.4604 C.ar    1  UNL1        0.0006
      7 C           5.1702    1.2397   17.8218 C.ar    1  UNL1        0.0348
      8 C           6.1910    0.2465   17.3511 C.3     1  UNL1        0.2333
      9 O           6.1851   -1.2455   17.5056 O.3     1  UNL1       -0.4693
     10 C           5.1568   -2.1129   18.1690 C.ar    1  UNL1        0.1548
     11 C           5.5373   -3.5623   18.1028 C.ar    1  UNL1        0.0678
     12 C           4.6415   -4.6014   18.7094 C.ar    1  UNL1        0.1433
     13 F           5.0221   -6.0508   18.6433 F       1  UNL1       -0.2041
     14 C           3.3652   -4.1911   19.3821 C.ar    1  UNL1        0.0311
     15 C           2.9846   -2.7417   19.4483 C.ar    1  UNL1        0.0202
     16 C           3.8804   -1.7026   18.8417 C.ar    1  UNL1        0.0864
     17 C           2.0066   -0.2431   19.7425 C.3     1  UNL1        0.1222
     18 O          -1.0748    3.4535   25.8736 O.2     1  UNL1       -0.2707
     19 C          -0.0731    2.4926   25.3049 C.2     1  UNL1        0.2707
     20 C           0.9031    1.8031   26.2113 C.3     1  UNL1        0.2897
     21 O           1.9047    0.8422   25.6426 O.3     1  UNL1       -0.4643
     22 C           1.9302    0.5709   24.1676 C.ar    1  UNL1        0.1526
     23 C           2.9319   -0.3900   23.5989 C.ar    1  UNL1        0.0379
     24 C           2.9573   -0.6613   22.1239 C.ar    1  UNL1        0.0006
     25 C           1.9812    0.0282   21.2175 C.ar    1  UNL1       -0.0007
     26 C           0.9795    0.9891   21.7862 C.ar    1  UNL1        0.0152
     27 C           0.9541    1.2604   23.2612 C.ar    1  UNL1        0.0846
     28 N          -0.0476    2.2213   23.8299 N.am    1  UNL1       -0.2785
     29 H          -0.6883    2.6739   23.2350 H       1  UNL1        0.1551
@<TRIPOS>BOND
     1    18    19    2
     2    19    20    1
     3    20    21    1
     4    21    22    1
     5    22    23   ar
     6    23    24   ar
     7    24    25   ar
     8    25    17    1
     9    17     1    1
    10     1     2    1
    11     2     3   ar
    12     3     4   ar
    13     4     5   ar
    14     5     6   ar
    15     6     7   ar
    16     7     8    1
    17     8     9    1
    18     9    10    1
    19    10    11   ar
    20    11    12   ar
    21    12    13    1
    22    12    14   ar
    23    14    15   ar
    24    15    16   ar
    25    25    26   ar
    26    26    27   ar
    27    27    28    1
    28    28    19   am
    29    27    22   ar
    30    16     1    1
    31     7     2   ar
    32    16    10   ar
    33    28    29    1
@<TRIPOS>MOLECULE
*****
 29 33 0 0 0
SMALL
GASTEIGER

@<TRIPOS>ATOM
      1 N          -6.8565  -18.1038   22.4695 N.pl3   1  UNL1       -0.2803
      2 C          -6.5586  -17.0580   23.5028 C.ar    1  UNL1        0.0513
      3 C          -5.2113  -17.2720   24.1265 C.ar    1  UNL1        0.0146
      4 C          -4.7185  -16.3334   25.1877 C.ar    1  UNL1        0.0013
      5 C          -5.5730  -15.1808   25.6251 C.ar    1  UNL1       -0.0001
      6 C          -6.9203  -14.9668   25.0014 C.ar    1  UNL1        0.0006
      7 C          -7.4130  -15.9055   23.9403 C.ar    1  UNL1        0.0348
      8 C          -8.7764  -15.5140   23.4525 C.3     1  UNL1        0.2333
      9 O          -9.6221  -16.1783   22.4067 O.3     1  UNL1       -0.4693
     10 C          -9.3131  -17.3983   21.5905 C.ar    1  UNL1        0.1548
     11 C         -10.4364  -17.7294   20.6532 C.ar    1  UNL1        0.0678
     12 C         -10.3288  -18.9174   19.7437 C.ar    1  UNL1        0.1433
     13 F         -11.4521  -19.2485   18.8063 F       1  UNL1       -0.2041
     14 C          -9.0981  -19.7743   19.7716 C.ar    1  UNL1        0.0311
     15 C          -7.9748  -19.4432   20.7090 C.ar    1  UNL1        0.0202
     16 C          -8.0823  -18.2553   21.6184 C.ar    1  UNL1        0.0864
     17 C          -5.7870  -19.1344   22.2594 C.3     1  UNL1        0.1222
     18 O           1.7325  -17.6240   20.8713 O.2     1  UNL1       -0.2707
     19 C           0.3410  -17.8646   20.3656 C.2     1  UNL1        0.2707
     20 C           0.0644  -17.8425   18.8915 C.3     1  UNL1        0.2897
     21 O          -1.3271  -18.0832   18.3858 O.3     1  UNL1       -0.4643
     22 C          -2.4421  -18.3460   19.3542 C.ar    1  UNL1        0.1526
     23 C          -3.8336  -18.5867   18.8485 C.ar    1  UNL1        0.0379
     24 C          -4.9485  -18.8495   19.8170 C.ar    1  UNL1        0.0006
     25 C          -4.6720  -18.8716   21.2910 C.ar    1  UNL1       -0.0007
     26 C          -3.2804  -18.6309   21.7967 C.ar    1  UNL1        0.0152
     27 C          -2.1655  -18.3681   20.8283 C.ar    1  UNL1        0.0846
     28 N          -0.7740  -18.1274   21.3340 N.am    1  UNL1       -0.2785
     29 H          -0.5925  -18.1419   22.3015 H       1  UNL1        0.1551
@<TRIPOS>BOND
     1    18    19    2
     2    19    20    1
     3    20    21    1
     4    21    22    1
     5    22    23   ar
     6    23    24   ar
     7    24    25   ar
     8    25    17    1
     9    17     1    1
    10     1     2    1
    11     2     3   ar
    12     3     4   ar
    13     4     5   ar
    14     5     6   ar
    15     6     7   ar
    16     7     8    1
    17     8     9    1
    18     9    10    1
    19    10    11   ar
    20    11    12   ar
    21    12    13    1
    22    12    14   ar
    23    14    15   ar
    24    15    16   ar
    25    25    26   ar
    26    26    27   ar
    27    27    28    1
    28    28    19   am
    29    27    22   ar
    30    16     1    1
    31     7     2   ar
    32    16    10   ar
    33    28    29    1
@<TRIPOS>MOLECULE
*****
 29 33 0 0 0
SMALL
GASTEIGER

@<TRIPOS>ATOM
      1 N         -17.0863   -6.1293   18.0664 N.pl3   1  UNL1       -0.2803
      2 C         -17.3262   -7.5618   18.4410 C.ar    1  UNL1        0.0513
      3 C         -16.3262   -8.4727   17.7928 C.ar    1  UNL1        0.0146
      4 C         -16.3893   -9.9512   18.0376 C.ar    1  UNL1        0.0013
      5 C         -17.4526  -10.5189   18.9305 C.ar    1  UNL1       -0.0001
      6 C         -18.4526   -9.6080   19.5787 C.ar    1  UNL1        0.0006
      7 C         -18.3895   -8.1295   19.3339 C.ar    1  UNL1        0.0348
      8 C         -19.4753   -7.4048   20.0728 C.3     1  UNL1        0.2333
      9 O         -19.7661   -5.9336   20.1012 O.3     1  UNL1       -0.4693
     10 C         -19.0428   -4.8236   19.3978 C.ar    1  UNL1        0.1548
     11 C         -19.6617   -3.4903   19.6968 C.ar    1  UNL1        0.0678
     12 C         -19.0879   -2.2441   19.0902 C.ar    1  UNL1        0.1433
     13 F         -19.7068   -0.9109   19.3892 F       1  UNL1       -0.2041
     14 C         -17.8954   -2.3312   18.1847 C.ar    1  UNL1        0.0311
     15 C         -17.2765   -3.6645   17.8857 C.ar    1  UNL1        0.0202
     16 C         -17.8502   -4.9106   18.4922 C.ar    1  UNL1        0.0864
     17 C         -15.9293   -5.8828   17.1441 C.3     1  UNL1        0.1222
     18 O          -8.4978   -3.7602   16.1354 O.2     1  UNL1       -0.2707
     19 C          -9.6064   -4.2217   17.0343 C.2     1  UNL1        0.2707
     20 C          -9.3465   -4.4371   18.4957 C.3     1  UNL1        0.2897
     21 O         -10.4552   -4.8986   19.3946 O.3     1  UNL1       -0.4643
     22 C         -11.8237   -5.1447   18.8320 C.ar    1  UNL1        0.1526
     23 C         -12.9324   -5.6062   19.7309 C.ar    1  UNL1        0.0379
     24 C         -14.3009   -5.8522   19.1682 C.ar    1  UNL1        0.0006
     25 C         -14.5608   -5.6368   17.7067 C.ar    1  UNL1       -0.0007
     26 C         -13.4521   -5.1753   16.8078 C.ar    1  UNL1        0.0152
     27 C         -12.0836   -4.9292   17.3705 C.ar    1  UNL1        0.0846
     28 N         -10.9750   -4.4677   16.4716 N.am    1  UNL1       -0.2785
     29 H         -11.1456   -4.3263   15.5124 H       1  UNL1        0.1551
@<TRIPOS>BOND
     1    18    19    2
     2    19    20    1
     3    20    21    1
     4    21    22    1
     5    22    23   ar
     6    23    24   ar
     7    24    25   ar
     8    25    17    1
     9    17     1    1
    10     1     2    1
    11     2     3   ar
    12     3     4   ar
    13     4     5   ar
    14     5     6   ar
    15     6     7   ar
    16     7     8    1
    17     8     9    1
    18     9    10    1
    19    10    11   ar
    20    11    12   ar
    21    12    13    1
    22    12    14   ar
    23    14    15   ar
    24    15    16   ar
    25    25    26   ar
    26    26    27   ar
    27    27    28    1
    28    28    19   am
    29    27    22   ar
    30    16     1    1
    31     7     2   ar
    32    16    10   ar
    33    28    29    1
