@<TRIPOS>MOLECULE
*****
 41 44 0 0 0
SMALL
GASTEIGER

@<TRIPOS>ATOM
      1 C           7.6362   -5.8982   29.5362 C.2     1  UNL1        0.2559
      2 O           6.8562   -6.0995   30.8015 O.2     1  UNL1       -0.2721
      3 N           7.5825   -4.5793   28.8238 N.am    1  UNL1       -0.2758
      4 C           8.3626   -4.3781   27.5585 C.3     1  UNL1        0.0936
      5 C           8.3088   -3.0591   26.8460 C.3     1  UNL1        0.0246
      6 C           7.4751   -1.9415   27.3989 C.3     1  UNL1        0.0374
      7 C           6.6950   -2.1428   28.6641 C.3     1  UNL1        0.0942
      8 C           6.7488   -3.4617   29.3766 C.3     1  UNL1        0.1130
      9 N           5.8612   -1.0251   29.2170 N.am    1  UNL1       -0.2885
     10 C           4.4389   -0.8587   28.7706 C.2     1  UNL1        0.3059
     11 O           3.8504   -1.8100   27.7712 O.2     1  UNL1       -0.2524
     12 N           3.6051    0.2590   29.3235 N.am    1  UNL1       -0.2485
     13 H           6.2475   -0.4007   29.8730 H       1  UNL1        0.1510
     14 H           3.9914    0.8833   29.9794 H       1  UNL1        0.1583
     15 C           2.1828    0.4253   28.8770 C.ar    1  UNL1        0.1664
     16 N           0.9778   -0.1903   29.5243 N.ar    1  UNL1       -0.2282
     17 C          -0.2339    0.2404   28.7522 C.ar    1  UNL1        0.0701
     18 C          -1.6527   -0.1433   29.0519 C.3     1  UNL1        0.0528
     19 C           0.2222    1.1223   27.6277 C.ar    1  UNL1        0.0803
     20 S           1.7158    1.2365   27.7049 S.2     1  UNL1       -0.0488
     21 C          -0.6604    1.7752   26.6056 C.2     1  UNL1        0.1807
     22 C          -0.3630    1.6127   25.1444 C.3     1  UNL1        0.0779
     23 O          -1.8404    2.5906   27.0447 O.2     1  UNL1       -0.2908
     24 C           8.4700   -7.0159   28.9834 C.3     1  UNL1        0.2272
     25 C           8.4183   -9.2102   27.5933 C.3     1  UNL1        0.1748
     26 O           7.9956   -7.7838   27.7854 O.3     1  UNL1       -0.3417
     27 C           7.4214   -0.6226   26.6864 C.3     1  UNL1        0.0738
     28 N           6.2268   -0.2697   25.8507 N.3     1  UNL1       -0.2726
     29 C           5.5921    1.0830   25.9829 C.3     1  UNL1        0.0721
     30 C           4.3975    1.4359   25.1472 C.3     1  UNL1        0.0174
     31 C           3.8376    0.4361   24.1792 C.3     1  UNL1        0.0031
     32 C           4.4723   -0.9165   24.0469 C.3     1  UNL1        0.0204
     33 C           5.6669   -1.2695   24.8827 C.3     1  UNL1        0.0724
     34 C           3.9124   -1.9163   23.0790 C.3     1  UNL1        0.0277
     35 C           3.7500   -1.5508   21.6333 C.ar    1  UNL1       -0.0220
     36 C           4.8716   -1.7944   20.6675 C.ar    1  UNL1       -0.0020
     37 C           4.7091   -1.4290   19.2218 C.ar    1  UNL1        0.0293
     38 C           3.4251   -0.8200   18.7418 C.ar    1  UNL1        0.1401
     39 F           3.2627   -0.4545   17.2962 F       1  UNL1       -0.2042
     40 C           2.3035   -0.5764   19.7076 C.ar    1  UNL1        0.0293
     41 C           2.4659   -0.9419   21.1533 C.ar    1  UNL1       -0.0020
@<TRIPOS>BOND
     1    25    26    1
     2    26    24    1
     3    24     1    1
     4     1     2    2
     5     1     3   am
     6     3     4    1
     7     4     5    1
     8     5     6    1
     9     6    27    1
    10    27    28    1
    11    28    29    1
    12    29    30    1
    13    30    31    1
    14    31    32    1
    15    32    34    1
    16    34    35    1
    17    35    36   ar
    18    36    37   ar
    19    37    38   ar
    20    38    39    1
    21    38    40   ar
    22    40    41   ar
    23    32    33    1
    24     6     7    1
    25     7     9    1
    26     9    10   am
    27    10    11    2
    28    10    12   am
    29    12    15    1
    30    15    16   ar
    31    16    17   ar
    32    17    18    1
    33    17    19   ar
    34    19    21    1
    35    21    22    1
    36    21    23    2
    37    19    20   ar
    38     7     8    1
    39     8     3    1
    40    33    28    1
    41    20    15   ar
    42    41    35   ar
    43     9    13    1
    44    12    14    1
@<TRIPOS>MOLECULE
*****
 41 44 0 0 0
SMALL
GASTEIGER

@<TRIPOS>ATOM
      1 C         -18.6774    1.7549   21.9745 C.2     1  UNL1        0.2559
      2 O         -19.8986    0.9251   22.2393 O.2     1  UNL1       -0.2721
      3 N         -17.7526    1.3912   20.8509 N.am    1  UNL1       -0.2758
      4 C         -16.5315    2.2211   20.5860 C.3     1  UNL1        0.0936
      5 C         -15.6067    1.8573   19.4625 C.3     1  UNL1        0.0246
      6 C         -15.9030    0.6637   18.6037 C.3     1  UNL1        0.0374
      7 C         -17.1241   -0.1661   18.8686 C.3     1  UNL1        0.0942
      8 C         -18.0489    0.1976   19.9921 C.3     1  UNL1        0.1130
      9 N         -17.4205   -1.3598   18.0098 N.am    1  UNL1       -0.2885
     10 C         -17.4063   -2.7356   18.6072 C.2     1  UNL1        0.3059
     11 O         -17.0957   -2.9178   20.0633 O.2     1  UNL1       -0.2524
     12 N         -17.7026   -3.9293   17.7484 N.am    1  UNL1       -0.2485
     13 H         -17.6243   -1.2402   17.0541 H       1  UNL1        0.1510
     14 H         -17.9065   -3.8097   16.7927 H       1  UNL1        0.1583
     15 C         -17.6884   -5.3051   18.3458 C.ar    1  UNL1        0.1664
     16 N         -18.7781   -5.9175   19.1750 N.ar    1  UNL1       -0.2282
     17 C         -18.3452   -7.3010   19.5606 C.ar    1  UNL1        0.0701
     18 C         -19.1315   -8.2714   20.3912 C.3     1  UNL1        0.0528
     19 C         -16.9880   -7.5436   18.9697 C.ar    1  UNL1        0.0803
     20 S         -16.5821   -6.3100   18.2190 S.2     1  UNL1       -0.0488
     21 C         -16.1788   -8.7992   19.1057 C.2     1  UNL1        0.1807
     22 C         -15.4340   -9.3433   17.9228 C.3     1  UNL1        0.0779
     23 O         -16.1143   -9.5107   20.4247 O.2     1  UNL1       -0.2908
     24 C         -18.3812    2.9485   22.8332 C.3     1  UNL1        0.2272
     25 C         -19.3145    4.3087   24.8405 C.3     1  UNL1        0.1748
     26 O         -18.8853    3.0005   24.2450 O.3     1  UNL1       -0.3417
     27 C         -14.9782    0.3000   17.4802 C.3     1  UNL1        0.0738
     28 N         -13.6902   -0.4122   17.7696 N.3     1  UNL1       -0.2726
     29 C         -12.3971    0.1304   17.2370 C.3     1  UNL1        0.0721
     30 C         -11.1091   -0.5818   17.5264 C.3     1  UNL1        0.0174
     31 C         -11.1141   -1.8365   18.3485 C.3     1  UNL1        0.0031
     32 C         -12.4071   -2.3790   18.8810 C.3     1  UNL1        0.0204
     33 C         -13.6952   -1.6669   18.5916 C.3     1  UNL1        0.0724
     34 C         -12.4121   -3.6337   19.7031 C.3     1  UNL1        0.0277
     35 C         -11.8142   -4.8940   19.1516 C.ar    1  UNL1       -0.0220
     36 C         -12.7033   -6.0367   18.7592 C.ar    1  UNL1       -0.0020
     37 C         -12.1055   -7.2970   18.2077 C.ar    1  UNL1        0.0293
     38 C         -10.6186   -7.4147   18.0486 C.ar    1  UNL1        0.1401
     39 F         -10.0207   -8.6750   17.4972 F       1  UNL1       -0.2042
     40 C          -9.7295   -6.2721   18.4411 C.ar    1  UNL1        0.0293
     41 C         -10.3273   -5.0117   18.9926 C.ar    1  UNL1       -0.0020
@<TRIPOS>BOND
     1    25    26    1
     2    26    24    1
     3    24     1    1
     4     1     2    2
     5     1     3   am
     6     3     4    1
     7     4     5    1
     8     5     6    1
     9     6    27    1
    10    27    28    1
    11    28    29    1
    12    29    30    1
    13    30    31    1
    14    31    32    1
    15    32    34    1
    16    34    35    1
    17    35    36   ar
    18    36    37   ar
    19    37    38   ar
    20    38    39    1
    21    38    40   ar
    22    40    41   ar
    23    32    33    1
    24     6     7    1
    25     7     9    1
    26     9    10   am
    27    10    11    2
    28    10    12   am
    29    12    15    1
    30    15    16   ar
    31    16    17   ar
    32    17    18    1
    33    17    19   ar
    34    19    21    1
    35    21    22    1
    36    21    23    2
    37    19    20   ar
    38     7     8    1
    39     8     3    1
    40    33    28    1
    41    20    15   ar
    42    41    35   ar
    43     9    13    1
    44    12    14    1
@<TRIPOS>MOLECULE
*****
 41 44 0 0 0
SMALL
GASTEIGER

@<TRIPOS>ATOM
      1 C           2.1650    3.0880   37.7663 C.2     1  UNL1        0.2559
      2 O           1.1110    4.0012   37.2140 O.2     1  UNL1       -0.2721
      3 N           3.1872    2.4821   36.8508 N.am    1  UNL1       -0.2758
      4 C           4.2411    1.5689   37.4031 C.3     1  UNL1        0.0936
      5 C           5.2633    0.9630   36.4876 C.3     1  UNL1        0.0246
      6 C           5.2314    1.2704   35.0198 C.3     1  UNL1        0.0374
      7 C           4.1775    2.1836   34.4675 C.3     1  UNL1        0.0942
      8 C           3.1553    2.7895   35.3830 C.3     1  UNL1        0.1130
      9 N           4.1456    2.4910   32.9996 N.am    1  UNL1       -0.2885
     10 C           2.9917    2.0269   32.1611 C.2     1  UNL1        0.3059
     11 O           1.8697    1.2554   32.7903 O.2     1  UNL1       -0.2524
     12 N           2.9599    2.3343   30.6932 N.am    1  UNL1       -0.2485
     13 H           4.8820    2.9973   32.5867 H       1  UNL1        0.1510
     14 H           3.6963    2.8406   30.2802 H       1  UNL1        0.1583
     15 C           1.8060    1.8702   29.8546 C.ar    1  UNL1        0.1664
     16 N           0.9571    0.6612   30.1148 N.ar    1  UNL1       -0.2282
     17 C          -0.0751    0.5774   29.0296 C.ar    1  UNL1        0.0701
     18 C          -1.1326   -0.4783   28.8984 C.3     1  UNL1        0.0528
     19 C           0.1359    1.7346   28.0988 C.ar    1  UNL1        0.0803
     20 S           1.2985    2.5336   28.6087 S.2     1  UNL1       -0.0488
     21 C          -0.6735    2.0393   26.8732 C.2     1  UNL1        0.1807
     22 C          -0.2446    1.5045   25.5391 C.3     1  UNL1        0.0779
     23 O          -1.9119    2.8788   26.9819 O.2     1  UNL1       -0.2908
     24 C           2.1968    2.7806   39.2341 C.3     1  UNL1        0.2272
     25 C           1.1261    0.4136   39.2667 C.3     1  UNL1        0.1748
     26 O           1.2175    1.8058   39.8177 O.3     1  UNL1       -0.3417
     27 C           6.2536    0.6645   34.1043 C.3     1  UNL1        0.0738
     28 N           6.0552   -0.7241   33.5729 N.3     1  UNL1       -0.2726
     29 C           4.7626   -1.4440   33.8198 C.3     1  UNL1        0.0721
     30 C           4.5641   -2.8326   33.2883 C.3     1  UNL1        0.0174
     31 C           5.6582   -3.5012   32.5099 C.3     1  UNL1        0.0031
     32 C           6.9508   -2.7813   32.2630 C.3     1  UNL1        0.0204
     33 C           7.1493   -1.3927   32.7945 C.3     1  UNL1        0.0724
     34 C           8.0449   -3.4499   31.4846 C.3     1  UNL1        0.0277
     35 C           7.7151   -4.2331   30.2485 C.ar    1  UNL1       -0.0220
     36 C           8.2113   -5.6406   30.0977 C.ar    1  UNL1       -0.0020
     37 C           7.8816   -6.4237   28.8617 C.ar    1  UNL1        0.0293
     38 C           7.0557   -5.7994   27.7763 C.ar    1  UNL1        0.1401
     39 F           6.7259   -6.5825   26.5402 F       1  UNL1       -0.2042
     40 C           6.5594   -4.3919   27.9270 C.ar    1  UNL1        0.0293
     41 C           6.8892   -3.6087   29.1632 C.ar    1  UNL1       -0.0020
@<TRIPOS>BOND
     1    25    26    1
     2    26    24    1
     3    24     1    1
     4     1     2    2
     5     1     3   am
     6     3     4    1
     7     4     5    1
     8     5     6    1
     9     6    27    1
    10    27    28    1
    11    28    29    1
    12    29    30    1
    13    30    31    1
    14    31    32    1
    15    32    34    1
    16    34    35    1
    17    35    36   ar
    18    36    37   ar
    19    37    38   ar
    20    38    39    1
    21    38    40   ar
    22    40    41   ar
    23    32    33    1
    24     6     7    1
    25     7     9    1
    26     9    10   am
    27    10    11    2
    28    10    12   am
    29    12    15    1
    30    15    16   ar
    31    16    17   ar
    32    17    18    1
    33    17    19   ar
    34    19    21    1
    35    21    22    1
    36    21    23    2
    37    19    20   ar
    38     7     8    1
    39     8     3    1
    40    33    28    1
    41    20    15   ar
    42    41    35   ar
    43     9    13    1
    44    12    14    1
@<TRIPOS>MOLECULE
*****
 41 44 0 0 0
SMALL
GASTEIGER

@<TRIPOS>ATOM
      1 C           4.8476    3.7415   36.8428 C.2     1  UNL1        0.2559
      2 O           4.8548    5.0232   36.0636 O.2     1  UNL1       -0.2721
      3 N           4.8247    2.4260   36.1225 N.am    1  UNL1       -0.2758
      4 C           4.8175    1.1443   36.9017 C.3     1  UNL1        0.0936
      5 C           4.7945   -0.1712   36.1814 C.3     1  UNL1        0.0246
      6 C           4.7787   -0.2051   34.6819 C.3     1  UNL1        0.0374
      7 C           4.7859    1.0766   33.9027 C.3     1  UNL1        0.0942
      8 C           4.8088    2.3921   34.6230 C.3     1  UNL1        0.1130
      9 N           4.7701    1.0428   32.4032 N.am    1  UNL1       -0.2885
     10 C           3.4662    0.9383   31.6690 C.2     1  UNL1        0.3059
     11 O           2.1781    0.8676   32.4344 O.2     1  UNL1       -0.2524
     12 N           3.4504    0.9045   30.1694 N.am    1  UNL1       -0.2485
     13 H           5.6155    1.0892   31.9008 H       1  UNL1        0.1510
     14 H           4.2958    0.9509   29.6671 H       1  UNL1        0.1583
     15 C           2.1465    0.8000   29.4353 C.ar    1  UNL1        0.1664
     16 N           1.0359   -0.1600   29.7432 N.ar    1  UNL1       -0.2282
     17 C          -0.0727    0.0838   28.7626 C.ar    1  UNL1        0.0701
     18 C          -1.3777   -0.6536   28.7059 C.3     1  UNL1        0.0528
     19 C           0.3528    1.1946   27.8486 C.ar    1  UNL1        0.0803
     20 S           1.7244    1.6372   28.2644 S.2     1  UNL1       -0.0488
     21 C          -0.4519    1.7629   26.7175 C.2     1  UNL1        0.1807
     22 C          -0.1250    1.3884   25.3023 C.3     1  UNL1        0.0779
     23 O          -1.5835    2.7056   27.0016 O.2     1  UNL1       -0.2908
     24 C           4.8634    3.7754   38.3423 C.3     1  UNL1        0.2272
     25 C           2.4154    3.0798   38.8653 C.3     1  UNL1        0.1748
     26 O           3.5869    3.9865   39.1013 O.3     1  UNL1       -0.3417
     27 C           4.7557   -1.5206   33.9616 C.3     1  UNL1        0.0738
     28 N           5.9958   -2.0284   33.2877 N.3     1  UNL1       -0.2726
     29 C           7.2802   -1.2623   33.4044 C.3     1  UNL1        0.0721
     30 C           8.5203   -1.7701   32.7305 C.3     1  UNL1        0.0174
     31 C           8.4761   -3.0440   31.9397 C.3     1  UNL1        0.0031
     32 C           7.1918   -3.8101   31.8229 C.3     1  UNL1        0.0204
     33 C           5.9516   -3.3023   32.4969 C.3     1  UNL1        0.0724
     34 C           7.1476   -5.0839   31.0321 C.3     1  UNL1        0.0277
     35 C           7.0466   -5.0351   29.5364 C.ar    1  UNL1       -0.0220
     36 C           6.5350   -3.7982   28.8592 C.ar    1  UNL1       -0.0020
     37 C           6.4341   -3.7493   27.3634 C.ar    1  UNL1        0.0293
     38 C           6.8447   -4.9373   26.5448 C.ar    1  UNL1        0.1401
     39 F           6.7438   -4.8884   25.0490 F       1  UNL1       -0.2042
     40 C           7.3563   -6.1741   27.2219 C.ar    1  UNL1        0.0293
     41 C           7.4572   -6.2230   28.7177 C.ar    1  UNL1       -0.0020
@<TRIPOS>BOND
     1    25    26    1
     2    26    24    1
     3    24     1    1
     4     1     2    2
     5     1     3   am
     6     3     4    1
     7     4     5    1
     8     5     6    1
     9     6    27    1
    10    27    28    1
    11    28    29    1
    12    29    30    1
    13    30    31    1
    14    31    32    1
    15    32    34    1
    16    34    35    1
    17    35    36   ar
    18    36    37   ar
    19    37    38   ar
    20    38    39    1
    21    38    40   ar
    22    40    41   ar
    23    32    33    1
    24     6     7    1
    25     7     9    1
    26     9    10   am
    27    10    11    2
    28    10    12   am
    29    12    15    1
    30    15    16   ar
    31    16    17   ar
    32    17    18    1
    33    17    19   ar
    34    19    21    1
    35    21    22    1
    36    21    23    2
    37    19    20   ar
    38     7     8    1
    39     8     3    1
    40    33    28    1
    41    20    15   ar
    42    41    35   ar
    43     9    13    1
    44    12    14    1
@<TRIPOS>MOLECULE
*****
 41 44 0 0 0
SMALL
GASTEIGER

@<TRIPOS>ATOM
      1 C           1.6631    0.7478   28.1924 C.2     1  UNL1        0.2559
      2 O           3.0286    0.2505   28.5638 O.2     1  UNL1       -0.2721
      3 N           1.3995    1.2493   26.8035 N.am    1  UNL1       -0.2758
      4 C           0.0340    1.7465   26.4321 C.3     1  UNL1        0.0936
      5 C          -0.2295    2.2480   25.0432 C.3     1  UNL1        0.0246
      6 C           0.8725    2.2523   24.0257 C.3     1  UNL1        0.0374
      7 C           2.2381    1.7551   24.3971 C.3     1  UNL1        0.0942
      8 C           2.5016    1.2536   25.7860 C.3     1  UNL1        0.1130
      9 N           3.3402    1.7593   23.3795 N.am    1  UNL1       -0.2885
     10 C           3.8064    0.4689   22.7734 C.2     1  UNL1        0.3059
     11 O           3.1706   -0.8259   23.1849 O.2     1  UNL1       -0.2524
     12 N           4.9085    0.4732   21.7559 N.am    1  UNL1       -0.2485
     13 H           3.7575    2.6091   23.1094 H       1  UNL1        0.1510
     14 H           5.3259    1.3230   21.4858 H       1  UNL1        0.1583
     15 C           5.3748   -0.8173   21.1498 C.ar    1  UNL1        0.1664
     16 N           4.5795   -1.6989   20.2332 N.ar    1  UNL1       -0.2282
     17 C           5.4313   -2.8792   19.8709 C.ar    1  UNL1        0.0701
     18 C           5.0316   -4.0127   18.9734 C.3     1  UNL1        0.0528
     19 C           6.7531   -2.7270   20.5635 C.ar    1  UNL1        0.0803
     20 S           6.7181   -1.4527   21.3540 S.2     1  UNL1       -0.0488
     21 C           7.9072   -3.6815   20.4803 C.2     1  UNL1        0.1807
     22 C           9.2170   -3.2266   19.9081 C.3     1  UNL1        0.0779
     23 O           7.7515   -5.0910   20.9694 O.2     1  UNL1       -0.2908
     24 C           0.5610    0.7435   29.2099 C.3     1  UNL1        0.2272
     25 C          -1.7602   -0.4053   29.0046 C.3     1  UNL1        0.1748
     26 O          -0.3069   -0.4694   29.3705 O.3     1  UNL1       -0.3417
     27 C           0.6090    2.7538   22.6368 C.3     1  UNL1        0.0738
     28 N           1.0083    1.9253   21.4519 N.3     1  UNL1       -0.2726
     29 C           0.4250    0.5563   21.2631 C.3     1  UNL1        0.0721
     30 C           0.8243   -0.2722   20.0782 C.3     1  UNL1        0.0174
     31 C           1.8069    0.2683   19.0820 C.3     1  UNL1        0.0031
     32 C           2.3902    1.6372   19.2707 C.3     1  UNL1        0.0204
     33 C           1.9909    2.4658   20.4557 C.3     1  UNL1        0.0724
     34 C           3.3729    2.1777   18.2746 C.3     1  UNL1        0.0277
     35 C           4.7913    1.6899   18.2797 C.ar    1  UNL1       -0.0220
     36 C           5.8407    2.4432   19.0423 C.ar    1  UNL1       -0.0020
     37 C           7.2591    1.9554   19.0475 C.ar    1  UNL1        0.0293
     38 C           7.6282    0.7144   18.2901 C.ar    1  UNL1        0.1401
     39 F           9.0467    0.2266   18.2953 F       1  UNL1       -0.2042
     40 C           6.5789   -0.0389   17.5276 C.ar    1  UNL1        0.0293
     41 C           5.1604    0.4489   17.5224 C.ar    1  UNL1       -0.0020
@<TRIPOS>BOND
     1    25    26    1
     2    26    24    1
     3    24     1    1
     4     1     2    2
     5     1     3   am
     6     3     4    1
     7     4     5    1
     8     5     6    1
     9     6    27    1
    10    27    28    1
    11    28    29    1
    12    29    30    1
    13    30    31    1
    14    31    32    1
    15    32    34    1
    16    34    35    1
    17    35    36   ar
    18    36    37   ar
    19    37    38   ar
    20    38    39    1
    21    38    40   ar
    22    40    41   ar
    23    32    33    1
    24     6     7    1
    25     7     9    1
    26     9    10   am
    27    10    11    2
    28    10    12   am
    29    12    15    1
    30    15    16   ar
    31    16    17   ar
    32    17    18    1
    33    17    19   ar
    34    19    21    1
    35    21    22    1
    36    21    23    2
    37    19    20   ar
    38     7     8    1
    39     8     3    1
    40    33    28    1
    41    20    15   ar
    42    41    35   ar
    43     9    13    1
    44    12    14    1
@<TRIPOS>MOLECULE
*****
 41 44 0 0 0
SMALL
GASTEIGER

@<TRIPOS>ATOM
      1 C           8.4107   -5.9811   28.0404 C.2     1  UNL1        0.2559
      2 O           7.7203   -7.1197   27.3498 O.2     1  UNL1       -0.2721
      3 N           7.9762   -4.5698   27.7769 N.am    1  UNL1       -0.2758
      4 C           8.6666   -3.4312   28.4675 C.3     1  UNL1        0.0936
      5 C           8.2321   -2.0199   28.2041 C.3     1  UNL1        0.0246
      6 C           7.1071   -1.7472   27.2501 C.3     1  UNL1        0.0374
      7 C           6.4167   -2.8858   26.5596 C.3     1  UNL1        0.0942
      8 C           6.8512   -4.2971   26.8230 C.3     1  UNL1        0.1130
      9 N           5.2917   -2.6131   25.6056 N.am    1  UNL1       -0.2885
     10 C           5.4631   -2.8976   24.1428 C.2     1  UNL1        0.3059
     11 O           6.7595   -3.4548   23.6340 O.2     1  UNL1       -0.2524
     12 N           4.3381   -2.6249   23.1888 N.am    1  UNL1       -0.2485
     13 H           4.4408   -2.2473   25.9395 H       1  UNL1        0.1510
     14 H           3.4872   -2.2592   23.5228 H       1  UNL1        0.1583
     15 C           4.5095   -2.9095   21.7261 C.ar    1  UNL1        0.1664
     16 N           4.4091   -4.2556   21.0721 N.ar    1  UNL1       -0.2282
     17 C           4.6489   -4.0760   19.6024 C.ar    1  UNL1        0.0701
     18 C           4.6415   -5.1627   18.5685 C.3     1  UNL1        0.0528
     19 C           4.8976   -2.6187   19.3480 C.ar    1  UNL1        0.0803
     20 S           4.8114   -1.8978   20.6605 S.2     1  UNL1       -0.0488
     21 C           5.1824   -1.9924   18.0151 C.2     1  UNL1        0.1807
     22 C           4.1372   -1.1527   17.3423 C.3     1  UNL1        0.0779
     23 O           6.5123   -2.2058   17.3549 O.2     1  UNL1       -0.2908
     24 C           9.5356   -6.2538   28.9943 C.3     1  UNL1        0.2272
     25 C           9.3661   -6.3460   31.5852 C.3     1  UNL1        0.1748
     26 O           9.2806   -7.0294   30.2526 O.3     1  UNL1       -0.3417
     27 C           6.6726   -0.3359   26.9867 C.3     1  UNL1        0.0738
     28 N           6.4807    0.1391   25.5769 N.3     1  UNL1       -0.2726
     29 C           7.5892   -0.0110   24.5775 C.3     1  UNL1        0.0721
     30 C           7.3974    0.4639   23.1677 C.3     1  UNL1        0.0174
     31 C           6.0970    1.0889   22.7572 C.3     1  UNL1        0.0031
     32 C           4.9886    1.2390   23.7565 C.3     1  UNL1        0.0204
     33 C           5.1804    0.7641   25.1664 C.3     1  UNL1        0.0724
     34 C           3.6882    1.8640   23.3461 C.3     1  UNL1        0.0277
     35 C           3.0301    1.4520   22.0627 C.ar    1  UNL1       -0.0220
     36 C           2.0997    0.2756   22.0409 C.ar    1  UNL1       -0.0020
     37 C           1.4416   -0.1365   20.7575 C.ar    1  UNL1        0.0293
     38 C           1.7138    0.6279   19.4959 C.ar    1  UNL1        0.1401
     39 F           1.0557    0.2159   18.2126 F       1  UNL1       -0.2042
     40 C           2.6442    1.8043   19.5177 C.ar    1  UNL1        0.0293
     41 C           3.3024    2.2164   20.8011 C.ar    1  UNL1       -0.0020
@<TRIPOS>BOND
     1    25    26    1
     2    26    24    1
     3    24     1    1
     4     1     2    2
     5     1     3   am
     6     3     4    1
     7     4     5    1
     8     5     6    1
     9     6    27    1
    10    27    28    1
    11    28    29    1
    12    29    30    1
    13    30    31    1
    14    31    32    1
    15    32    34    1
    16    34    35    1
    17    35    36   ar
    18    36    37   ar
    19    37    38   ar
    20    38    39    1
    21    38    40   ar
    22    40    41   ar
    23    32    33    1
    24     6     7    1
    25     7     9    1
    26     9    10   am
    27    10    11    2
    28    10    12   am
    29    12    15    1
    30    15    16   ar
    31    16    17   ar
    32    17    18    1
    33    17    19   ar
    34    19    21    1
    35    21    22    1
    36    21    23    2
    37    19    20   ar
    38     7     8    1
    39     8     3    1
    40    33    28    1
    41    20    15   ar
    42    41    35   ar
    43     9    13    1
    44    12    14    1
@<TRIPOS>MOLECULE
*****
 41 44 0 0 0
SMALL
GASTEIGER

@<TRIPOS>ATOM
      1 C           3.3741    0.0026   19.8711 C.2     1  UNL1        0.2559
      2 O           4.2196   -0.4201   21.0358 O.2     1  UNL1       -0.2721
      3 N           2.3477    1.0830   20.0424 N.am    1  UNL1       -0.2758
      4 C           1.5023    1.5057   18.8777 C.3     1  UNL1        0.0936
      5 C           0.4759    2.5860   19.0489 C.3     1  UNL1        0.0246
      6 C           0.2949    3.2437   20.3848 C.3     1  UNL1        0.0374
      7 C           1.1403    2.8210   21.5495 C.3     1  UNL1        0.0942
      8 C           2.1668    1.7406   21.3783 C.3     1  UNL1        0.1130
      9 N           0.9594    3.4786   22.8855 N.am    1  UNL1       -0.2885
     10 C           0.7450    2.6407   24.1110 C.2     1  UNL1        0.3059
     11 O           0.7115    1.1452   24.0006 O.2     1  UNL1       -0.2524
     12 N           0.5641    3.2984   25.4470 N.am    1  UNL1       -0.2485
     13 H           0.9814    4.4602   22.9580 H       1  UNL1        0.1510
     14 H           0.5860    4.2800   25.5195 H       1  UNL1        0.1583
     15 C           0.3496    2.4605   26.6725 C.ar    1  UNL1        0.1664
     16 N          -0.8902    1.6840   27.0038 N.ar    1  UNL1       -0.2282
     17 C          -0.6687    0.9956   28.3179 C.ar    1  UNL1        0.0701
     18 C          -1.6515    0.1113   29.0268 C.3     1  UNL1        0.0528
     19 C           0.7081    1.3466   28.7989 C.ar    1  UNL1        0.0803
     20 S           1.3374    2.2520   27.7820 S.2     1  UNL1       -0.0488
     21 C           1.3438    0.8751   30.0730 C.2     1  UNL1        0.1807
     22 C           1.6087    1.8478   31.1838 C.3     1  UNL1        0.0779
     23 O           1.7147   -0.5691   30.2364 O.2     1  UNL1       -0.2908
     24 C           3.5551   -0.6550   18.5352 C.3     1  UNL1        0.2272
     25 C           5.3767   -2.4846   18.2439 C.3     1  UNL1        0.1748
     26 O           3.9420   -2.1022   18.4579 O.3     1  UNL1       -0.3417
     27 C          -0.7315    4.3240   20.5561 C.3     1  UNL1        0.0738
     28 N          -2.1912    3.9788   20.5540 N.3     1  UNL1       -0.2726
     29 C          -2.9657    4.0025   19.2695 C.3     1  UNL1        0.0721
     30 C          -4.4254    3.6573   19.2674 C.3     1  UNL1        0.0174
     31 C          -5.1107    3.2885   20.5497 C.3     1  UNL1        0.0031
     32 C          -4.3363    3.2648   21.8341 C.3     1  UNL1        0.0204
     33 C          -2.8765    3.6100   21.8363 C.3     1  UNL1        0.0724
     34 C          -5.0217    2.8960   23.1164 C.3     1  UNL1        0.0277
     35 C          -5.8350    3.9185   23.8532 C.ar    1  UNL1       -0.0220
     36 C          -7.1441    4.3845   23.2883 C.ar    1  UNL1       -0.0020
     37 C          -7.9574    5.4070   24.0251 C.ar    1  UNL1        0.0293
     38 C          -7.4617    5.9636   25.3268 C.ar    1  UNL1        0.1401
     39 F          -8.2750    6.9861   26.0636 F       1  UNL1       -0.2042
     40 C          -6.1526    5.4976   25.8918 C.ar    1  UNL1        0.0293
     41 C          -5.3392    4.4750   25.1550 C.ar    1  UNL1       -0.0020
@<TRIPOS>BOND
     1    25    26    1
     2    26    24    1
     3    24     1    1
     4     1     2    2
     5     1     3   am
     6     3     4    1
     7     4     5    1
     8     5     6    1
     9     6    27    1
    10    27    28    1
    11    28    29    1
    12    29    30    1
    13    30    31    1
    14    31    32    1
    15    32    34    1
    16    34    35    1
    17    35    36   ar
    18    36    37   ar
    19    37    38   ar
    20    38    39    1
    21    38    40   ar
    22    40    41   ar
    23    32    33    1
    24     6     7    1
    25     7     9    1
    26     9    10   am
    27    10    11    2
    28    10    12   am
    29    12    15    1
    30    15    16   ar
    31    16    17   ar
    32    17    18    1
    33    17    19   ar
    34    19    21    1
    35    21    22    1
    36    21    23    2
    37    19    20   ar
    38     7     8    1
    39     8     3    1
    40    33    28    1
    41    20    15   ar
    42    41    35   ar
    43     9    13    1
    44    12    14    1
@<TRIPOS>MOLECULE
*****
 41 44 0 0 0
SMALL
GASTEIGER

@<TRIPOS>ATOM
      1 C           6.0485   -0.8208   19.6294 C.2     1  UNL1        0.2559
      2 O           7.1310   -0.3051   20.5305 O.2     1  UNL1       -0.2721
      3 N           4.6196   -0.4382   19.8785 N.am    1  UNL1       -0.2758
      4 C           3.5371   -0.9538   18.9773 C.3     1  UNL1        0.0936
      5 C           2.1082   -0.5712   19.2265 C.3     1  UNL1        0.0246
      6 C           1.7620    0.3270   20.3767 C.3     1  UNL1        0.0374
      7 C           2.8445    0.8427   21.2779 C.3     1  UNL1        0.0942
      8 C           4.2734    0.4601   21.0288 C.3     1  UNL1        0.1130
      9 N           2.4983    1.7410   22.4283 N.am    1  UNL1       -0.2885
     10 C           2.2423    1.1564   23.7857 C.2     1  UNL1        0.3059
     11 O           2.3326   -0.3265   23.9929 O.2     1  UNL1       -0.2524
     12 N           1.8961    2.0547   24.9361 N.am    1  UNL1       -0.2485
     13 H           2.4390    2.7142   22.2923 H       1  UNL1        0.1510
     14 H           1.8368    3.0280   24.8001 H       1  UNL1        0.1583
     15 C           1.6401    1.4701   26.2935 C.ar    1  UNL1        0.1664
     16 N           2.6166    0.6768   27.1102 N.ar    1  UNL1       -0.2282
     17 C           1.9428    0.2926   28.3940 C.ar    1  UNL1        0.0701
     18 C           2.5545   -0.5072   29.5059 C.3     1  UNL1        0.0528
     19 C           0.5497    0.8485   28.3708 C.ar    1  UNL1        0.0803
     20 S           0.3627    1.5762   27.0726 S.2     1  UNL1       -0.0488
     21 C          -0.4761    0.7023   29.4554 C.2     1  UNL1        0.1807
     22 C          -1.7345   -0.0724   29.1980 C.3     1  UNL1        0.0779
     23 O          -0.2435    1.3308   30.7974 O.2     1  UNL1       -0.2908
     24 C           6.3947   -1.7190   18.4791 C.3     1  UNL1        0.2272
     25 C           6.4307    0.3067   16.8527 C.3     1  UNL1        0.1748
     26 O           6.7528   -1.1284   17.1476 O.3     1  UNL1       -0.3417
     27 C           0.3331    0.7096   20.6259 C.3     1  UNL1        0.0738
     28 N          -0.0961    2.1398   20.4836 N.3     1  UNL1       -0.2726
     29 C           0.2460    2.9053   19.2398 C.3     1  UNL1        0.0721
     30 C          -0.1832    4.3355   19.0975 C.3     1  UNL1        0.0174
     31 C          -0.9545    5.0003   20.1990 C.3     1  UNL1        0.0031
     32 C          -1.2965    4.2348   21.4428 C.3     1  UNL1        0.0204
     33 C          -0.8673    2.8045   21.5851 C.3     1  UNL1        0.0724
     34 C          -2.0678    4.8995   22.5443 C.3     1  UNL1        0.0277
     35 C          -3.5380    4.6417   22.6918 C.ar    1  UNL1       -0.0220
     36 C          -4.1611    4.6119   24.0560 C.ar    1  UNL1       -0.0020
     37 C          -5.6314    4.3541   24.2035 C.ar    1  UNL1        0.0293
     38 C          -6.4786    4.1259   22.9869 C.ar    1  UNL1        0.1401
     39 F          -7.9489    3.8681   23.1344 F       1  UNL1       -0.2042
     40 C          -5.8556    4.1557   21.6227 C.ar    1  UNL1        0.0293
     41 C          -4.3852    4.4136   21.4752 C.ar    1  UNL1       -0.0020
@<TRIPOS>BOND
     1    25    26    1
     2    26    24    1
     3    24     1    1
     4     1     2    2
     5     1     3   am
     6     3     4    1
     7     4     5    1
     8     5     6    1
     9     6    27    1
    10    27    28    1
    11    28    29    1
    12    29    30    1
    13    30    31    1
    14    31    32    1
    15    32    34    1
    16    34    35    1
    17    35    36   ar
    18    36    37   ar
    19    37    38   ar
    20    38    39    1
    21    38    40   ar
    22    40    41   ar
    23    32    33    1
    24     6     7    1
    25     7     9    1
    26     9    10   am
    27    10    11    2
    28    10    12   am
    29    12    15    1
    30    15    16   ar
    31    16    17   ar
    32    17    18    1
    33    17    19   ar
    34    19    21    1
    35    21    22    1
    36    21    23    2
    37    19    20   ar
    38     7     8    1
    39     8     3    1
    40    33    28    1
    41    20    15   ar
    42    41    35   ar
    43     9    13    1
    44    12    14    1
@<TRIPOS>MOLECULE
*****
 41 44 0 0 0
SMALL
GASTEIGER

@<TRIPOS>ATOM
      1 C          -2.0429    3.5878   24.1640 C.2     1  UNL1        0.2559
      2 O          -3.2051    3.2119   25.0346 O.2     1  UNL1       -0.2721
      3 N          -0.7002    2.9594   24.3928 N.am    1  UNL1       -0.2758
      4 C           0.4620    3.3353   23.5223 C.3     1  UNL1        0.0936
      5 C           1.8046    2.7068   23.7511 C.3     1  UNL1        0.0246
      6 C           1.9851    1.7025   24.8505 C.3     1  UNL1        0.0374
      7 C           0.8228    1.3266   25.7210 C.3     1  UNL1        0.0942
      8 C          -0.5198    1.9550   25.4922 C.3     1  UNL1        0.1130
      9 N           1.0032    0.3221   26.8205 N.am    1  UNL1       -0.2885
     10 C           1.5425    0.7557   28.1513 C.2     1  UNL1        0.3059
     11 O           1.9014    2.1936   28.3828 O.2     1  UNL1       -0.2524
     12 N           1.7229   -0.2487   29.2508 N.am    1  UNL1       -0.2485
     13 H           0.7677   -0.6216   26.6685 H       1  UNL1        0.1510
     14 H           1.4873   -1.1925   29.0988 H       1  UNL1        0.1583
     15 C           2.2621    0.1848   30.5816 C.ar    1  UNL1        0.1664
     16 N           1.6605    1.2240   31.4806 N.ar    1  UNL1       -0.2282
     17 C           2.5242    1.3367   32.7017 C.ar    1  UNL1        0.0701
     18 C           2.2930    2.2573   33.8632 C.3     1  UNL1        0.0528
     19 C           3.6597    0.3671   32.5576 C.ar    1  UNL1        0.0803
     20 S           3.4976   -0.3448   31.2472 S.2     1  UNL1       -0.0488
     21 C           4.7633    0.1480   33.5495 C.2     1  UNL1        0.1807
     22 C           4.6520   -0.9507   34.5646 C.3     1  UNL1        0.0779
     23 O           5.9782    1.0275   33.5263 O.2     1  UNL1       -0.2908
     24 C          -2.2233    4.5922   23.0647 C.3     1  UNL1        0.2272
     25 C          -1.8681    3.8119   20.6121 C.3     1  UNL1        0.1748
     26 O          -2.7887    4.1640   21.7429 O.3     1  UNL1       -0.3417
     27 C           3.3277    1.0740   25.0793 C.3     1  UNL1        0.0738
     28 N           3.7063   -0.1758   24.3414 N.3     1  UNL1       -0.2726
     29 C           4.5912   -1.1946   24.9965 C.3     1  UNL1        0.0721
     30 C           4.9699   -2.4445   24.2587 C.3     1  UNL1        0.0174
     31 C           4.4636   -2.6756   22.8657 C.3     1  UNL1        0.0031
     32 C           3.5787   -1.6569   22.2106 C.3     1  UNL1        0.0204
     33 C           3.2001   -0.4070   22.9485 C.3     1  UNL1        0.0724
     34 C           3.0725   -1.8881   20.8177 C.3     1  UNL1        0.0277
     35 C           2.3527   -0.7918   20.0897 C.ar    1  UNL1       -0.0220
     36 C           0.9577   -0.4145   20.4918 C.ar    1  UNL1       -0.0020
     37 C           0.2379    0.6818   19.7639 C.ar    1  UNL1        0.0293
     38 C           0.9131    1.4009   18.6338 C.ar    1  UNL1        0.1401
     39 F           0.1933    2.4972   17.9058 F       1  UNL1       -0.2042
     40 C           2.3080    1.0237   18.2317 C.ar    1  UNL1        0.0293
     41 C           3.0279   -0.0727   18.9597 C.ar    1  UNL1       -0.0020
@<TRIPOS>BOND
     1    25    26    1
     2    26    24    1
     3    24     1    1
     4     1     2    2
     5     1     3   am
     6     3     4    1
     7     4     5    1
     8     5     6    1
     9     6    27    1
    10    27    28    1
    11    28    29    1
    12    29    30    1
    13    30    31    1
    14    31    32    1
    15    32    34    1
    16    34    35    1
    17    35    36   ar
    18    36    37   ar
    19    37    38   ar
    20    38    39    1
    21    38    40   ar
    22    40    41   ar
    23    32    33    1
    24     6     7    1
    25     7     9    1
    26     9    10   am
    27    10    11    2
    28    10    12   am
    29    12    15    1
    30    15    16   ar
    31    16    17   ar
    32    17    18    1
    33    17    19   ar
    34    19    21    1
    35    21    22    1
    36    21    23    2
    37    19    20   ar
    38     7     8    1
    39     8     3    1
    40    33    28    1
    41    20    15   ar
    42    41    35   ar
    43     9    13    1
    44    12    14    1
