@<TRIPOS>MOLECULE
*****
 28 31 0 0 0
SMALL
GASTEIGER

@<TRIPOS>ATOM
      1 N          -7.9691  -16.1636   24.6321 N.am    1  UNL1       -0.2790
      2 C          -6.5211  -16.4466   24.3613 C.3     1  UNL1        0.0945
      3 C          -6.4461  -17.5087   23.3048 C.3     1  UNL1        0.0370
      4 C          -7.8477  -17.8823   22.9226 C.3     1  UNL1        0.1081
      5 C          -8.7890  -17.0510   23.7429 C.2     1  UNL1        0.2324
      6 O         -10.2870  -17.0986   23.6844 O.2     1  UNL1       -0.2742
      7 C          -9.1075  -18.4546   22.3437 C.ar    1  UNL1       -0.0108
      8 C          -9.7168  -19.6867   22.9443 C.ar    1  UNL1       -0.0035
      9 C         -10.9766  -20.2590   22.3654 C.ar    1  UNL1       -0.0003
     10 C         -11.6272  -19.5992   21.1857 C.ar    1  UNL1       -0.0000
     11 C         -11.0179  -18.3673   20.5851 C.ar    1  UNL1       -0.0003
     12 C          -9.7581  -17.7949   21.1640 C.ar    1  UNL1       -0.0035
     13 C          -7.1698  -18.8332   21.9813 C.ar    1  UNL1       -0.0108
     14 C          -6.7650  -20.1974   22.4558 C.ar    1  UNL1       -0.0035
     15 C          -6.0871  -21.1483   21.5144 C.ar    1  UNL1       -0.0003
     16 C          -5.8140  -20.7351   20.0986 C.ar    1  UNL1       -0.0000
     17 C          -6.2188  -19.3709   19.6241 C.ar    1  UNL1       -0.0003
     18 C          -6.8967  -18.4200   20.5654 C.ar    1  UNL1       -0.0035
     19 C          -8.2817  -15.3750   27.0878 C.3     1  UNL1        0.0233
     20 C          -8.5035  -15.1682   25.6188 C.3     1  UNL1        0.0935
     21 C          -5.1900  -18.0945   22.7311 C.3     1  UNL1        0.0201
     22 C          -3.8968  -17.3412   22.8324 C.3     1  UNL1        0.0723
     23 N          -2.8716  -17.4614   21.7440 N.3     1  UNL1       -0.2685
     24 C          -2.8704  -18.6614   20.8440 C.3     1  UNL1        0.1046
     25 C          -1.8452  -18.7814   19.7556 C.3     1  UNL1        0.1595
     26 O          -0.8213  -17.7016   19.5673 O.3     1  UNL1       -0.3508
     27 C          -0.8225  -16.5016   20.4672 C.3     1  UNL1        0.1595
     28 C          -1.8477  -16.3815   21.5556 C.3     1  UNL1        0.1046
@<TRIPOS>BOND
     1    19    20    1
     2    20     1    1
     3     1     2    1
     4     2     3    1
     5     3    21    1
     6    21    22    1
     7    22    23    1
     8    23    24    1
     9    24    25    1
    10    25    26    1
    11    26    27    1
    12    27    28    1
    13     3     4    1
    14     4     7    1
    15     7     8   ar
    16     8     9   ar
    17     9    10   ar
    18    10    11   ar
    19    11    12   ar
    20     4    13    1
    21    13    14   ar
    22    14    15   ar
    23    15    16   ar
    24    16    17   ar
    25    17    18   ar
    26     4     5    1
    27     5     6    2
    28     5     1   am
    29    28    23    1
    30    12     7   ar
    31    18    13   ar
@<TRIPOS>MOLECULE
*****
 28 31 0 0 0
SMALL
GASTEIGER

@<TRIPOS>ATOM
      1 N          -7.3355  -16.2286   24.2177 N.am    1  UNL1       -0.2790
      2 C          -6.5462  -17.0169   23.2147 C.3     1  UNL1        0.0945
      3 C          -7.5144  -17.7724   22.3533 C.3     1  UNL1        0.0370
      4 C          -8.9020  -17.4511   22.8239 C.3     1  UNL1        0.1081
      5 C          -8.7915  -16.4971   23.9761 C.2     1  UNL1        0.2324
      6 O          -9.9359  -15.9139   24.7507 O.2     1  UNL1       -0.2742
      7 C         -10.3771  -17.3238   23.0640 C.ar    1  UNL1       -0.0108
      8 C         -11.1514  -16.2196   22.4073 C.ar    1  UNL1       -0.0035
      9 C         -12.6265  -16.0923   22.6475 C.ar    1  UNL1       -0.0003
     10 C         -13.3274  -17.0692   23.5444 C.ar    1  UNL1       -0.0000
     11 C         -12.5532  -18.1734   24.2011 C.ar    1  UNL1       -0.0003
     12 C         -11.0780  -18.3007   23.9609 C.ar    1  UNL1       -0.0035
     13 C          -9.3209  -18.3786   21.7219 C.ar    1  UNL1       -0.0108
     14 C          -9.6405  -19.8116   22.0286 C.ar    1  UNL1       -0.0035
     15 C         -10.0594  -20.7391   20.9266 C.ar    1  UNL1       -0.0003
     16 C         -10.1587  -20.2334   19.5179 C.ar    1  UNL1       -0.0000
     17 C          -9.8390  -18.8003   19.2112 C.ar    1  UNL1       -0.0003
     18 C          -9.4201  -17.8729   20.3132 C.ar    1  UNL1       -0.0035
     19 C          -7.0232  -15.6238   26.7250 C.3     1  UNL1        0.0233
     20 C          -6.7685  -15.3299   25.2762 C.3     1  UNL1        0.0935
     21 C          -7.1575  -18.6883   21.2203 C.3     1  UNL1        0.0201
     22 C          -6.0617  -19.6985   21.3892 C.3     1  UNL1        0.0723
     23 N          -4.6392  -19.3167   21.1046 N.3     1  UNL1       -0.2685
     24 C          -4.1938  -19.0827   19.6915 C.3     1  UNL1        0.1046
     25 C          -2.7715  -18.7009   19.4070 C.3     1  UNL1        0.1595
     26 O          -1.7944  -18.5531   20.5355 O.3     1  UNL1       -0.3508
     27 C          -2.2398  -18.7871   21.9486 C.3     1  UNL1        0.1595
     28 C          -3.6622  -19.1689   22.2331 C.3     1  UNL1        0.1046
@<TRIPOS>BOND
     1    19    20    1
     2    20     1    1
     3     1     2    1
     4     2     3    1
     5     3    21    1
     6    21    22    1
     7    22    23    1
     8    23    24    1
     9    24    25    1
    10    25    26    1
    11    26    27    1
    12    27    28    1
    13     3     4    1
    14     4     7    1
    15     7     8   ar
    16     8     9   ar
    17     9    10   ar
    18    10    11   ar
    19    11    12   ar
    20     4    13    1
    21    13    14   ar
    22    14    15   ar
    23    15    16   ar
    24    16    17   ar
    25    17    18   ar
    26     4     5    1
    27     5     6    2
    28     5     1   am
    29    28    23    1
    30    12     7   ar
    31    18    13   ar
@<TRIPOS>MOLECULE
*****
 28 31 0 0 0
SMALL
GASTEIGER

@<TRIPOS>ATOM
      1 N           2.6987   -0.0221   23.9601 N.am    1  UNL1       -0.2790
      2 C           3.5362   -1.2655   24.0128 C.3     1  UNL1        0.0945
      3 C           3.8921   -1.6445   22.6058 C.3     1  UNL1        0.0370
      4 C           3.2746   -0.6354   21.6835 C.3     1  UNL1        0.1081
      5 C           2.5371    0.3673   22.5205 C.2     1  UNL1        0.2324
      6 O           1.7723    1.5514   22.0080 O.2     1  UNL1       -0.2742
      7 C           2.7902    0.2005   20.5362 C.ar    1  UNL1       -0.0108
      8 C           1.4948   -0.1348   19.8582 C.ar    1  UNL1       -0.0035
      9 C           1.0105    0.7012   18.7109 C.ar    1  UNL1       -0.0003
     10 C           1.8214    1.8725   18.2415 C.ar    1  UNL1       -0.0000
     11 C           3.1168    2.2078   18.9193 C.ar    1  UNL1       -0.0003
     12 C           3.6012    1.3718   20.0667 C.ar    1  UNL1       -0.0035
     13 C           3.9109   -1.4634   20.6067 C.ar    1  UNL1       -0.0108
     14 C           3.1792   -2.6417   20.0356 C.ar    1  UNL1       -0.0035
     15 C           3.8156   -3.4697   18.9587 C.ar    1  UNL1       -0.0003
     16 C           5.1835   -3.1193   18.4529 C.ar    1  UNL1       -0.0000
     17 C           5.9152   -1.9409   19.0240 C.ar    1  UNL1       -0.0003
     18 C           5.2789   -1.1129   20.1008 C.ar    1  UNL1       -0.0035
     19 C           0.6740    1.0887   25.1503 C.3     1  UNL1        0.0233
     20 C           2.1239    0.7043   25.1399 C.3     1  UNL1        0.0935
     21 C           4.7201   -2.8254   22.1934 C.3     1  UNL1        0.0201
     22 C           5.4639   -3.6176   23.2274 C.3     1  UNL1        0.0723
     23 N           6.7416   -4.3139   22.8629 N.3     1  UNL1       -0.2685
     24 C           7.4434   -5.1713   23.8740 C.3     1  UNL1        0.1046
     25 C           8.7210   -5.8675   23.5094 C.3     1  UNL1        0.1595
     26 O           9.2968   -5.7064   22.1338 O.3     1  UNL1       -0.3508
     27 C           8.5950   -4.8490   21.1226 C.3     1  UNL1        0.1595
     28 C           7.3174   -4.1528   21.4872 C.3     1  UNL1        0.1046
@<TRIPOS>BOND
     1    19    20    1
     2    20     1    1
     3     1     2    1
     4     2     3    1
     5     3    21    1
     6    21    22    1
     7    22    23    1
     8    23    24    1
     9    24    25    1
    10    25    26    1
    11    26    27    1
    12    27    28    1
    13     3     4    1
    14     4     7    1
    15     7     8   ar
    16     8     9   ar
    17     9    10   ar
    18    10    11   ar
    19    11    12   ar
    20     4    13    1
    21    13    14   ar
    22    14    15   ar
    23    15    16   ar
    24    16    17   ar
    25    17    18   ar
    26     4     5    1
    27     5     6    2
    28     5     1   am
    29    28    23    1
    30    12     7   ar
    31    18    13   ar
@<TRIPOS>MOLECULE
*****
 28 31 0 0 0
SMALL
GASTEIGER

@<TRIPOS>ATOM
      1 N           5.6199    0.3819   23.1268 N.am    1  UNL1       -0.2790
      2 C           6.4331   -0.8784   23.0973 C.3     1  UNL1        0.0945
      3 C           5.9132   -1.7394   21.9845 C.3     1  UNL1        0.0370
      4 C           4.7788   -1.0115   21.3263 C.3     1  UNL1        0.1081
      5 C           4.5976    0.2995   22.0322 C.2     1  UNL1        0.2324
      6 O           3.5738    1.3447   21.7016 O.2     1  UNL1       -0.2742
      7 C           3.6323   -0.5369   20.4836 C.ar    1  UNL1       -0.0108
      8 C           3.8946    0.2641   19.2427 C.ar    1  UNL1       -0.0035
      9 C           2.7480    0.7386   18.4001 C.ar    1  UNL1       -0.0003
     10 C           1.3391    0.4121   18.7982 C.ar    1  UNL1       -0.0000
     11 C           1.0769   -0.3888   20.0390 C.ar    1  UNL1       -0.0003
     12 C           2.2234   -0.8634   20.8817 C.ar    1  UNL1       -0.0035
     13 C           4.7204   -2.2233   20.4442 C.ar    1  UNL1       -0.0108
     14 C           5.4700   -2.2422   19.1451 C.ar    1  UNL1       -0.0035
     15 C           5.4116   -3.4541   18.2630 C.ar    1  UNL1       -0.0003
     16 C           4.6036   -4.6470   18.6801 C.ar    1  UNL1       -0.0000
     17 C           3.8540   -4.6281   19.9792 C.ar    1  UNL1       -0.0003
     18 C           3.9124   -3.4163   20.8613 C.ar    1  UNL1       -0.0035
     19 C           4.7153    1.8534   25.0675 C.3     1  UNL1        0.0233
     20 C           5.7979    1.5238   24.0829 C.3     1  UNL1        0.0935
     21 C           6.4360   -3.0912   21.5980 C.3     1  UNL1        0.0201
     22 C           7.7050   -3.6074   22.2088 C.3     1  UNL1        0.0723
     23 N           7.6470   -4.5765   23.3523 N.3     1  UNL1       -0.2685
     24 C           8.3080   -5.9177   23.2331 C.3     1  UNL1        0.1046
     25 C           8.2499   -6.8867   24.3765 C.3     1  UNL1        0.1595
     26 O           7.5309   -6.5145   25.6393 O.3     1  UNL1       -0.3508
     27 C           6.8698   -5.1733   25.7585 C.3     1  UNL1        0.1595
     28 C           6.9279   -4.2043   24.6150 C.3     1  UNL1        0.1046
@<TRIPOS>BOND
     1    19    20    1
     2    20     1    1
     3     1     2    1
     4     2     3    1
     5     3    21    1
     6    21    22    1
     7    22    23    1
     8    23    24    1
     9    24    25    1
    10    25    26    1
    11    26    27    1
    12    27    28    1
    13     3     4    1
    14     4     7    1
    15     7     8   ar
    16     8     9   ar
    17     9    10   ar
    18    10    11   ar
    19    11    12   ar
    20     4    13    1
    21    13    14   ar
    22    14    15   ar
    23    15    16   ar
    24    16    17   ar
    25    17    18   ar
    26     4     5    1
    27     5     6    2
    28     5     1   am
    29    28    23    1
    30    12     7   ar
    31    18    13   ar
@<TRIPOS>MOLECULE
*****
 28 31 0 0 0
SMALL
GASTEIGER

@<TRIPOS>ATOM
      1 N           8.5148   -0.4110   19.6557 N.am    1  UNL1       -0.2790
      2 C           8.7780   -1.7982   20.1622 C.3     1  UNL1        0.0945
      3 C           7.4867   -2.5603   20.1187 C.3     1  UNL1        0.0370
      4 C           6.4255   -1.6442   19.5854 C.3     1  UNL1        0.1081
      5 C           7.0608   -0.3158   19.2992 C.2     1  UNL1        0.2324
      6 O           6.3645    0.8950   18.7526 O.2     1  UNL1       -0.2742
      7 C           5.1768   -0.9766   19.0903 C.ar    1  UNL1       -0.0108
      8 C           4.7991   -1.0722   17.6418 C.ar    1  UNL1       -0.0035
      9 C           3.5504   -0.4046   17.1468 C.ar    1  UNL1       -0.0003
     10 C           2.6795    0.3586   18.1002 C.ar    1  UNL1       -0.0000
     11 C           3.0572    0.4541   19.5487 C.ar    1  UNL1       -0.0003
     12 C           4.3059   -0.2134   20.0438 C.ar    1  UNL1       -0.0035
     13 C           5.5291   -2.8329   19.7682 C.ar    1  UNL1       -0.0108
     14 C           4.8821   -3.0871   21.0973 C.ar    1  UNL1       -0.0035
     15 C           3.9857   -4.2759   21.2800 C.ar    1  UNL1       -0.0003
     16 C           3.7364   -5.2105   20.1335 C.ar    1  UNL1       -0.0000
     17 C           4.3835   -4.9563   18.8043 C.ar    1  UNL1       -0.0003
     18 C           5.2798   -3.7675   18.6216 C.ar    1  UNL1       -0.0035
     19 C           9.3814    1.9407   20.3400 C.3     1  UNL1        0.0233
     20 C           9.5276    0.6880   19.5280 C.3     1  UNL1        0.0935
     21 C           7.2911   -3.9879   20.5355 C.3     1  UNL1        0.0201
     22 C           8.4053   -4.7316   21.2104 C.3     1  UNL1        0.0723
     23 N           8.1806   -5.3635   22.5522 N.3     1  UNL1       -0.2685
     24 C           8.7394   -6.7247   22.8432 C.3     1  UNL1        0.1046
     25 C           8.5147   -7.3565   24.1849 C.3     1  UNL1        0.1595
     26 O           7.7310   -6.6271   25.2356 O.3     1  UNL1       -0.3508
     27 C           7.1722   -5.2659   24.9446 C.3     1  UNL1        0.1595
     28 C           7.3969   -4.6341   23.6028 C.3     1  UNL1        0.1046
@<TRIPOS>BOND
     1    19    20    1
     2    20     1    1
     3     1     2    1
     4     2     3    1
     5     3    21    1
     6    21    22    1
     7    22    23    1
     8    23    24    1
     9    24    25    1
    10    25    26    1
    11    26    27    1
    12    27    28    1
    13     3     4    1
    14     4     7    1
    15     7     8   ar
    16     8     9   ar
    17     9    10   ar
    18    10    11   ar
    19    11    12   ar
    20     4    13    1
    21    13    14   ar
    22    14    15   ar
    23    15    16   ar
    24    16    17   ar
    25    17    18   ar
    26     4     5    1
    27     5     6    2
    28     5     1   am
    29    28    23    1
    30    12     7   ar
    31    18    13   ar
@<TRIPOS>MOLECULE
*****
 28 31 0 0 0
SMALL
GASTEIGER

@<TRIPOS>ATOM
      1 N           2.2316    0.2688   23.4797 N.am    1  UNL1       -0.2790
      2 C           1.6949    0.3794   22.0832 C.3     1  UNL1        0.0945
      3 C           2.5894   -0.4153   21.1786 C.3     1  UNL1        0.0370
      4 C           3.6789   -1.0170   22.0158 C.3     1  UNL1        0.1081
      5 C           3.4578   -0.5942   23.4379 C.2     1  UNL1        0.2324
      6 O           4.3127   -0.9687   24.6121 O.2     1  UNL1       -0.2742
      7 C           4.8665   -1.7387   22.5804 C.ar    1  UNL1       -0.0108
      8 C           6.1954   -1.0476   22.6611 C.ar    1  UNL1       -0.0035
      9 C           7.3829   -1.7693   23.2257 C.ar    1  UNL1       -0.0003
     10 C           7.2417   -3.1820   23.7095 C.ar    1  UNL1       -0.0000
     11 C           5.9129   -3.8731   23.6288 C.ar    1  UNL1       -0.0003
     12 C           4.7253   -3.1514   23.0643 C.ar    1  UNL1       -0.0035
     13 C           4.1483   -1.5906   20.7118 C.ar    1  UNL1       -0.0108
     14 C           5.0964   -0.8127   19.8482 C.ar    1  UNL1       -0.0035
     15 C           5.5658   -1.3864   18.5441 C.ar    1  UNL1       -0.0003
     16 C           5.0870   -2.7380   18.1036 C.ar    1  UNL1       -0.0000
     17 C           4.1389   -3.5159   18.9673 C.ar    1  UNL1       -0.0003
     18 C           3.6695   -2.9423   20.2713 C.ar    1  UNL1       -0.0035
     19 C           0.1961    1.2959   24.7253 C.3     1  UNL1        0.0233
     20 C           1.6451    0.9089   24.7029 C.3     1  UNL1        0.0935
     21 C           2.4235   -0.5794   19.6969 C.3     1  UNL1        0.0201
     22 C           1.3645    0.1956   18.9704 C.3     1  UNL1        0.0723
     23 N           1.5971    1.6350   18.6181 N.3     1  UNL1       -0.2685
     24 C           0.4302    2.5495   18.3904 C.3     1  UNL1        0.1046
     25 C           0.6629    3.9888   18.0381 C.3     1  UNL1        0.1595
     26 O           2.0626    4.5136   17.9135 O.3     1  UNL1       -0.3508
     27 C           3.2295    3.5991   18.1412 C.3     1  UNL1        0.1595
     28 C           2.9968    2.1598   18.4934 C.3     1  UNL1        0.1046
@<TRIPOS>BOND
     1    19    20    1
     2    20     1    1
     3     1     2    1
     4     2     3    1
     5     3    21    1
     6    21    22    1
     7    22    23    1
     8    23    24    1
     9    24    25    1
    10    25    26    1
    11    26    27    1
    12    27    28    1
    13     3     4    1
    14     4     7    1
    15     7     8   ar
    16     8     9   ar
    17     9    10   ar
    18    10    11   ar
    19    11    12   ar
    20     4    13    1
    21    13    14   ar
    22    14    15   ar
    23    15    16   ar
    24    16    17   ar
    25    17    18   ar
    26     4     5    1
    27     5     6    2
    28     5     1   am
    29    28    23    1
    30    12     7   ar
    31    18    13   ar
@<TRIPOS>MOLECULE
*****
 28 31 0 0 0
SMALL
GASTEIGER

@<TRIPOS>ATOM
      1 N           1.4131    0.4181   21.0663 N.am    1  UNL1       -0.2790
      2 C           1.7186    0.4995   22.5327 C.3     1  UNL1        0.0945
      3 C           2.9619   -0.2986   22.7921 C.3     1  UNL1        0.0370
      4 C           3.4248   -0.8733   21.4862 C.3     1  UNL1        0.1081
      5 C           2.4677   -0.4304   20.4196 C.2     1  UNL1        0.2324
      6 O           2.5504   -0.7753   18.9622 O.2     1  UNL1       -0.2742
      7 C           4.1182   -1.5710   20.3538 C.ar    1  UNL1       -0.0108
      8 C           5.1920   -0.8633   19.5816 C.ar    1  UNL1       -0.0035
      9 C           5.8853   -1.5612   18.4493 C.ar    1  UNL1       -0.0003
     10 C           5.5048   -2.9666   18.0890 C.ar    1  UNL1       -0.0000
     11 C           4.4311   -3.6743   18.8611 C.ar    1  UNL1       -0.0003
     12 C           3.7377   -2.9765   19.9935 C.ar    1  UNL1       -0.0035
     13 C           4.5269   -1.4620   22.3160 C.ar    1  UNL1       -0.0108
     14 C           5.7927   -0.6886   22.5394 C.ar    1  UNL1       -0.0035
     15 C           6.8948   -1.2774   23.3693 C.ar    1  UNL1       -0.0003
     16 C           6.7312   -2.6395   23.9758 C.ar    1  UNL1       -0.0000
     17 C           5.4655   -3.4129   23.7525 C.ar    1  UNL1       -0.0003
     18 C           4.3634   -2.8241   22.9226 C.ar    1  UNL1       -0.0035
     19 C           0.5047    2.0812   19.2890 C.3     1  UNL1        0.0233
     20 C           0.2563    1.0704   20.3691 C.3     1  UNL1        0.0935
     21 C           3.6258   -0.4886   24.1238 C.3     1  UNL1        0.0201
     22 C           3.5679    0.6012   25.1529 C.3     1  UNL1        0.0723
     23 N           2.6949    0.4447   26.3627 N.3     1  UNL1       -0.2685
     24 C           3.1225   -0.4540   27.4849 C.3     1  UNL1        0.1046
     25 C           2.2495   -0.6103   28.6946 C.3     1  UNL1        0.1595
     26 O           0.9490    0.1320   28.7821 O.3     1  UNL1       -0.3508
     27 C           0.5215    1.0307   27.6598 C.3     1  UNL1        0.1595
     28 C           1.3944    1.1870   26.4501 C.3     1  UNL1        0.1046
@<TRIPOS>BOND
     1    19    20    1
     2    20     1    1
     3     1     2    1
     4     2     3    1
     5     3    21    1
     6    21    22    1
     7    22    23    1
     8    23    24    1
     9    24    25    1
    10    25    26    1
    11    26    27    1
    12    27    28    1
    13     3     4    1
    14     4     7    1
    15     7     8   ar
    16     8     9   ar
    17     9    10   ar
    18    10    11   ar
    19    11    12   ar
    20     4    13    1
    21    13    14   ar
    22    14    15   ar
    23    15    16   ar
    24    16    17   ar
    25    17    18   ar
    26     4     5    1
    27     5     6    2
    28     5     1   am
    29    28    23    1
    30    12     7   ar
    31    18    13   ar
@<TRIPOS>MOLECULE
*****
 28 31 0 0 0
SMALL
GASTEIGER

@<TRIPOS>ATOM
      1 N           3.6556   -0.7151   24.4161 N.am    1  UNL1       -0.2790
      2 C           2.8101   -0.4901   23.1976 C.3     1  UNL1        0.0945
      3 C           3.4770   -1.1700   22.0388 C.3     1  UNL1        0.0370
      4 C           4.7346   -1.8151   22.5409 C.3     1  UNL1        0.1081
      5 C           4.8450   -1.5340   24.0101 C.2     1  UNL1        0.2324
      6 O           5.9507   -1.9914   24.9146 O.2     1  UNL1       -0.2742
      7 C           6.0256   -2.5512   22.7447 C.ar    1  UNL1       -0.0108
      8 C           6.0096   -3.9948   23.1521 C.ar    1  UNL1       -0.0035
      9 C           7.3006   -4.7308   23.3559 C.ar    1  UNL1       -0.0003
     10 C           8.6075   -4.0233   23.1524 C.ar    1  UNL1       -0.0000
     11 C           8.6234   -2.5799   22.7450 C.ar    1  UNL1       -0.0003
     12 C           7.3325   -1.8438   22.5412 C.ar    1  UNL1       -0.0035
     13 C           4.8940   -2.2501   21.1143 C.ar    1  UNL1       -0.0108
     14 C           4.3382   -3.5692   20.6658 C.ar    1  UNL1       -0.0035
     15 C           4.4977   -4.0042   19.2391 C.ar    1  UNL1       -0.0003
     16 C           5.2129   -3.1201   18.2609 C.ar    1  UNL1       -0.0000
     17 C           5.7687   -1.8010   18.7094 C.ar    1  UNL1       -0.0003
     18 C           5.6093   -1.3660   20.1360 C.ar    1  UNL1       -0.0035
     19 C           3.4474   -1.1414   26.9705 C.3     1  UNL1        0.0233
     20 C           3.3631   -0.2098   25.7978 C.3     1  UNL1        0.0935
     21 C           2.9744   -1.1995   20.6257 C.3     1  UNL1        0.0201
     22 C           1.5091   -1.0403   20.3474 C.3     1  UNL1        0.0723
     23 N           0.9540    0.3092   19.9994 N.3     1  UNL1       -0.2685
     24 C           1.1434    0.8648   18.6191 C.3     1  UNL1        0.1046
     25 C           0.5884    2.2141   18.2711 C.3     1  UNL1        0.1595
     26 O          -0.1561    3.0079   19.3035 O.3     1  UNL1       -0.3508
     27 C          -0.3455    2.4522   20.6838 C.3     1  UNL1        0.1595
     28 C           0.2096    1.1029   21.0318 C.3     1  UNL1        0.1046
@<TRIPOS>BOND
     1    19    20    1
     2    20     1    1
     3     1     2    1
     4     2     3    1
     5     3    21    1
     6    21    22    1
     7    22    23    1
     8    23    24    1
     9    24    25    1
    10    25    26    1
    11    26    27    1
    12    27    28    1
    13     3     4    1
    14     4     7    1
    15     7     8   ar
    16     8     9   ar
    17     9    10   ar
    18    10    11   ar
    19    11    12   ar
    20     4    13    1
    21    13    14   ar
    22    14    15   ar
    23    15    16   ar
    24    16    17   ar
    25    17    18   ar
    26     4     5    1
    27     5     6    2
    28     5     1   am
    29    28    23    1
    30    12     7   ar
    31    18    13   ar
@<TRIPOS>MOLECULE
*****
 28 31 0 0 0
SMALL
GASTEIGER

@<TRIPOS>ATOM
      1 N           4.6148   -1.7446   24.0148 N.am    1  UNL1       -0.2790
      2 C           3.6548   -0.6020   24.1664 C.3     1  UNL1        0.0945
      3 C           3.1717   -0.2181   22.7992 C.3     1  UNL1        0.0370
      4 C           3.8330   -1.1233   21.8026 C.3     1  UNL1        0.1081
      5 C           4.7249   -2.0668   22.5539 C.2     1  UNL1        0.2324
      6 O           5.5772   -3.1434   21.9503 O.2     1  UNL1       -0.2742
      7 C           4.3296   -1.8637   20.5963 C.ar    1  UNL1       -0.0108
      8 C           3.5778   -3.0576   20.0869 C.ar    1  UNL1       -0.0035
      9 C           4.0744   -3.7979   18.8806 C.ar    1  UNL1       -0.0003
     10 C           5.3228   -3.3443   18.1837 C.ar    1  UNL1       -0.0000
     11 C           6.0746   -2.1505   18.6930 C.ar    1  UNL1       -0.0003
     12 C           5.5780   -1.4101   19.8993 C.ar    1  UNL1       -0.0035
     13 C           3.0450   -0.3346   20.7992 C.ar    1  UNL1       -0.0108
     14 C           3.6612    0.8595   20.1327 C.ar    1  UNL1       -0.0035
     15 C           2.8731    1.6482   19.1292 C.ar    1  UNL1       -0.0003
     16 C           1.4688    1.2428   18.7923 C.ar    1  UNL1       -0.0000
     17 C           0.8526    0.0486   19.4588 C.ar    1  UNL1       -0.0003
     18 C           1.6406   -0.7401   20.4623 C.ar    1  UNL1       -0.0035
     19 C           5.5683   -1.7362   26.4315 C.3     1  UNL1        0.0233
     20 C           5.3377   -2.4425   25.1285 C.3     1  UNL1        0.0935
     21 C           2.1981    0.8787   22.4839 C.3     1  UNL1        0.0201
     22 C           1.5018    1.6060   23.5958 C.3     1  UNL1        0.0723
     23 N           0.2162    2.3311   23.3282 N.3     1  UNL1       -0.2685
     24 C          -0.6088    2.8418   24.4720 C.3     1  UNL1        0.1046
     25 C          -1.8944    3.5669   24.2045 C.3     1  UNL1        0.1595
     26 O          -2.3548    3.7813   22.7931 O.3     1  UNL1       -0.3508
     27 C          -1.5297    3.2706   21.6493 C.3     1  UNL1        0.1595
     28 C          -0.2442    2.5455   21.9168 C.3     1  UNL1        0.1046
@<TRIPOS>BOND
     1    19    20    1
     2    20     1    1
     3     1     2    1
     4     2     3    1
     5     3    21    1
     6    21    22    1
     7    22    23    1
     8    23    24    1
     9    24    25    1
    10    25    26    1
    11    26    27    1
    12    27    28    1
    13     3     4    1
    14     4     7    1
    15     7     8   ar
    16     8     9   ar
    17     9    10   ar
    18    10    11   ar
    19    11    12   ar
    20     4    13    1
    21    13    14   ar
    22    14    15   ar
    23    15    16   ar
    24    16    17   ar
    25    17    18   ar
    26     4     5    1
    27     5     6    2
    28     5     1   am
    29    28    23    1
    30    12     7   ar
    31    18    13   ar
