@<TRIPOS>MOLECULE
*****
 21 21 0 0 0
SMALL
GASTEIGER

@<TRIPOS>ATOM
      1 C          -7.1385  -19.9807   22.0889 C.3     1  UNL1        0.0342
      2 C          -5.7189  -19.7881   21.6442 C.ar    1  UNL1       -0.0185
      3 C          -5.1811  -20.5792   20.4888 C.ar    1  UNL1       -0.0009
      4 C          -3.7615  -20.3867   20.0441 C.ar    1  UNL1        0.0395
      5 C          -2.8798  -19.4030   20.7547 C.ar    1  UNL1        0.1677
      6 O          -1.4603  -19.2105   20.3099 O.3     1  UNL1       -0.5029
      7 C          -3.4176  -18.6120   21.9100 C.ar    1  UNL1        0.1718
      8 C          -4.8372  -18.8045   22.3548 C.ar    1  UNL1        0.0358
      9 H          -1.1243  -19.7047   19.5882 H       1  UNL1        0.2923
     10 O          -2.5359  -17.6283   22.6207 O.3     1  UNL1       -0.4684
     11 C          -2.2498  -16.2929   22.0003 C.3     1  UNL1        0.2526
     12 C          -8.1720  -18.9417   21.7693 C.3     1  UNL1        0.0692
     13 C          -9.2012  -19.2084   20.7111 C.2     1  UNL1        0.1510
     14 O          -8.8571  -19.0138   19.2642 O.2     1  UNL1       -0.2960
     15 C         -10.5746  -19.6696   21.0999 C.3     1  UNL1        0.0645
     16 C         -10.9487  -19.7733   22.5488 C.3     1  UNL1        0.0077
     17 C         -11.7371  -18.6760   23.2003 C.3     1  UNL1        0.0004
     18 C         -11.2575  -17.2572   23.1178 C.3     1  UNL1        0.0000
     19 C         -12.0739  -16.2307   22.3897 C.3     1  UNL1        0.0000
     20 C         -11.4123  -16.2364   19.8773 C.3     1  UNL1        0.0000
     21 C         -12.4389  -16.4456   20.9508 C.3     1  UNL1        0.0000
@<TRIPOS>BOND
     1    20    21    1
     2    21    19    1
     3    19    18    1
     4    18    17    1
     5    17    16    1
     6    16    15    1
     7    15    13    1
     8    13    14    2
     9    13    12    1
    10    12     1    1
    11     1     2    1
    12     2     3   ar
    13     3     4   ar
    14     4     5   ar
    15     5     6    1
    16     5     7   ar
    17     7    10    1
    18    10    11    1
    19     7     8   ar
    20     8     2   ar
    21     6     9    1
@<TRIPOS>MOLECULE
*****
 21 21 0 0 0
SMALL
GASTEIGER

@<TRIPOS>ATOM
      1 C          -6.6199  -20.2550   20.1791 C.3     1  UNL1        0.0342
      2 C          -5.2890  -19.8107   20.7094 C.ar    1  UNL1       -0.0185
      3 C          -5.0895  -19.6388   22.1861 C.ar    1  UNL1       -0.0009
      4 C          -3.7586  -19.1944   22.7164 C.ar    1  UNL1        0.0395
      5 C          -2.6271  -18.9221   21.7700 C.ar    1  UNL1        0.1677
      6 O          -1.2962  -18.4778   22.3003 O.3     1  UNL1       -0.5029
      7 C          -2.8266  -19.0940   20.2934 C.ar    1  UNL1        0.1718
      8 C          -4.1576  -19.5384   19.7631 C.ar    1  UNL1        0.0358
      9 H          -1.1716  -18.3704   23.2228 H       1  UNL1        0.2923
     10 O          -1.6952  -18.8217   19.3469 O.3     1  UNL1       -0.4684
     11 C          -1.7763  -17.6664   18.3937 C.3     1  UNL1        0.2526
     12 C          -7.7623  -19.2853   20.1122 C.3     1  UNL1        0.0692
     13 C          -8.8468  -19.3313   21.1474 C.2     1  UNL1        0.1510
     14 O          -8.4935  -19.3142   22.6051 O.2     1  UNL1       -0.2960
     15 C         -10.2847  -19.3945   20.7249 C.3     1  UNL1        0.0645
     16 C         -10.8226  -18.3958   19.7434 C.3     1  UNL1        0.0077
     17 C         -11.3408  -17.0737   20.2264 C.3     1  UNL1        0.0004
     18 C         -12.5580  -17.0195   21.1013 C.3     1  UNL1        0.0000
     19 C         -12.4075  -16.9106   22.5898 C.3     1  UNL1        0.0000
     20 C         -11.6603  -18.6562   24.3631 C.3     1  UNL1        0.0000
     21 C         -12.7184  -18.0897   23.4634 C.3     1  UNL1        0.0000
@<TRIPOS>BOND
     1    20    21    1
     2    21    19    1
     3    19    18    1
     4    18    17    1
     5    17    16    1
     6    16    15    1
     7    15    13    1
     8    13    14    2
     9    13    12    1
    10    12     1    1
    11     1     2    1
    12     2     3   ar
    13     3     4   ar
    14     4     5   ar
    15     5     6    1
    16     5     7   ar
    17     7    10    1
    18    10    11    1
    19     7     8   ar
    20     8     2   ar
    21     6     9    1
@<TRIPOS>MOLECULE
*****
 21 21 0 0 0
SMALL
GASTEIGER

@<TRIPOS>ATOM
      1 C          -7.2912  -19.8513   22.0296 C.3     1  UNL1        0.0342
      2 C          -5.8523  -19.7273   21.6242 C.ar    1  UNL1       -0.0185
      3 C          -5.3154  -20.5617   20.4994 C.ar    1  UNL1       -0.0009
      4 C          -3.8766  -20.4377   20.0940 C.ar    1  UNL1        0.0395
      5 C          -2.9746  -19.4792   20.8136 C.ar    1  UNL1        0.1677
      6 O          -1.5357  -19.3552   20.4082 O.3     1  UNL1       -0.5029
      7 C          -3.5115  -18.6448   21.9385 C.ar    1  UNL1        0.1718
      8 C          -4.9504  -18.7688   22.3438 C.ar    1  UNL1        0.0358
      9 H          -1.2004  -19.8764   19.7055 H       1  UNL1        0.2923
     10 O          -2.6096  -17.6863   22.6581 O.3     1  UNL1       -0.4684
     11 C          -2.2493  -16.3755   22.0240 C.3     1  UNL1        0.2526
     12 C          -8.3178  -18.9282   21.4433 C.3     1  UNL1        0.0692
     13 C          -8.9749  -19.2689   20.1386 C.2     1  UNL1        0.1510
     14 O          -8.1921  -19.1901   18.8615 O.2     1  UNL1       -0.2960
     15 C         -10.4148  -19.6886   20.1111 C.3     1  UNL1        0.0645
     16 C         -11.3085  -19.3793   21.2754 C.3     1  UNL1        0.0077
     17 C         -12.1883  -18.1648   21.2438 C.3     1  UNL1        0.0004
     18 C         -12.1275  -17.1654   22.3607 C.3     1  UNL1        0.0000
     19 C         -11.1662  -17.3654   23.4947 C.3     1  UNL1        0.0000
     20 C          -8.8623  -16.8250   24.5671 C.3     1  UNL1        0.0000
     21 C          -9.9880  -16.4501   23.6493 C.3     1  UNL1        0.0000
@<TRIPOS>BOND
     1    20    21    1
     2    21    19    1
     3    19    18    1
     4    18    17    1
     5    17    16    1
     6    16    15    1
     7    15    13    1
     8    13    14    2
     9    13    12    1
    10    12     1    1
    11     1     2    1
    12     2     3   ar
    13     3     4   ar
    14     4     5   ar
    15     5     6    1
    16     5     7   ar
    17     7    10    1
    18    10    11    1
    19     7     8   ar
    20     8     2   ar
    21     6     9    1
@<TRIPOS>MOLECULE
*****
 21 21 0 0 0
SMALL
GASTEIGER

@<TRIPOS>ATOM
      1 C          -7.0978  -19.5265   20.5537 C.3     1  UNL1        0.0342
      2 C          -5.6582  -19.3003   20.9091 C.ar    1  UNL1       -0.0185
      3 C          -5.2585  -19.1257   22.3442 C.ar    1  UNL1       -0.0009
      4 C          -3.8189  -18.8995   22.6997 C.ar    1  UNL1        0.0395
      5 C          -2.7789  -18.8479   21.6200 C.ar    1  UNL1        0.1677
      6 O          -1.3393  -18.6218   21.9754 O.3     1  UNL1       -0.5029
      7 C          -3.1786  -19.0226   20.1848 C.ar    1  UNL1        0.1718
      8 C          -4.6183  -19.2487   19.8294 C.ar    1  UNL1        0.0358
      9 H          -1.0897  -18.5127   22.8719 H       1  UNL1        0.2923
     10 O          -2.1387  -18.9710   19.1050 O.3     1  UNL1       -0.4684
     11 C          -1.7051  -17.6493   18.5438 C.3     1  UNL1        0.2526
     12 C          -8.1756  -19.1951   21.5429 C.3     1  UNL1        0.0692
     13 C          -9.0520  -17.9976   21.3242 C.2     1  UNL1        0.1510
     14 O         -10.0118  -17.9710   20.1718 O.2     1  UNL1       -0.2960
     15 C          -8.9685  -16.8266   22.2580 C.3     1  UNL1        0.0645
     16 C          -8.4710  -17.0192   23.6599 C.3     1  UNL1        0.0077
     17 C          -9.4407  -17.3115   24.7663 C.3     1  UNL1        0.0004
     18 C          -9.9392  -18.7105   24.9767 C.3     1  UNL1        0.0000
     19 C         -11.1223  -19.2097   24.2013 C.3     1  UNL1        0.0000
     20 C         -12.6240  -17.6886   22.7245 C.3     1  UNL1        0.0000
     21 C         -12.3358  -18.3422   24.0434 C.3     1  UNL1        0.0000
@<TRIPOS>BOND
     1    20    21    1
     2    21    19    1
     3    19    18    1
     4    18    17    1
     5    17    16    1
     6    16    15    1
     7    15    13    1
     8    13    14    2
     9    13    12    1
    10    12     1    1
    11     1     2    1
    12     2     3   ar
    13     3     4   ar
    14     4     5   ar
    15     5     6    1
    16     5     7   ar
    17     7    10    1
    18    10    11    1
    19     7     8   ar
    20     8     2   ar
    21     6     9    1
@<TRIPOS>MOLECULE
*****
 21 21 0 0 0
SMALL
GASTEIGER

@<TRIPOS>ATOM
      1 C          -7.2218  -19.7519   22.0830 C.3     1  UNL1        0.0342
      2 C          -5.7857  -19.6644   21.6587 C.ar    1  UNL1       -0.0185
      3 C          -5.2795  -20.5288   20.5423 C.ar    1  UNL1       -0.0009
      4 C          -3.8434  -20.4413   20.1179 C.ar    1  UNL1        0.0395
      5 C          -2.9136  -19.4894   20.8100 C.ar    1  UNL1        0.1677
      6 O          -1.4775  -19.4018   20.3857 O.3     1  UNL1       -0.5029
      7 C          -3.4198  -18.6249   21.9264 C.ar    1  UNL1        0.1718
      8 C          -4.8558  -18.7124   22.3508 C.ar    1  UNL1        0.0358
      9 H          -1.1613  -19.9418   19.6883 H       1  UNL1        0.2923
     10 O          -2.4899  -17.6729   22.6186 O.3     1  UNL1       -0.4684
     11 C          -2.2396  -16.3130   22.0373 C.3     1  UNL1        0.2526
     12 C          -8.2884  -19.0921   21.2604 C.3     1  UNL1        0.0692
     13 C          -9.3916  -18.3308   21.9339 C.2     1  UNL1        0.1510
     14 O         -10.7295  -18.9762   22.1424 O.2     1  UNL1       -0.2960
     15 C          -9.1568  -16.9241   22.3989 C.3     1  UNL1        0.0645
     16 C          -8.4619  -16.6718   23.7040 C.3     1  UNL1        0.0077
     17 C          -7.0462  -16.1761   23.7163 C.3     1  UNL1        0.0004
     18 C          -6.6308  -15.1173   24.6943 C.3     1  UNL1        0.0000
     19 C          -5.9866  -15.5062   25.9920 C.3     1  UNL1        0.0000
     20 C          -8.2742  -15.3878   27.2178 C.3     1  UNL1        0.0000
     21 C          -6.7765  -15.4561   27.2661 C.3     1  UNL1        0.0000
@<TRIPOS>BOND
     1    20    21    1
     2    21    19    1
     3    19    18    1
     4    18    17    1
     5    17    16    1
     6    16    15    1
     7    15    13    1
     8    13    14    2
     9    13    12    1
    10    12     1    1
    11     1     2    1
    12     2     3   ar
    13     3     4   ar
    14     4     5   ar
    15     5     6    1
    16     5     7   ar
    17     7    10    1
    18    10    11    1
    19     7     8   ar
    20     8     2   ar
    21     6     9    1
@<TRIPOS>MOLECULE
*****
 21 21 0 0 0
SMALL
GASTEIGER

@<TRIPOS>ATOM
      1 C          -6.9648  -19.6249   20.3436 C.3     1  UNL1        0.0342
      2 C          -5.5513  -19.3938   20.7894 C.ar    1  UNL1       -0.0185
      3 C          -5.2342  -19.2861   22.2515 C.ar    1  UNL1       -0.0009
      4 C          -3.8207  -19.0550   22.6973 C.ar    1  UNL1        0.0395
      5 C          -2.7245  -18.9315   21.6810 C.ar    1  UNL1        0.1677
      6 O          -1.3110  -18.7003   22.1269 O.3     1  UNL1       -0.5029
      7 C          -3.0416  -19.0392   20.2189 C.ar    1  UNL1        0.1718
      8 C          -4.4550  -19.2703   19.7731 C.ar    1  UNL1        0.0358
      9 H          -1.1129  -18.6331   23.0402 H       1  UNL1        0.2923
     10 O          -1.9453  -18.9157   19.2026 O.3     1  UNL1       -0.4684
     11 C          -1.7449  -17.6229   18.4688 C.3     1  UNL1        0.2526
     12 C          -8.0890  -18.8767   20.9964 C.3     1  UNL1        0.0692
     13 C          -9.5067  -19.3186   20.7847 C.2     1  UNL1        0.1510
     14 O         -10.0504  -19.4538   19.3933 O.2     1  UNL1       -0.2960
     15 C         -10.3808  -19.6252   21.9646 C.3     1  UNL1        0.0645
     16 C          -9.7993  -19.6315   23.3473 C.3     1  UNL1        0.0077
     17 C          -9.9142  -18.4133   24.2148 C.3     1  UNL1        0.0004
     18 C          -8.9193  -17.2990   24.0787 C.3     1  UNL1        0.0000
     19 C          -9.1564  -15.9924   24.7764 C.3     1  UNL1        0.0000
     20 C          -8.2144  -15.7141   27.1816 C.3     1  UNL1        0.0000
     21 C          -8.1194  -15.4415   25.7097 C.3     1  UNL1        0.0000
@<TRIPOS>BOND
     1    20    21    1
     2    21    19    1
     3    19    18    1
     4    18    17    1
     5    17    16    1
     6    16    15    1
     7    15    13    1
     8    13    14    2
     9    13    12    1
    10    12     1    1
    11     1     2    1
    12     2     3   ar
    13     3     4   ar
    14     4     5   ar
    15     5     6    1
    16     5     7   ar
    17     7    10    1
    18    10    11    1
    19     7     8   ar
    20     8     2   ar
    21     6     9    1
@<TRIPOS>MOLECULE
*****
 21 21 0 0 0
SMALL
GASTEIGER

@<TRIPOS>ATOM
      1 C          -5.4596  -20.5235   20.6261 C.3     1  UNL1        0.0342
      2 C          -4.1618  -19.7734   20.6831 C.ar    1  UNL1       -0.0185
      3 C          -3.5093  -19.5031   22.0064 C.ar    1  UNL1       -0.0009
      4 C          -2.2116  -18.7530   22.0634 C.ar    1  UNL1        0.0395
      5 C          -1.5663  -18.2733   20.7971 C.ar    1  UNL1        0.1677
      6 O          -0.2686  -17.5232   20.8541 O.3     1  UNL1       -0.5029
      7 C          -2.2189  -18.5436   19.4739 C.ar    1  UNL1        0.1718
      8 C          -3.5166  -19.2937   19.4169 C.ar    1  UNL1        0.0358
      9 H           0.1390  -17.3544   21.6807 H       1  UNL1        0.2923
     10 O          -1.5736  -18.0639   18.2075 O.3     1  UNL1       -0.4684
     11 C          -2.3064  -17.1162   17.3048 C.3     1  UNL1        0.2526
     12 C          -6.4833  -20.3342   21.7060 C.3     1  UNL1        0.0692
     13 C          -7.3222  -19.0910   21.7346 C.2     1  UNL1        0.1510
     14 O          -7.1508  -18.0460   20.6724 O.2     1  UNL1       -0.2960
     15 C          -8.3325  -18.8930   22.8255 C.3     1  UNL1        0.0645
     16 C          -9.2873  -19.9965   23.1728 C.3     1  UNL1        0.0077
     17 C         -10.7658  -19.7443   23.1487 C.3     1  UNL1        0.0004
     18 C         -11.4046  -19.1446   21.9312 C.3     1  UNL1        0.0000
     19 C         -12.3271  -17.9700   22.0699 C.3     1  UNL1        0.0000
     20 C         -11.3093  -16.8280   19.9699 C.3     1  UNL1        0.0000
     21 C         -12.4214  -16.9562   20.9683 C.3     1  UNL1        0.0000
@<TRIPOS>BOND
     1    20    21    1
     2    21    19    1
     3    19    18    1
     4    18    17    1
     5    17    16    1
     6    16    15    1
     7    15    13    1
     8    13    14    2
     9    13    12    1
    10    12     1    1
    11     1     2    1
    12     2     3   ar
    13     3     4   ar
    14     4     5   ar
    15     5     6    1
    16     5     7   ar
    17     7    10    1
    18    10    11    1
    19     7     8   ar
    20     8     2   ar
    21     6     9    1
@<TRIPOS>MOLECULE
*****
 21 21 0 0 0
SMALL
GASTEIGER

@<TRIPOS>ATOM
      1 C          -7.5014  -19.7091   19.9118 C.3     1  UNL1        0.0342
      2 C          -8.6059  -19.3496   20.8609 C.ar    1  UNL1       -0.0185
      3 C          -8.4364  -19.5846   22.3326 C.ar    1  UNL1       -0.0009
      4 C          -9.5410  -19.2250   23.2817 C.ar    1  UNL1        0.0395
      5 C         -10.8150  -18.6304   22.7590 C.ar    1  UNL1        0.1677
      6 O         -11.9195  -18.2709   23.7081 O.3     1  UNL1       -0.5029
      7 C         -10.9845  -18.3954   21.2873 C.ar    1  UNL1        0.1718
      8 C          -9.8800  -18.7549   20.3382 C.ar    1  UNL1        0.0358
      9 H         -11.8136  -18.4177   24.6274 H       1  UNL1        0.2923
     10 O         -12.2586  -17.8008   20.7646 O.3     1  UNL1       -0.4684
     11 C         -12.3969  -16.3121   20.6428 C.3     1  UNL1        0.2526
     12 C          -6.1576  -19.0557   20.0428 C.3     1  UNL1        0.0692
     13 C          -5.0180  -19.8032   20.6693 C.2     1  UNL1        0.1510
     14 O          -4.1945  -20.7457   19.8425 O.2     1  UNL1       -0.2960
     15 C          -4.7019  -19.6083   22.1227 C.3     1  UNL1        0.0645
     16 C          -4.9139  -18.2686   22.7631 C.3     1  UNL1        0.0077
     17 C          -3.7457  -17.5104   23.3205 C.3     1  UNL1        0.0004
     18 C          -2.4141  -17.5727   22.6327 C.3     1  UNL1        0.0000
     19 C          -2.0851  -16.5932   21.5453 C.3     1  UNL1        0.0000
     20 C          -2.0978  -17.8790   19.2877 C.3     1  UNL1        0.0000
     21 C          -1.3713  -17.0560   20.3099 C.3     1  UNL1        0.0000
@<TRIPOS>BOND
     1    20    21    1
     2    21    19    1
     3    19    18    1
     4    18    17    1
     5    17    16    1
     6    16    15    1
     7    15    13    1
     8    13    14    2
     9    13    12    1
    10    12     1    1
    11     1     2    1
    12     2     3   ar
    13     3     4   ar
    14     4     5   ar
    15     5     6    1
    16     5     7   ar
    17     7    10    1
    18    10    11    1
    19     7     8   ar
    20     8     2   ar
    21     6     9    1
@<TRIPOS>MOLECULE
*****
 21 21 0 0 0
SMALL
GASTEIGER

@<TRIPOS>ATOM
      1 C          -7.3111  -19.5691   20.7229 C.3     1  UNL1        0.0342
      2 C          -5.8540  -19.3591   21.0103 C.ar    1  UNL1       -0.0185
      3 C          -5.3762  -19.2584   22.4286 C.ar    1  UNL1       -0.0009
      4 C          -3.9190  -19.0483   22.7160 C.ar    1  UNL1        0.0395
      5 C          -2.9397  -18.9391   21.5852 C.ar    1  UNL1        0.1677
      6 O          -1.4825  -18.7291   21.8726 O.3     1  UNL1       -0.5029
      7 C          -3.4175  -19.0398   20.1669 C.ar    1  UNL1        0.1718
      8 C          -4.8746  -19.2498   19.8795 C.ar    1  UNL1        0.0358
      9 H          -1.1841  -18.6661   22.7586 H       1  UNL1        0.2923
     10 O          -2.4381  -18.9305   19.0360 O.3     1  UNL1       -0.4684
     11 C          -2.0020  -17.5804   18.5493 C.3     1  UNL1        0.2526
     12 C          -8.3419  -18.7378   21.4273 C.3     1  UNL1        0.0692
     13 C          -8.7041  -19.0401   22.8511 C.2     1  UNL1        0.1510
     14 O          -8.6791  -20.4555   23.3471 O.2     1  UNL1       -0.2960
     15 C          -9.0913  -17.9269   23.7791 C.3     1  UNL1        0.0645
     16 C         -10.4275  -17.2607   23.6347 C.3     1  UNL1        0.0077
     17 C         -11.6525  -18.0856   23.3730 C.3     1  UNL1        0.0004
     18 C         -12.4847  -17.8264   22.1522 C.3     1  UNL1        0.0000
     19 C         -12.0211  -18.3132   20.8112 C.3     1  UNL1        0.0000
     20 C         -11.1319  -15.9397   20.2405 C.3     1  UNL1        0.0000
     21 C         -11.4410  -17.3465   19.8218 C.3     1  UNL1        0.0000
@<TRIPOS>BOND
     1    20    21    1
     2    21    19    1
     3    19    18    1
     4    18    17    1
     5    17    16    1
     6    16    15    1
     7    15    13    1
     8    13    14    2
     9    13    12    1
    10    12     1    1
    11     1     2    1
    12     2     3   ar
    13     3     4   ar
    14     4     5   ar
    15     5     6    1
    16     5     7   ar
    17     7    10    1
    18    10    11    1
    19     7     8   ar
    20     8     2   ar
    21     6     9    1
