@<TRIPOS>MOLECULE
*****
 43 45 0 0 0
SMALL
GASTEIGER

@<TRIPOS>ATOM
      1 C           6.0545   -3.7673   22.3870 C.3     1  UNL1        0.2120
      2 O           4.5781   -3.5544   22.5446 O.3     1  UNL1       -0.3763
      3 H           4.3537   -3.5308   23.4880 H       1  UNL1        0.2107
      4 C           7.5310   -3.9802   22.2293 C.3     1  UNL1        0.4226
      5 F           9.0073   -4.1931   22.0717 F       1  UNL1       -0.1675
      6 F           7.5065   -4.9779   23.3492 F       1  UNL1       -0.1675
      7 F           7.5553   -2.9825   21.1095 F       1  UNL1       -0.1675
      8 C           5.9006   -3.7308   20.8954 C.3     1  UNL1        0.1307
      9 N           4.7381   -3.0105   20.2788 N.am    1  UNL1       -0.2733
     10 C           4.5394   -1.5467   20.5388 C.2     1  UNL1        0.2503
     11 O           5.5031   -0.8030   21.4154 O.2     1  UNL1       -0.2699
     12 C           3.3770   -0.8265   19.9222 C.ar    1  UNL1        0.0706
     13 C           2.0443   -0.8261   20.6106 C.ar    1  UNL1        0.0058
     14 C           0.8819   -0.1059   19.9940 C.ar    1  UNL1        0.0002
     15 C           1.0522    0.6139   18.6890 C.ar    1  UNL1        0.0013
     16 C           2.3850    0.6135   18.0007 C.ar    1  UNL1        0.0185
     17 C           3.5474   -0.1067   18.6173 C.ar    1  UNL1        0.1101
     18 S           4.8801   -0.1071   17.9289 S.O2    1  UNL1        0.0106
     19 C           6.2129   -0.1076   17.2406 C.3     1  UNL1        0.1816
     20 O           5.2836    1.1087   18.7094 O.2     1  UNL1       -0.1686
     21 O           4.4766   -1.3229   17.1485 O.2     1  UNL1       -0.1686
     22 C           3.5224   -5.2145   19.6348 C.3     1  UNL1        0.0233
     23 C           3.7745   -3.7542   19.4023 C.3     1  UNL1        0.0939
     24 C           6.2085   -3.8039   23.8786 C.3     1  UNL1        0.1269
     25 N           5.2925   -2.9937   24.7472 N.am    1  UNL1       -0.2982
     26 C           5.6317   -1.5689   25.0711 C.2     1  UNL1        0.2502
     27 O           6.8869   -0.9543   24.5264 O.2     1  UNL1       -0.2700
     28 H           4.4687   -3.3971   25.1047 H       1  UNL1        0.1498
     29 C           4.7157   -0.7587   25.9397 C.ar    1  UNL1        0.1053
     30 C           5.0138   -0.2791   27.3295 C.ar    1  UNL1        0.1278
     31 N           3.8231    0.4901   27.8198 N.ar    1  UNL1       -0.1622
     32 N           2.7891    0.4861   26.7331 N.ar    1  UNL1       -0.2163
     33 C           3.3407   -0.2858   25.5712 C.ar    1  UNL1        0.1327
     34 N           2.6404   -0.5400   24.2694 N.pl3   1  UNL1       -0.3424
     35 H           1.7338   -0.1862   24.1208 H       1  UNL1        0.1437
     36 H           3.0874   -1.0607   23.5635 H       1  UNL1        0.1437
     37 C           1.4402    1.1391   26.7971 C.ar    1  UNL1        0.0843
     38 C           0.4575    0.7286   27.8534 C.ar    1  UNL1        0.0215
     39 C          -0.8913    1.3817   27.9174 C.ar    1  UNL1        0.0312
     40 C          -1.2575    2.4453   26.9251 C.ar    1  UNL1        0.1402
     41 F          -2.6064    3.0984   26.9891 F       1  UNL1       -0.2042
     42 C          -0.2748    2.8558   25.8688 C.ar    1  UNL1        0.0312
     43 C           1.0740    2.2027   25.8048 C.ar    1  UNL1        0.0215
@<TRIPOS>BOND
     1    22    23    1
     2    23     9    1
     3     9     8    1
     4     8     1    1
     5     1     2    1
     6     1    24    1
     7    24    25    1
     8    25    26   am
     9    26    27    2
    10    26    29    1
    11    29    30   ar
    12    30    31   ar
    13    31    32   ar
    14    32    37    1
    15    37    38   ar
    16    38    39   ar
    17    39    40   ar
    18    40    41    1
    19    40    42   ar
    20    42    43   ar
    21    32    33   ar
    22    33    34    1
    23     1     4    1
    24     4     5    1
    25     4     6    1
    26     4     7    1
    27     9    10   am
    28    10    11    2
    29    10    12    1
    30    12    13   ar
    31    13    14   ar
    32    14    15   ar
    33    15    16   ar
    34    16    17   ar
    35    17    18    1
    36    18    19    1
    37    18    20    2
    38    18    21    2
    39    33    29   ar
    40    17    12   ar
    41    43    37   ar
    42     2     3    1
    43    25    28    1
    44    34    35    1
    45    34    36    1
@<TRIPOS>MOLECULE
*****
 43 45 0 0 0
SMALL
GASTEIGER

@<TRIPOS>ATOM
      1 C           0.8556    0.5241   19.8622 C.3     1  UNL1        0.2120
      2 O          -0.1881    0.0230   20.8160 O.3     1  UNL1       -0.3763
      3 H          -0.7579    0.7595   21.0879 H       1  UNL1        0.2107
      4 C           1.8994    1.0251   18.9085 C.3     1  UNL1        0.4226
      5 F           2.9431    1.5261   17.9549 F       1  UNL1       -0.1675
      6 F           2.3285    2.0497   19.9166 F       1  UNL1       -0.1675
      7 F           1.4702    0.0005   17.9005 F       1  UNL1       -0.1675
      8 C           1.4210   -0.8609   19.7534 C.3     1  UNL1        0.1307
      9 N           2.7215   -1.1948   20.4224 N.am    1  UNL1       -0.2733
     10 C           3.5263   -2.3703   19.9529 C.2     1  UNL1        0.2503
     11 O           3.0308   -3.2120   18.8145 O.2     1  UNL1       -0.2699
     12 C           4.8267   -2.7041   20.6219 C.ar    1  UNL1        0.0706
     13 C           4.8357   -3.5291   21.8746 C.ar    1  UNL1        0.0058
     14 C           6.1361   -3.8629   22.5436 C.ar    1  UNL1        0.0002
     15 C           7.4276   -3.3718   21.9598 C.ar    1  UNL1        0.0013
     16 C           7.4186   -2.5468   20.7070 C.ar    1  UNL1        0.0185
     17 C           6.1182   -2.2130   20.0381 C.ar    1  UNL1        0.1101
     18 S           6.1093   -1.3880   18.7853 S.O2    1  UNL1        0.0106
     19 C           6.1004   -0.5630   17.5326 C.3     1  UNL1        0.1816
     20 O           6.1654   -2.6397   17.9606 O.2     1  UNL1       -0.1686
     21 O           6.0531   -0.1363   19.6100 O.2     1  UNL1       -0.1686
     22 C           2.7614   -0.6415   22.9606 C.3     1  UNL1        0.0233
     23 C           3.2171   -0.3532   21.5608 C.3     1  UNL1        0.0939
     24 C           0.2902    1.9092   19.9710 C.3     1  UNL1        0.1269
     25 N          -0.9179    2.1612   20.8237 N.am    1  UNL1       -0.2982
     26 C          -1.9481    3.1606   20.3880 C.2     1  UNL1        0.2502
     27 O          -1.7703    3.9080   19.0996 O.2     1  UNL1       -0.2700
     28 H          -1.0346    1.6708   21.6693 H       1  UNL1        0.1498
     29 C          -3.1562    3.4127   21.2407 C.ar    1  UNL1        0.1053
     30 C          -4.5720    3.0636   20.8890 C.ar    1  UNL1        0.1278
     31 N          -5.4514    3.4933   22.0257 N.ar    1  UNL1       -0.1622
     32 N          -4.5791    4.1080   23.0798 N.ar    1  UNL1       -0.2163
     33 C          -3.1606    4.0582   22.5946 C.ar    1  UNL1        0.1327
     34 N          -1.9576    4.5650   23.3337 N.pl3   1  UNL1       -0.3424
     35 H          -2.0627    4.9755   24.2223 H       1  UNL1        0.1437
     36 H          -1.0631    4.4870   22.9301 H       1  UNL1        0.1437
     37 C          -5.0437    4.6733   24.3893 C.ar    1  UNL1        0.0843
     38 C          -6.1183    5.7194   24.4156 C.ar    1  UNL1        0.0215
     39 C          -6.5829    6.2847   25.7250 C.ar    1  UNL1        0.0312
     40 C          -5.9728    5.8038   27.0082 C.ar    1  UNL1        0.1402
     41 F          -6.4374    6.3691   28.3176 F       1  UNL1       -0.2042
     42 C          -4.8981    4.7577   26.9819 C.ar    1  UNL1        0.0312
     43 C          -4.4336    4.1925   25.6725 C.ar    1  UNL1        0.0215
@<TRIPOS>BOND
     1    22    23    1
     2    23     9    1
     3     9     8    1
     4     8     1    1
     5     1     2    1
     6     1    24    1
     7    24    25    1
     8    25    26   am
     9    26    27    2
    10    26    29    1
    11    29    30   ar
    12    30    31   ar
    13    31    32   ar
    14    32    37    1
    15    37    38   ar
    16    38    39   ar
    17    39    40   ar
    18    40    41    1
    19    40    42   ar
    20    42    43   ar
    21    32    33   ar
    22    33    34    1
    23     1     4    1
    24     4     5    1
    25     4     6    1
    26     4     7    1
    27     9    10   am
    28    10    11    2
    29    10    12    1
    30    12    13   ar
    31    13    14   ar
    32    14    15   ar
    33    15    16   ar
    34    16    17   ar
    35    17    18    1
    36    18    19    1
    37    18    20    2
    38    18    21    2
    39    33    29   ar
    40    17    12   ar
    41    43    37   ar
    42     2     3    1
    43    25    28    1
    44    34    35    1
    45    34    36    1
@<TRIPOS>MOLECULE
*****
 43 45 0 0 0
SMALL
GASTEIGER

@<TRIPOS>ATOM
      1 C           4.4620   -3.0252   20.2302 C.3     1  UNL1        0.2120
      2 O           4.3723   -1.8873   21.2034 O.3     1  UNL1       -0.3763
      3 H           5.0966   -1.9530   21.8453 H       1  UNL1        0.2107
      4 C           4.5516   -4.1631   19.2569 C.3     1  UNL1        0.4226
      5 F           4.6412   -5.3009   18.2838 F       1  UNL1       -0.1675
      6 F           5.4671   -3.3499   18.3906 F       1  UNL1       -0.1675
      7 F           3.6361   -4.9762   20.1233 F       1  UNL1       -0.1675
      8 C           3.2424   -2.5151   19.5215 C.3     1  UNL1        0.1307
      9 N           3.1086   -1.0523   19.2173 N.am    1  UNL1       -0.2733
     10 C           2.0136   -0.2505   19.8562 C.2     1  UNL1        0.2503
     11 O           1.0525   -0.9114   20.7993 O.2     1  UNL1       -0.2699
     12 C           1.8798    1.2122   19.5520 C.ar    1  UNL1        0.0706
     13 C           1.0401    1.6637   18.3939 C.ar    1  UNL1        0.0058
     14 C           0.9063    3.1264   18.0897 C.ar    1  UNL1        0.0002
     15 C           1.6123    4.1377   18.9436 C.ar    1  UNL1        0.0013
     16 C           2.4520    3.6861   20.1016 C.ar    1  UNL1        0.0185
     17 C           2.5858    2.2234   20.4058 C.ar    1  UNL1        0.1101
     18 S           3.4255    1.7719   21.5639 S.O2    1  UNL1        0.0106
     19 C           4.2652    1.3204   22.7219 C.3     1  UNL1        0.1816
     20 O           4.6435    1.7922   20.6886 O.2     1  UNL1       -0.1686
     21 O           2.2075    1.7516   22.4391 O.2     1  UNL1       -0.1686
     22 C           3.9673   -0.6447   16.7993 C.3     1  UNL1        0.0233
     23 C           4.0697   -0.3914   18.2742 C.3     1  UNL1        0.0939
     24 C           5.6816   -3.5353   20.9389 C.3     1  UNL1        0.1269
     25 N           5.8262   -3.3386   22.4189 N.am    1  UNL1       -0.2982
     26 C           6.7156   -4.2488   23.2131 C.2     1  UNL1        0.2502
     27 O           7.4603   -5.3556   22.5273 O.2     1  UNL1       -0.2700
     28 H           5.3374   -2.6122   22.8691 H       1  UNL1        0.1498
     29 C           6.8602   -4.0521   24.6931 C.ar    1  UNL1        0.1053
     30 C           6.5612   -2.7910   25.4484 C.ar    1  UNL1        0.1278
     31 N           6.8455   -3.0415   26.8997 N.ar    1  UNL1       -0.1622
     32 N           7.3201   -4.4573   27.0415 N.ar    1  UNL1       -0.2163
     33 C           7.3292   -5.0819   25.6777 C.ar    1  UNL1        0.1327
     34 N           7.7359   -6.4892   25.3552 N.pl3   1  UNL1       -0.3424
     35 H           8.0309   -7.0934   26.0743 H       1  UNL1        0.1437
     36 H           7.7078   -6.8087   24.4244 H       1  UNL1        0.1437
     37 C           7.7161   -5.1305   28.3222 C.ar    1  UNL1        0.0843
     38 C           9.0702   -5.7631   28.4495 C.ar    1  UNL1        0.0215
     39 C           9.4661   -6.4362   29.7301 C.ar    1  UNL1        0.0312
     40 C           8.5080   -6.4767   30.8835 C.ar    1  UNL1        0.1402
     41 F           8.9040   -7.1499   32.1642 F       1  UNL1       -0.2042
     42 C           7.1539   -5.8441   30.7562 C.ar    1  UNL1        0.0312
     43 C           6.7579   -5.1710   29.4756 C.ar    1  UNL1        0.0215
@<TRIPOS>BOND
     1    22    23    1
     2    23     9    1
     3     9     8    1
     4     8     1    1
     5     1     2    1
     6     1    24    1
     7    24    25    1
     8    25    26   am
     9    26    27    2
    10    26    29    1
    11    29    30   ar
    12    30    31   ar
    13    31    32   ar
    14    32    37    1
    15    37    38   ar
    16    38    39   ar
    17    39    40   ar
    18    40    41    1
    19    40    42   ar
    20    42    43   ar
    21    32    33   ar
    22    33    34    1
    23     1     4    1
    24     4     5    1
    25     4     6    1
    26     4     7    1
    27     9    10   am
    28    10    11    2
    29    10    12    1
    30    12    13   ar
    31    13    14   ar
    32    14    15   ar
    33    15    16   ar
    34    16    17   ar
    35    17    18    1
    36    18    19    1
    37    18    20    2
    38    18    21    2
    39    33    29   ar
    40    17    12   ar
    41    43    37   ar
    42     2     3    1
    43    25    28    1
    44    34    35    1
    45    34    36    1
@<TRIPOS>MOLECULE
*****
 43 45 0 0 0
SMALL
GASTEIGER

@<TRIPOS>ATOM
      1 C           4.9494   -2.6783   19.6712 C.3     1  UNL1        0.2120
      2 O           5.1818   -1.2998   20.2150 O.3     1  UNL1       -0.3763
      3 H           6.1351   -1.1259   20.2586 H       1  UNL1        0.2107
      4 C           4.7169   -4.0568   19.1273 C.3     1  UNL1        0.4226
      5 F           4.4844   -5.4352   18.5835 F       1  UNL1       -0.1675
      6 F           5.3971   -3.6669   17.8485 F       1  UNL1       -0.1675
      7 F           4.0367   -4.4466   20.4062 F       1  UNL1       -0.1675
      8 C           3.4680   -2.4762   19.7920 C.3     1  UNL1        0.1307
      9 N           2.8975   -1.0888   19.7867 N.am    1  UNL1       -0.2733
     10 C           2.9757   -0.2504   18.5454 C.2     1  UNL1        0.2503
     11 O           3.6245   -0.7992   17.3093 O.2     1  UNL1       -0.2699
     12 C           2.4052    1.1368   18.5402 C.ar    1  UNL1        0.0706
     13 C           0.9374    1.3433   18.3099 C.ar    1  UNL1        0.0058
     14 C           0.3669    2.7306   18.3047 C.ar    1  UNL1        0.0002
     15 C           1.2642    3.9114   18.5298 C.ar    1  UNL1        0.0013
     16 C           2.7319    3.7048   18.7601 C.ar    1  UNL1        0.0185
     17 C           3.3025    2.3176   18.7653 C.ar    1  UNL1        0.1101
     18 S           4.7702    2.1111   18.9957 S.O2    1  UNL1        0.0106
     19 C           6.2380    1.9046   19.2260 C.3     1  UNL1        0.1816
     20 O           4.5108    1.8978   20.4576 O.2     1  UNL1       -0.1686
     21 O           5.0297    2.3244   17.5338 O.2     1  UNL1       -0.1686
     22 C           2.7933   -0.8925   22.3753 C.3     1  UNL1        0.0233
     23 C           2.2488   -0.5400   21.0228 C.3     1  UNL1        0.0939
     24 C           6.4308   -2.8805   19.5504 C.3     1  UNL1        0.1269
     25 N           7.1259   -3.8771   20.4299 N.am    1  UNL1       -0.2982
     26 C           7.2158   -3.6387   21.9081 C.2     1  UNL1        0.2502
     27 O           6.6105   -2.4037   22.5068 O.2     1  UNL1       -0.2700
     28 H           7.5232   -4.6876   20.0369 H       1  UNL1        0.1498
     29 C           7.9109   -4.6353   22.7876 C.ar    1  UNL1        0.1053
     30 C           8.8772   -5.6890   22.3337 C.ar    1  UNL1        0.1278
     31 N           9.3253   -6.4581   23.5410 N.ar    1  UNL1       -0.1622
     32 N           8.6360   -5.8798   24.7411 N.ar    1  UNL1       -0.2163
     33 C           7.7618   -4.7532   24.2755 C.ar    1  UNL1        0.1327
     34 N           6.8914   -3.8952   25.1451 N.pl3   1  UNL1       -0.3424
     35 H           6.8605   -4.0508   26.1167 H       1  UNL1        0.1437
     36 H           6.3511   -3.1765   24.7442 H       1  UNL1        0.1437
     37 C           8.7932   -6.3461   26.1582 C.ar    1  UNL1        0.0843
     38 C           9.3775   -5.4272   27.1897 C.ar    1  UNL1        0.0215
     39 C           9.5347   -5.8935   28.6066 C.ar    1  UNL1        0.0312
     40 C           9.1075   -7.2788   28.9920 C.ar    1  UNL1        0.1402
     41 F           9.2647   -7.7451   30.4091 F       1  UNL1       -0.2042
     42 C           8.5231   -8.1977   27.9605 C.ar    1  UNL1        0.0312
     43 C           8.3660   -7.7314   26.5436 C.ar    1  UNL1        0.0215
@<TRIPOS>BOND
     1    22    23    1
     2    23     9    1
     3     9     8    1
     4     8     1    1
     5     1     2    1
     6     1    24    1
     7    24    25    1
     8    25    26   am
     9    26    27    2
    10    26    29    1
    11    29    30   ar
    12    30    31   ar
    13    31    32   ar
    14    32    37    1
    15    37    38   ar
    16    38    39   ar
    17    39    40   ar
    18    40    41    1
    19    40    42   ar
    20    42    43   ar
    21    32    33   ar
    22    33    34    1
    23     1     4    1
    24     4     5    1
    25     4     6    1
    26     4     7    1
    27     9    10   am
    28    10    11    2
    29    10    12    1
    30    12    13   ar
    31    13    14   ar
    32    14    15   ar
    33    15    16   ar
    34    16    17   ar
    35    17    18    1
    36    18    19    1
    37    18    20    2
    38    18    21    2
    39    33    29   ar
    40    17    12   ar
    41    43    37   ar
    42     2     3    1
    43    25    28    1
    44    34    35    1
    45    34    36    1
@<TRIPOS>MOLECULE
*****
 43 45 0 0 0
SMALL
GASTEIGER

@<TRIPOS>ATOM
      1 C           3.6037   -1.2224   18.4395 C.3     1  UNL1        0.2120
      2 O           3.9938   -1.6489   17.0553 O.3     1  UNL1       -0.3763
      3 H           3.7994   -0.9336   16.4297 H       1  UNL1        0.2107
      4 C           3.2136   -0.7959   19.8237 C.3     1  UNL1        0.4226
      5 F           2.8235   -0.3694   21.2078 F       1  UNL1       -0.1675
      6 F           2.2326   -1.9284   19.8960 F       1  UNL1       -0.1675
      7 F           4.1946    0.3365   19.7512 F       1  UNL1       -0.1675
      8 C           4.0604   -2.5465   18.9762 C.3     1  UNL1        0.1307
      9 N           5.3649   -2.6488   19.7098 N.am    1  UNL1       -0.2733
     10 C           5.5189   -3.6316   20.8324 C.2     1  UNL1        0.2503
     11 O           4.3686   -4.5122   21.2215 O.2     1  UNL1       -0.2699
     12 C           6.8234   -3.7339   21.5659 C.ar    1  UNL1        0.0706
     13 C           7.9195   -4.6056   21.0287 C.ar    1  UNL1        0.0058
     14 C           9.2240   -4.7079   21.7622 C.ar    1  UNL1        0.0002
     15 C           9.4323   -3.9385   23.0329 C.ar    1  UNL1        0.0013
     16 C           8.3360   -3.0668   23.5700 C.ar    1  UNL1        0.0185
     17 C           7.0316   -2.9645   22.8365 C.ar    1  UNL1        0.1101
     18 S           5.9354   -2.0928   23.3737 S.O2    1  UNL1        0.0106
     19 C           4.8392   -1.2211   23.9109 C.3     1  UNL1        0.1816
     20 O           6.4945   -0.9240   22.6179 O.2     1  UNL1       -0.1686
     21 O           5.3763   -3.2617   24.1296 O.2     1  UNL1       -0.1686
     22 C           7.3952   -2.1499   18.1673 C.3     1  UNL1        0.0233
     23 C           6.5152   -1.7683   19.3206 C.3     1  UNL1        0.0939
     24 C           3.1470    0.1017   17.9028 C.3     1  UNL1        0.1269
     25 N           1.8263    0.6694   18.3311 N.am    1  UNL1       -0.2982
     26 C           1.6621    2.1523   18.4861 C.2     1  UNL1        0.2502
     27 O           2.8187    3.0676   18.2128 O.2     1  UNL1       -0.2700
     28 H           1.0672    0.0687   18.5104 H       1  UNL1        0.1498
     29 C           0.3415    2.7200   18.9144 C.ar    1  UNL1        0.1053
     30 C          -0.5585    3.5843   18.0817 C.ar    1  UNL1        0.1278
     31 N          -1.7674    3.9215   18.9033 N.ar    1  UNL1       -0.1622
     32 N          -1.6145    3.2658   20.2437 N.ar    1  UNL1       -0.2163
     33 C          -0.3112    2.5232   20.2505 C.ar    1  UNL1        0.1327
     34 N           0.2422    1.7242   21.3929 N.pl3   1  UNL1       -0.3424
     35 H          -0.2632    1.6536   22.2348 H       1  UNL1        0.1437
     36 H           1.1110    1.2702   21.3009 H       1  UNL1        0.1437
     37 C          -2.5932    3.3396   21.3781 C.ar    1  UNL1        0.0843
     38 C          -4.0489    3.0750   21.1312 C.ar    1  UNL1        0.0215
     39 C          -5.0274    3.1488   22.2656 C.ar    1  UNL1        0.0312
     40 C          -4.5504    3.4873   23.6469 C.ar    1  UNL1        0.1402
     41 F          -5.5290    3.5611   24.7813 F       1  UNL1       -0.2042
     42 C          -3.0947    3.7519   23.8937 C.ar    1  UNL1        0.0312
     43 C          -2.1161    3.6780   22.7593 C.ar    1  UNL1        0.0215
@<TRIPOS>BOND
     1    22    23    1
     2    23     9    1
     3     9     8    1
     4     8     1    1
     5     1     2    1
     6     1    24    1
     7    24    25    1
     8    25    26   am
     9    26    27    2
    10    26    29    1
    11    29    30   ar
    12    30    31   ar
    13    31    32   ar
    14    32    37    1
    15    37    38   ar
    16    38    39   ar
    17    39    40   ar
    18    40    41    1
    19    40    42   ar
    20    42    43   ar
    21    32    33   ar
    22    33    34    1
    23     1     4    1
    24     4     5    1
    25     4     6    1
    26     4     7    1
    27     9    10   am
    28    10    11    2
    29    10    12    1
    30    12    13   ar
    31    13    14   ar
    32    14    15   ar
    33    15    16   ar
    34    16    17   ar
    35    17    18    1
    36    18    19    1
    37    18    20    2
    38    18    21    2
    39    33    29   ar
    40    17    12   ar
    41    43    37   ar
    42     2     3    1
    43    25    28    1
    44    34    35    1
    45    34    36    1
@<TRIPOS>MOLECULE
*****
 43 45 0 0 0
SMALL
GASTEIGER

@<TRIPOS>ATOM
      1 C           4.9096   -3.4600   20.0803 C.3     1  UNL1        0.2120
      2 O           6.1836   -4.2325   20.2544 O.3     1  UNL1       -0.3763
      3 H           6.1864   -4.6593   21.1255 H       1  UNL1        0.2107
      4 C           3.6356   -2.6875   19.9061 C.3     1  UNL1        0.4226
      5 F           2.3617   -1.9151   19.7320 F       1  UNL1       -0.1675
      6 F           3.1807   -3.6718   18.8696 F       1  UNL1       -0.1675
      7 F           4.0906   -1.7034   20.9426 F       1  UNL1       -0.1675
      8 C           5.3554   -3.0330   18.7132 C.3     1  UNL1        0.1307
      9 N           5.8244   -1.6270   18.4824 N.am    1  UNL1       -0.2733
     10 C           5.1023   -0.7461   17.5065 C.2     1  UNL1        0.2503
     11 O           3.9110   -1.2711   16.7614 O.2     1  UNL1       -0.2699
     12 C           5.5714    0.6599   17.2758 C.ar    1  UNL1        0.0706
     13 C           6.6092    0.9422   16.2302 C.ar    1  UNL1        0.0058
     14 C           7.0783    2.3481   15.9994 C.ar    1  UNL1        0.0002
     15 C           6.5096    3.4718   16.8143 C.ar    1  UNL1        0.0013
     16 C           5.4718    3.1894   17.8599 C.ar    1  UNL1        0.0185
     17 C           5.0027    1.7835   18.0907 C.ar    1  UNL1        0.1101
     18 S           3.9649    1.5012   19.1363 S.O2    1  UNL1        0.0106
     19 C           2.9271    1.2188   20.1819 C.3     1  UNL1        0.1816
     20 O           2.8896    1.5966   18.0948 O.2     1  UNL1       -0.1686
     21 O           5.0402    1.4057   20.1778 O.2     1  UNL1       -0.1686
     22 C           8.3612   -1.7360   19.0331 C.3     1  UNL1        0.0233
     23 C           7.0157   -1.1020   19.2276 C.3     1  UNL1        0.0939
     24 C           4.4638   -3.8870   21.4474 C.3     1  UNL1        0.1269
     25 N           5.4776   -4.1198   22.5281 N.am    1  UNL1       -0.2982
     26 C           5.4474   -3.2886   23.7764 C.2     1  UNL1        0.2502
     27 O           4.4035   -2.2245   23.9439 O.2     1  UNL1       -0.2700
     28 H           6.1627   -4.8181   22.4182 H       1  UNL1        0.1498
     29 C           6.4611   -3.5214   24.8572 C.ar    1  UNL1        0.1053
     30 C           7.7973   -4.1812   24.6855 C.ar    1  UNL1        0.1278
     31 N           8.4787   -4.2029   26.0216 N.ar    1  UNL1       -0.1622
     32 N           7.5637   -3.5564   27.0191 N.ar    1  UNL1       -0.2163
     33 C           6.3168   -3.1352   26.2994 C.ar    1  UNL1        0.1327
     34 N           5.1334   -2.4485   26.9141 N.pl3   1  UNL1       -0.3424
     35 H           5.1323   -2.2354   27.8752 H       1  UNL1        0.1437
     36 H           4.3577   -2.2108   26.3563 H       1  UNL1        0.1437
     37 C           7.8461   -3.3648   28.4798 C.ar    1  UNL1        0.0843
     38 C           7.8113   -4.5402   29.4109 C.ar    1  UNL1        0.0215
     39 C           8.0936   -4.3486   30.8716 C.ar    1  UNL1        0.0312
     40 C           8.4107   -2.9814   31.4011 C.ar    1  UNL1        0.1402
     41 F           8.6931   -2.7898   32.8618 F       1  UNL1       -0.2042
     42 C           8.4455   -1.8060   30.4699 C.ar    1  UNL1        0.0312
     43 C           8.1632   -1.9976   29.0093 C.ar    1  UNL1        0.0215
@<TRIPOS>BOND
     1    22    23    1
     2    23     9    1
     3     9     8    1
     4     8     1    1
     5     1     2    1
     6     1    24    1
     7    24    25    1
     8    25    26   am
     9    26    27    2
    10    26    29    1
    11    29    30   ar
    12    30    31   ar
    13    31    32   ar
    14    32    37    1
    15    37    38   ar
    16    38    39   ar
    17    39    40   ar
    18    40    41    1
    19    40    42   ar
    20    42    43   ar
    21    32    33   ar
    22    33    34    1
    23     1     4    1
    24     4     5    1
    25     4     6    1
    26     4     7    1
    27     9    10   am
    28    10    11    2
    29    10    12    1
    30    12    13   ar
    31    13    14   ar
    32    14    15   ar
    33    15    16   ar
    34    16    17   ar
    35    17    18    1
    36    18    19    1
    37    18    20    2
    38    18    21    2
    39    33    29   ar
    40    17    12   ar
    41    43    37   ar
    42     2     3    1
    43    25    28    1
    44    34    35    1
    45    34    36    1
@<TRIPOS>MOLECULE
*****
 43 45 0 0 0
SMALL
GASTEIGER

@<TRIPOS>ATOM
      1 C           4.9965   -2.4958   19.7637 C.3     1  UNL1        0.2120
      2 O           5.0732   -1.1890   20.4961 O.3     1  UNL1       -0.3763
      3 H           5.9716   -1.0631   20.8396 H       1  UNL1        0.2107
      4 C           4.9198   -3.8026   19.0313 C.3     1  UNL1        0.4226
      5 F           4.8431   -5.1093   18.2989 F       1  UNL1       -0.1675
      6 F           4.0875   -4.3751   20.1402 F       1  UNL1       -0.1675
      7 F           5.7520   -3.2300   17.9224 F       1  UNL1       -0.1675
      8 C           3.5502   -2.2403   19.4593 C.3     1  UNL1        0.1307
      9 N           3.1190   -0.9025   18.9353 N.am    1  UNL1       -0.2733
     10 C           2.4266    0.0707   19.8427 C.2     1  UNL1        0.2503
     11 O           2.1654   -0.2937   21.2741 O.2     1  UNL1       -0.2699
     12 C           1.9954    1.4084   19.3186 C.ar    1  UNL1        0.0706
     13 C           0.7261    1.5309   18.5288 C.ar    1  UNL1        0.0058
     14 C           0.2949    2.8686   18.0047 C.ar    1  UNL1        0.0002
     15 C           1.1331    4.0839   18.2705 C.ar    1  UNL1        0.0013
     16 C           2.4024    3.9614   19.0604 C.ar    1  UNL1        0.0185
     17 C           2.8336    2.6237   19.5844 C.ar    1  UNL1        0.1101
     18 S           4.1029    2.5012   20.3743 S.O2    1  UNL1        0.0106
     19 C           5.3722    2.3787   21.1641 C.3     1  UNL1        0.1816
     20 O           3.3317    2.7029   21.6449 O.2     1  UNL1       -0.1686
     21 O           4.8741    2.2994   19.1036 O.2     1  UNL1       -0.1686
     22 C           4.7788   -0.2450   17.0478 C.3     1  UNL1        0.0233
     23 C           3.3802   -0.5381   17.5039 C.3     1  UNL1        0.0939
     24 C           6.4429   -2.7513   20.0681 C.3     1  UNL1        0.1269
     25 N           6.8867   -2.9519   21.4868 N.am    1  UNL1       -0.2982
     26 C           7.5080   -4.2527   21.9015 C.2     1  UNL1        0.2502
     27 O           7.6854   -5.3529   20.8975 O.2     1  UNL1       -0.2700
     28 H           6.7702   -2.2298   22.1458 H       1  UNL1        0.1498
     29 C           7.9518   -4.4532   23.3202 C.ar    1  UNL1        0.1053
     30 C           9.2904   -4.9668   23.7611 C.ar    1  UNL1        0.1278
     31 N           9.3009   -5.0064   25.2605 N.ar    1  UNL1       -0.1622
     32 N           7.9687   -4.5173   25.7464 N.ar    1  UNL1       -0.2163
     33 C           7.1349   -4.1754   24.5472 C.ar    1  UNL1        0.1327
     34 N           5.7308   -3.6483   24.5709 N.pl3   1  UNL1       -0.3424
     35 H           5.2759   -3.4978   25.4310 H       1  UNL1        0.1437
     36 H           5.2641   -3.4528   23.7264 H       1  UNL1        0.1437
     37 C           7.5447   -4.3921   27.1798 C.ar    1  UNL1        0.0843
     38 C           7.4014   -3.0356   27.8038 C.ar    1  UNL1        0.0215
     39 C           6.9774   -2.9105   29.2371 C.ar    1  UNL1        0.0312
     40 C           6.6967   -4.1418   30.0465 C.ar    1  UNL1        0.1402
     41 F           6.2726   -4.0165   31.4799 F       1  UNL1       -0.2042
     42 C           6.8400   -5.4982   29.4225 C.ar    1  UNL1        0.0312
     43 C           7.2640   -5.6234   27.9892 C.ar    1  UNL1        0.0215
@<TRIPOS>BOND
     1    22    23    1
     2    23     9    1
     3     9     8    1
     4     8     1    1
     5     1     2    1
     6     1    24    1
     7    24    25    1
     8    25    26   am
     9    26    27    2
    10    26    29    1
    11    29    30   ar
    12    30    31   ar
    13    31    32   ar
    14    32    37    1
    15    37    38   ar
    16    38    39   ar
    17    39    40   ar
    18    40    41    1
    19    40    42   ar
    20    42    43   ar
    21    32    33   ar
    22    33    34    1
    23     1     4    1
    24     4     5    1
    25     4     6    1
    26     4     7    1
    27     9    10   am
    28    10    11    2
    29    10    12    1
    30    12    13   ar
    31    13    14   ar
    32    14    15   ar
    33    15    16   ar
    34    16    17   ar
    35    17    18    1
    36    18    19    1
    37    18    20    2
    38    18    21    2
    39    33    29   ar
    40    17    12   ar
    41    43    37   ar
    42     2     3    1
    43    25    28    1
    44    34    35    1
    45    34    36    1
@<TRIPOS>MOLECULE
*****
 43 45 0 0 0
SMALL
GASTEIGER

@<TRIPOS>ATOM
      1 C           1.6219    1.6934   22.4442 C.3     1  UNL1        0.2120
      2 O           2.6152    1.8313   23.5598 O.3     1  UNL1       -0.3763
      3 H           2.1448    1.8912   24.4060 H       1  UNL1        0.2107
      4 C           0.6285    1.5555   21.3287 C.3     1  UNL1        0.4226
      5 F          -0.3647    1.4176   20.2133 F       1  UNL1       -0.1675
      6 F           0.9527    2.9458   20.8683 F       1  UNL1       -0.1675
      7 F           0.3044    0.1652   21.7892 F       1  UNL1       -0.1675
      8 C           2.7444    1.6439   21.4507 C.3     1  UNL1        0.1307
      9 N           3.3520    0.3261   21.0706 N.am    1  UNL1       -0.2733
     10 C           3.1409   -0.2276   19.6927 C.2     1  UNL1        0.2503
     11 O           2.3221    0.5365   18.6947 O.2     1  UNL1       -0.2699
     12 C           3.7484   -1.5453   19.3126 C.ar    1  UNL1        0.0706
     13 C           3.0740   -2.8248   19.7103 C.ar    1  UNL1        0.0058
     14 C           3.6815   -4.1425   19.3303 C.ar    1  UNL1        0.0002
     15 C           4.9637   -4.1808   18.5526 C.ar    1  UNL1        0.0013
     16 C           5.6381   -2.9013   18.1549 C.ar    1  UNL1        0.0185
     17 C           5.0305   -1.5836   18.5349 C.ar    1  UNL1        0.1101
     18 S           5.7050   -0.3041   18.1373 S.O2    1  UNL1        0.0106
     19 C           6.3795    0.9753   17.7396 C.3     1  UNL1        0.1816
     20 O           6.4304   -0.2785   19.4500 O.2     1  UNL1       -0.1686
     21 O           4.9796   -0.3298   16.8246 O.2     1  UNL1       -0.1686
     22 C           3.5094   -1.4292   22.9797 C.3     1  UNL1        0.0233
     23 C           4.1708   -0.4380   22.0686 C.3     1  UNL1        0.0939
     24 C           0.4992    1.7429   23.4378 C.3     1  UNL1        0.1269
     25 N           0.6958    1.1935   24.8196 N.am    1  UNL1       -0.2982
     26 C          -0.2184    1.6152   25.9316 C.2     1  UNL1        0.2502
     27 O          -1.3293    2.5864   25.6617 O.2     1  UNL1       -0.2700
     28 H           1.4249    0.5561   24.9968 H       1  UNL1        0.1498
     29 C          -0.0218    1.0658   27.3134 C.ar    1  UNL1        0.1053
     30 C          -1.0092    0.2386   28.0821 C.ar    1  UNL1        0.1278
     31 N          -0.4009   -0.0913   29.4129 N.ar    1  UNL1       -0.1622
     32 N           0.9624    0.5320   29.4668 N.ar    1  UNL1       -0.2163
     33 C           1.1966    1.2471   28.1692 C.ar    1  UNL1        0.1327
     34 N           2.4324    2.0097   27.7934 N.pl3   1  UNL1       -0.3424
     35 H           3.1837    2.0725   28.4265 H       1  UNL1        0.1437
     36 H           2.4922    2.4475   26.9136 H       1  UNL1        0.1437
     37 C           1.9228    0.4539   30.6164 C.ar    1  UNL1        0.0843
     38 C           2.8919   -0.6873   30.7079 C.ar    1  UNL1        0.0215
     39 C           3.8522   -0.7654   31.8575 C.ar    1  UNL1        0.0312
     40 C           3.8436    0.2978   32.9155 C.ar    1  UNL1        0.1402
     41 F           4.8040    0.2197   34.0651 F       1  UNL1       -0.2042
     42 C           2.8745    1.4391   32.8240 C.ar    1  UNL1        0.0312
     43 C           1.9141    1.5171   31.6744 C.ar    1  UNL1        0.0215
@<TRIPOS>BOND
     1    22    23    1
     2    23     9    1
     3     9     8    1
     4     8     1    1
     5     1     2    1
     6     1    24    1
     7    24    25    1
     8    25    26   am
     9    26    27    2
    10    26    29    1
    11    29    30   ar
    12    30    31   ar
    13    31    32   ar
    14    32    37    1
    15    37    38   ar
    16    38    39   ar
    17    39    40   ar
    18    40    41    1
    19    40    42   ar
    20    42    43   ar
    21    32    33   ar
    22    33    34    1
    23     1     4    1
    24     4     5    1
    25     4     6    1
    26     4     7    1
    27     9    10   am
    28    10    11    2
    29    10    12    1
    30    12    13   ar
    31    13    14   ar
    32    14    15   ar
    33    15    16   ar
    34    16    17   ar
    35    17    18    1
    36    18    19    1
    37    18    20    2
    38    18    21    2
    39    33    29   ar
    40    17    12   ar
    41    43    37   ar
    42     2     3    1
    43    25    28    1
    44    34    35    1
    45    34    36    1
@<TRIPOS>MOLECULE
*****
 43 45 0 0 0
SMALL
GASTEIGER

@<TRIPOS>ATOM
      1 C           0.9532    0.8998   19.5624 C.3     1  UNL1        0.2120
      2 O           0.6559    0.8452   18.0931 O.3     1  UNL1       -0.3763
      3 H           0.1734    1.6448   17.8309 H       1  UNL1        0.2107
      4 C           1.2504    0.9545   21.0316 C.3     1  UNL1        0.4226
      5 F           1.5477    1.0091   22.5008 F       1  UNL1       -0.1675
      6 F           0.3896   -0.2543   21.2506 F       1  UNL1       -0.1675
      7 F           2.1112    2.1632   20.8125 F       1  UNL1       -0.1675
      8 C           1.6394   -0.4309   19.4730 C.3     1  UNL1        0.1307
      9 N           3.1358   -0.4991   19.3922 N.am    1  UNL1       -0.2733
     10 C           3.9145   -1.1902   20.4720 C.2     1  UNL1        0.2503
     11 O           3.1969   -1.8131   21.6327 O.2     1  UNL1       -0.2699
     12 C           5.4107   -1.2584   20.3911 C.ar    1  UNL1        0.0706
     13 C           6.2406   -0.0979   20.8542 C.ar    1  UNL1        0.0058
     14 C           7.7368   -0.1661   20.7733 C.ar    1  UNL1        0.0002
     15 C           8.4033   -1.3950   20.2293 C.ar    1  UNL1        0.0013
     16 C           7.5734   -2.5555   19.7663 C.ar    1  UNL1        0.0185
     17 C           6.0771   -2.4873   19.8471 C.ar    1  UNL1        0.1101
     18 S           5.2473   -3.6478   19.3841 S.O2    1  UNL1        0.0106
     19 C           4.4174   -4.8084   18.9210 C.3     1  UNL1        0.1816
     20 O           5.2102   -3.0693   18.0006 O.2     1  UNL1       -0.1686
     21 O           5.2843   -4.2264   20.7675 O.2     1  UNL1       -0.1686
     22 C           4.2195    1.5778   18.2689 C.3     1  UNL1        0.0233
     23 C           3.8533    0.1237   18.2315 C.3     1  UNL1        0.0939
     24 C           0.2669    2.2306   19.6517 C.3     1  UNL1        0.1269
     25 N          -0.9071    2.4091   20.5683 N.am    1  UNL1       -0.2982
     26 C          -2.0541    3.2835   20.1563 C.2     1  UNL1        0.2502
     27 O          -2.0273    3.9795   18.8278 O.2     1  UNL1       -0.2700
     28 H          -0.9247    1.9523   21.4402 H       1  UNL1        0.1498
     29 C          -3.2280    3.4619   21.0728 C.ar    1  UNL1        0.1053
     30 C          -4.6332    3.0110   20.8038 C.ar    1  UNL1        0.1278
     31 N          -5.4765    3.3929   21.9840 N.ar    1  UNL1       -0.1622
     32 N          -4.5927    4.0799   22.9825 N.ar    1  UNL1       -0.2163
     33 C          -3.2030    4.1225   22.4193 C.ar    1  UNL1        0.1327
     34 N          -1.9996    4.7206   23.0856 N.pl3   1  UNL1       -0.3424
     35 H          -2.0841    5.1341   23.9751 H       1  UNL1        0.1437
     36 H          -1.1254    4.6998   22.6334 H       1  UNL1        0.1437
     37 C          -5.0228    4.6280   24.3109 C.ar    1  UNL1        0.0843
     38 C          -4.4034    4.1066   25.5735 C.ar    1  UNL1        0.0215
     39 C          -4.8336    4.6547   26.9018 C.ar    1  UNL1        0.0312
     40 C          -5.8832    5.7243   26.9675 C.ar    1  UNL1        0.1402
     41 F          -6.3134    6.2724   28.2959 F       1  UNL1       -0.2042
     42 C          -6.5027    6.2457   25.7048 C.ar    1  UNL1        0.0312
     43 C          -6.0725    5.6976   24.3765 C.ar    1  UNL1        0.0215
@<TRIPOS>BOND
     1    22    23    1
     2    23     9    1
     3     9     8    1
     4     8     1    1
     5     1     2    1
     6     1    24    1
     7    24    25    1
     8    25    26   am
     9    26    27    2
    10    26    29    1
    11    29    30   ar
    12    30    31   ar
    13    31    32   ar
    14    32    37    1
    15    37    38   ar
    16    38    39   ar
    17    39    40   ar
    18    40    41    1
    19    40    42   ar
    20    42    43   ar
    21    32    33   ar
    22    33    34    1
    23     1     4    1
    24     4     5    1
    25     4     6    1
    26     4     7    1
    27     9    10   am
    28    10    11    2
    29    10    12    1
    30    12    13   ar
    31    13    14   ar
    32    14    15   ar
    33    15    16   ar
    34    16    17   ar
    35    17    18    1
    36    18    19    1
    37    18    20    2
    38    18    21    2
    39    33    29   ar
    40    17    12   ar
    41    43    37   ar
    42     2     3    1
    43    25    28    1
    44    34    35    1
    45    34    36    1
