@<TRIPOS>MOLECULE
*****
 46 50 0 0 0
SMALL
GASTEIGER

@<TRIPOS>ATOM
      1 C           5.6756   -0.5210   33.1927 C.2     1  UNL1        0.2253
      2 O           6.9763   -1.2236   33.4468 O.2     1  UNL1       -0.2749
      3 N           5.0890   -0.5050   31.8123 N.am    1  UNL1       -0.2787
      4 C           5.6853   -1.1445   30.5935 C.3     1  UNL1        0.1030
      5 C           4.7678   -0.8814   29.4362 C.3     1  UNL1        0.1046
      6 C           3.6046   -0.0793   29.9398 C.3     1  UNL1        0.0523
      7 C           3.8031    0.1533   31.4083 C.3     1  UNL1        0.0982
      8 C           2.0764    3.5038   37.4468 C.3     1  UNL1        0.0948
      9 C           2.8194    2.2252   37.6983 C.2     1  UNL1        0.2261
     10 O           2.8483    1.6333   39.0762 O.2     1  UNL1       -0.2749
     11 N           3.5334    1.5387   36.5719 N.am    1  UNL1       -0.2795
     12 C           3.5045    2.1306   35.1940 C.3     1  UNL1        0.0939
     13 C           4.2186    1.4441   34.0676 C.3     1  UNL1        0.0306
     14 C           4.9616    0.1655   34.3191 C.3     1  UNL1        0.0801
     15 C           4.9905   -0.4264   35.6970 C.3     1  UNL1        0.0306
     16 C           4.2764    0.2601   36.8234 C.3     1  UNL1        0.0939
     17 C           2.4463    0.4051   29.1191 C.ar    1  UNL1       -0.0241
     18 C           1.1653   -0.3750   29.0959 C.ar    1  UNL1       -0.0022
     19 C           0.0069    0.1093   28.2752 C.ar    1  UNL1        0.0293
     20 C           0.1296    1.3739   27.4776 C.ar    1  UNL1        0.1398
     21 F          -1.0287    1.8583   26.6569 F       1  UNL1       -0.2042
     22 C           1.4106    2.1539   27.5009 C.ar    1  UNL1        0.0251
     23 C           2.5690    1.6695   28.3216 C.ar    1  UNL1       -0.0235
     24 C           3.8499    2.4496   28.3448 C.3     1  UNL1        0.0308
     25 C           4.9770   -1.3398   28.0233 C.ar    1  UNL1        0.2379
     26 N           4.1113   -0.9960   26.8476 N.ar    1  UNL1       -0.1945
     27 C           4.6878   -1.6663   25.6359 C.ar    1  UNL1        0.1834
     28 N           5.9098   -2.4243   26.0627 N.ar    1  UNL1       -0.0603
     29 O           6.0885   -2.2225   27.5383 O.2     1  UNL1       -0.3373
     30 C           4.1387   -1.5916   24.2420 C.3     1  UNL1        0.0744
     31 C           5.0844   -2.6734   23.8115 C.3     1  UNL1        0.0121
     32 C           3.1929   -0.5099   24.6724 C.3     1  UNL1        0.0121
     33 C           3.5896   -1.5170   22.8480 C.ar    1  UNL1       -0.0160
     34 C           4.1660   -2.3831   21.7675 C.ar    1  UNL1       -0.0000
     35 C           3.6169   -2.3085   20.3736 C.ar    1  UNL1        0.0711
     36 C           2.4914   -1.3677   20.0603 C.ar    1  UNL1        0.0077
     37 C           1.9150   -0.5016   21.1408 C.ar    1  UNL1        0.0711
     38 C           2.4640   -0.5762   22.5347 C.ar    1  UNL1       -0.0000
     39 C           4.1933   -3.1746   19.2931 C.3     1  UNL1        0.4186
     40 F           4.7697   -4.0407   18.2125 F       1  UNL1       -0.1659
     41 F           2.9182   -3.9631   19.2449 F       1  UNL1       -0.1659
     42 F           5.4685   -2.3861   19.3412 F       1  UNL1       -0.1659
     43 C           0.7895    0.4392   20.8275 C.3     1  UNL1        0.4186
     44 F          -0.3360    1.3800   20.5141 F       1  UNL1       -0.1659
     45 F           0.8493    0.0304   19.3855 F       1  UNL1       -0.1659
     46 F           0.7297    0.8479   22.2694 F       1  UNL1       -0.1659
@<TRIPOS>BOND
     1     8     9    1
     2     9    10    2
     3     9    11   am
     4    11    12    1
     5    12    13    1
     6    13    14    1
     7    14     1    1
     8     1     2    2
     9     1     3   am
    10     3     4    1
    11     4     5    1
    12     5    25    1
    13    25    26   ar
    14    26    27   ar
    15    27    30    1
    16    30    31    1
    17    30    32    1
    18    30    33    1
    19    33    34   ar
    20    34    35   ar
    21    35    39    1
    22    39    40    1
    23    39    41    1
    24    39    42    1
    25    35    36   ar
    26    36    37   ar
    27    37    43    1
    28    43    44    1
    29    43    45    1
    30    43    46    1
    31    37    38   ar
    32    27    28   ar
    33    28    29   ar
    34     5     6    1
    35     6    17    1
    36    17    18   ar
    37    18    19   ar
    38    19    20   ar
    39    20    21    1
    40    20    22   ar
    41    22    23   ar
    42    23    24    1
    43     6     7    1
    44    14    15    1
    45    15    16    1
    46    16    11    1
    47     7     3    1
    48    29    25   ar
    49    23    17   ar
    50    38    33   ar
@<TRIPOS>MOLECULE
*****
 46 50 0 0 0
SMALL
GASTEIGER

@<TRIPOS>ATOM
      1 C           5.4045   -0.3039   33.2755 C.2     1  UNL1        0.2253
      2 O           6.7162   -0.9894   33.5190 O.2     1  UNL1       -0.2749
      3 N           4.8101   -0.2894   31.8984 N.am    1  UNL1       -0.2787
      4 C           5.4085   -0.9146   30.6732 C.3     1  UNL1        0.1030
      5 C           4.4811   -0.6588   29.5222 C.3     1  UNL1        0.1046
      6 C           3.3096    0.1245   30.0361 C.3     1  UNL1        0.0523
      7 C           3.5129    0.3528   31.5046 C.3     1  UNL1        0.0982
      8 C           1.7129    3.6088   37.5549 C.3     1  UNL1        0.0948
      9 C           2.5351    2.3804   37.8099 C.2     1  UNL1        0.2261
     10 O           2.6399    1.8231   39.1986 O.2     1  UNL1       -0.2749
     11 N           3.2524    1.7093   36.6763 N.am    1  UNL1       -0.2795
     12 C           3.1476    2.2666   35.2877 C.3     1  UNL1        0.0939
     13 C           3.8649    1.5955   34.1541 C.3     1  UNL1        0.0306
     14 C           4.6871    0.3672   34.4091 C.3     1  UNL1        0.0801
     15 C           4.7920   -0.1901   35.7978 C.3     1  UNL1        0.0306
     16 C           4.0746    0.4810   36.9314 C.3     1  UNL1        0.0939
     17 C           2.1402    0.5966   29.2241 C.ar    1  UNL1       -0.0241
     18 C           0.8934   -0.2342   29.1513 C.ar    1  UNL1       -0.0022
     19 C          -0.2762    0.2378   28.3393 C.ar    1  UNL1        0.0293
     20 C          -0.1989    1.5408   27.6000 C.ar    1  UNL1        0.1398
     21 F          -1.3684    2.0129   26.7880 F       1  UNL1       -0.2042
     22 C           1.0479    2.3716   27.6728 C.ar    1  UNL1        0.0251
     23 C           2.2175    1.8995   28.4849 C.ar    1  UNL1       -0.0235
     24 C           3.4642    2.7302   28.5576 C.3     1  UNL1        0.0308
     25 C           4.6888   -1.1074   28.1060 C.ar    1  UNL1        0.2379
     26 N           3.8321   -0.7412   26.9305 N.ar    1  UNL1       -0.1945
     27 C           4.4035   -1.4085   25.7147 C.ar    1  UNL1        0.1834
     28 N           5.6134   -2.1872   26.1389 N.ar    1  UNL1       -0.0603
     29 O           5.7897   -2.0011   27.6168 O.2     1  UNL1       -0.3373
     30 C           3.8604   -1.3138   24.3197 C.3     1  UNL1        0.0744
     31 C           2.9835   -0.1712   24.7388 C.3     1  UNL1        0.0121
     32 C           4.7373   -2.4562   23.9006 C.3     1  UNL1        0.0121
     33 C           3.3173   -1.2190   22.9247 C.ar    1  UNL1       -0.0160
     34 C           2.1954   -0.2713   22.6194 C.ar    1  UNL1       -0.0000
     35 C           1.6522   -0.1765   21.2244 C.ar    1  UNL1        0.0711
     36 C           2.2310   -1.0294   20.1347 C.ar    1  UNL1        0.0077
     37 C           3.3528   -1.9772   20.4400 C.ar    1  UNL1        0.0711
     38 C           3.8960   -2.0720   21.8349 C.ar    1  UNL1       -0.0000
     39 C           0.5303    0.7713   20.9192 C.3     1  UNL1        0.4186
     40 F          -0.5915    1.7190   20.6139 F       1  UNL1       -0.1659
     41 F           0.5319    0.3131   19.4909 F       1  UNL1       -0.1659
     42 F           0.5287    1.2294   22.3475 F       1  UNL1       -0.1659
     43 C           3.9316   -2.8301   19.3503 C.3     1  UNL1        0.4186
     44 F           4.5103   -3.6831   18.2605 F       1  UNL1       -0.1659
     45 F           3.5717   -1.7824   18.3390 F       1  UNL1       -0.1659
     46 F           4.2915   -3.8778   20.3615 F       1  UNL1       -0.1659
@<TRIPOS>BOND
     1     8     9    1
     2     9    10    2
     3     9    11   am
     4    11    12    1
     5    12    13    1
     6    13    14    1
     7    14     1    1
     8     1     2    2
     9     1     3   am
    10     3     4    1
    11     4     5    1
    12     5    25    1
    13    25    26   ar
    14    26    27   ar
    15    27    30    1
    16    30    31    1
    17    30    32    1
    18    30    33    1
    19    33    34   ar
    20    34    35   ar
    21    35    39    1
    22    39    40    1
    23    39    41    1
    24    39    42    1
    25    35    36   ar
    26    36    37   ar
    27    37    43    1
    28    43    44    1
    29    43    45    1
    30    43    46    1
    31    37    38   ar
    32    27    28   ar
    33    28    29   ar
    34     5     6    1
    35     6    17    1
    36    17    18   ar
    37    18    19   ar
    38    19    20   ar
    39    20    21    1
    40    20    22   ar
    41    22    23   ar
    42    23    24    1
    43     6     7    1
    44    14    15    1
    45    15    16    1
    46    16    11    1
    47     7     3    1
    48    29    25   ar
    49    23    17   ar
    50    38    33   ar
@<TRIPOS>MOLECULE
*****
 46 50 0 0 0
SMALL
GASTEIGER

@<TRIPOS>ATOM
      1 C           4.7062    1.2682   32.3550 C.2     1  UNL1        0.2253
      2 O           5.9058    0.5618   32.9134 O.2     1  UNL1       -0.2749
      3 N           4.2740    1.0098   30.9421 N.am    1  UNL1       -0.2787
      4 C           4.9386    0.0773   29.9733 C.3     1  UNL1        0.1030
      5 C           4.1766    0.1297   28.6823 C.3     1  UNL1        0.1046
      6 C           3.0409    1.0947   28.8532 C.3     1  UNL1        0.0523
      7 C           3.1011    1.6386   30.2498 C.3     1  UNL1        0.0982
      8 C           1.5810    6.5796   35.4002 C.3     1  UNL1        0.0948
      9 C           1.6368    5.1277   35.7730 C.2     1  UNL1        0.2261
     10 O           0.9251    4.6408   37.0004 O.2     1  UNL1       -0.2749
     11 N           2.4041    4.1629   34.9185 N.am    1  UNL1       -0.2795
     12 C           3.1157    4.6498   33.6912 C.3     1  UNL1        0.0939
     13 C           3.8831    3.6849   32.8367 C.3     1  UNL1        0.0306
     14 C           3.9388    2.2331   33.2095 C.3     1  UNL1        0.0801
     15 C           3.2272    1.7462   34.4369 C.3     1  UNL1        0.0306
     16 C           2.4598    2.7110   35.2914 C.3     1  UNL1        0.0939
     17 C           2.0237    1.4528   27.8107 C.ar    1  UNL1       -0.0241
     18 C           2.3699    2.4353   26.7314 C.ar    1  UNL1       -0.0022
     19 C           1.3527    2.7935   25.6888 C.ar    1  UNL1        0.0293
     20 C          -0.0107    2.1690   25.7255 C.ar    1  UNL1        0.1398
     21 F          -1.0279    2.5272   24.6829 F       1  UNL1       -0.2042
     22 C          -0.3568    1.1865   26.8047 C.ar    1  UNL1        0.0251
     23 C           0.6604    0.8284   27.8474 C.ar    1  UNL1       -0.0235
     24 C           0.3142   -0.1541   28.9266 C.3     1  UNL1        0.0308
     25 C           4.4944   -0.6466   27.4387 C.ar    1  UNL1        0.2379
     26 N           3.8040   -0.5107   26.1140 N.ar    1  UNL1       -0.1945
     27 C           4.4413   -1.4751   25.1581 C.ar    1  UNL1        0.1834
     28 N           5.5255   -2.2070   25.8921 N.ar    1  UNL1       -0.0603
     29 O           5.5583   -1.6949   27.3016 O.2     1  UNL1       -0.3373
     30 C           4.0611   -1.6729   23.7207 C.3     1  UNL1        0.0744
     31 C           3.0873   -0.5364   23.8219 C.3     1  UNL1        0.0121
     32 C           5.0348   -2.8093   23.6194 C.3     1  UNL1        0.0121
     33 C           3.6808   -1.8706   22.2831 C.ar    1  UNL1       -0.0160
     34 C           2.7679   -0.8909   21.6072 C.ar    1  UNL1       -0.0000
     35 C           2.3876   -1.0886   20.1698 C.ar    1  UNL1        0.0711
     36 C           2.9203   -2.2660   19.4083 C.ar    1  UNL1        0.0077
     37 C           3.8332   -3.2457   20.0841 C.ar    1  UNL1        0.0711
     38 C           4.2135   -3.0480   21.5216 C.ar    1  UNL1       -0.0000
     39 C           1.4747   -0.1090   19.4939 C.3     1  UNL1        0.4186
     40 F           0.5618    0.8707   18.8180 F       1  UNL1       -0.1659
     41 F           2.6079    0.3459   18.6227 F       1  UNL1       -0.1659
     42 F           0.3416   -0.5638   20.3651 F       1  UNL1       -0.1659
     43 C           4.3659   -4.4231   19.3226 C.3     1  UNL1        0.4186
     44 F           4.8987   -5.6005   18.5611 F       1  UNL1       -0.1659
     45 F           5.7252   -4.1897   19.9125 F       1  UNL1       -0.1659
     46 F           3.0067   -4.6565   18.7327 F       1  UNL1       -0.1659
@<TRIPOS>BOND
     1     8     9    1
     2     9    10    2
     3     9    11   am
     4    11    12    1
     5    12    13    1
     6    13    14    1
     7    14     1    1
     8     1     2    2
     9     1     3   am
    10     3     4    1
    11     4     5    1
    12     5    25    1
    13    25    26   ar
    14    26    27   ar
    15    27    30    1
    16    30    31    1
    17    30    32    1
    18    30    33    1
    19    33    34   ar
    20    34    35   ar
    21    35    39    1
    22    39    40    1
    23    39    41    1
    24    39    42    1
    25    35    36   ar
    26    36    37   ar
    27    37    43    1
    28    43    44    1
    29    43    45    1
    30    43    46    1
    31    37    38   ar
    32    27    28   ar
    33    28    29   ar
    34     5     6    1
    35     6    17    1
    36    17    18   ar
    37    18    19   ar
    38    19    20   ar
    39    20    21    1
    40    20    22   ar
    41    22    23   ar
    42    23    24    1
    43     6     7    1
    44    14    15    1
    45    15    16    1
    46    16    11    1
    47     7     3    1
    48    29    25   ar
    49    23    17   ar
    50    38    33   ar
@<TRIPOS>MOLECULE
*****
 46 50 0 0 0
SMALL
GASTEIGER

@<TRIPOS>ATOM
      1 C           4.6669    1.5310   32.3679 C.2     1  UNL1        0.2253
      2 O           5.8824    0.8366   32.9068 O.2     1  UNL1       -0.2749
      3 N           4.1888    1.2349   30.9773 N.am    1  UNL1       -0.2787
      4 C           4.8199    0.2739   30.0139 C.3     1  UNL1        0.1030
      5 C           4.0167    0.2929   28.7471 C.3     1  UNL1        0.1046
      6 C           2.8892    1.2657   28.9277 C.3     1  UNL1        0.0523
      7 C           2.9956    1.8479   30.3060 C.3     1  UNL1        0.0982
      8 C           1.8309    6.9606   35.4866 C.3     1  UNL1        0.0948
      9 C           1.7176    5.4929   35.7745 C.2     1  UNL1        0.2261
     10 O           0.8670    5.0157   36.9140 O.2     1  UNL1       -0.2749
     11 N           2.4549    4.5024   34.9228 N.am    1  UNL1       -0.2795
     12 C           3.3056    4.9797   33.7833 C.3     1  UNL1        0.0939
     13 C           4.0429    3.9892   32.9317 C.3     1  UNL1        0.0306
     14 C           3.9296    2.5215   33.2195 C.3     1  UNL1        0.0801
     15 C           3.0790    2.0442   34.3591 C.3     1  UNL1        0.0306
     16 C           2.3416    3.0347   35.2107 C.3     1  UNL1        0.0939
     17 C           1.8397    1.5980   27.9089 C.ar    1  UNL1       -0.0241
     18 C           2.0987    2.6635   26.8854 C.ar    1  UNL1       -0.0022
     19 C           1.0493    2.9958   25.8664 C.ar    1  UNL1        0.0293
     20 C          -0.2593    2.2625   25.8711 C.ar    1  UNL1        0.1398
     21 F          -1.3089    2.5948   24.8522 F       1  UNL1       -0.2042
     22 C          -0.5183    1.1970   26.8946 C.ar    1  UNL1        0.0251
     23 C           0.5312    0.8647   27.9135 C.ar    1  UNL1       -0.0235
     24 C           0.2721   -0.2008   28.9369 C.3     1  UNL1        0.0308
     25 C           4.2926   -0.5184   27.5160 C.ar    1  UNL1        0.2379
     26 N           3.6738   -0.3097   26.1656 N.ar    1  UNL1       -0.1945
     27 C           4.2344   -1.3431   25.2342 C.ar    1  UNL1        0.1834
     28 N           5.1997   -2.1905   26.0089 N.ar    1  UNL1       -0.0603
     29 O           5.2356   -1.6808   27.4191 O.2     1  UNL1       -0.3373
     30 C           3.8902   -1.5014   23.7828 C.3     1  UNL1        0.0744
     31 C           2.8718   -0.4070   23.9050 C.3     1  UNL1        0.0121
     32 C           4.9086   -2.5958   23.6605 C.3     1  UNL1        0.0121
     33 C           3.5460   -1.6596   22.3313 C.ar    1  UNL1       -0.0160
     34 C           4.1313   -2.7921   21.5409 C.ar    1  UNL1       -0.0000
     35 C           3.7871   -2.9504   20.0895 C.ar    1  UNL1        0.0711
     36 C           2.8576   -1.9761   19.4287 C.ar    1  UNL1        0.0077
     37 C           2.2722   -0.8436   20.2191 C.ar    1  UNL1        0.0711
     38 C           2.6164   -0.6854   21.6705 C.ar    1  UNL1       -0.0000
     39 C           4.3724   -4.0829   19.2991 C.3     1  UNL1        0.4186
     40 F           4.9577   -5.2154   18.5086 F       1  UNL1       -0.1659
     41 F           4.9397   -3.1030   18.3152 F       1  UNL1       -0.1659
     42 F           3.8051   -5.0628   20.2829 F       1  UNL1       -0.1659
     43 C           1.3427    0.1306   19.5583 C.3     1  UNL1        0.4186
     44 F           0.4131    1.1049   18.8975 F       1  UNL1       -0.1659
     45 F           0.6003    0.2990   20.8507 F       1  UNL1       -0.1659
     46 F           2.0850   -0.0377   18.2659 F       1  UNL1       -0.1659
@<TRIPOS>BOND
     1     8     9    1
     2     9    10    2
     3     9    11   am
     4    11    12    1
     5    12    13    1
     6    13    14    1
     7    14     1    1
     8     1     2    2
     9     1     3   am
    10     3     4    1
    11     4     5    1
    12     5    25    1
    13    25    26   ar
    14    26    27   ar
    15    27    30    1
    16    30    31    1
    17    30    32    1
    18    30    33    1
    19    33    34   ar
    20    34    35   ar
    21    35    39    1
    22    39    40    1
    23    39    41    1
    24    39    42    1
    25    35    36   ar
    26    36    37   ar
    27    37    43    1
    28    43    44    1
    29    43    45    1
    30    43    46    1
    31    37    38   ar
    32    27    28   ar
    33    28    29   ar
    34     5     6    1
    35     6    17    1
    36    17    18   ar
    37    18    19   ar
    38    19    20   ar
    39    20    21    1
    40    20    22   ar
    41    22    23   ar
    42    23    24    1
    43     6     7    1
    44    14    15    1
    45    15    16    1
    46    16    11    1
    47     7     3    1
    48    29    25   ar
    49    23    17   ar
    50    38    33   ar
@<TRIPOS>MOLECULE
*****
 46 50 0 0 0
SMALL
GASTEIGER

@<TRIPOS>ATOM
      1 C          -3.7359    4.4808   23.8935 C.2     1  UNL1        0.2253
      2 O          -3.9212    4.6561   22.4153 O.2     1  UNL1       -0.2749
      3 N          -2.5705    3.6936   24.4150 N.am    1  UNL1       -0.2787
      4 C          -1.5142    3.0269   23.5844 C.3     1  UNL1        0.1030
      5 C          -0.5476    2.3560   24.5149 C.3     1  UNL1        0.1046
      6 C          -1.0064    2.6082   25.9206 C.3     1  UNL1        0.0523
      7 C          -2.2566    3.4348   25.8589 C.3     1  UNL1        0.0982
      8 C          -7.4675    6.7583   29.1979 C.3     1  UNL1        0.0948
      9 C          -7.6561    6.9286   27.7197 C.2     1  UNL1        0.2261
     10 O          -8.8248    7.7108   27.1979 O.2     1  UNL1       -0.2749
     11 N          -6.6761    6.3166   26.7631 N.am    1  UNL1       -0.2795
     12 C          -5.5074    5.5344   27.2848 C.3     1  UNL1        0.0939
     13 C          -4.5273    4.9225   26.3283 C.3     1  UNL1        0.0306
     14 C          -4.7159    5.0927   24.8500 C.3     1  UNL1        0.0801
     15 C          -5.8846    5.8749   24.3283 C.3     1  UNL1        0.0306
     16 C          -6.8647    6.4869   25.2848 C.3     1  UNL1        0.0939
     17 C          -0.3333    2.1195   27.1688 C.ar    1  UNL1       -0.0241
     18 C          -0.6754    0.7695   27.7260 C.ar    1  UNL1       -0.0022
     19 C          -0.0023    0.2807   28.9742 C.ar    1  UNL1        0.0293
     20 C           1.0129    1.1421   29.6653 C.ar    1  UNL1        0.1398
     21 F           1.6861    0.6534   30.9135 F       1  UNL1       -0.2042
     22 C           1.3550    2.4921   29.1080 C.ar    1  UNL1        0.0251
     23 C           0.6818    2.9808   27.8598 C.ar    1  UNL1       -0.0235
     24 C           1.0239    4.3308   27.3027 C.3     1  UNL1        0.0308
     25 C           0.6649    1.5710   24.1107 C.ar    1  UNL1        0.2379
     26 N           0.9594    1.0494   22.7355 N.ar    1  UNL1       -0.1945
     27 C           2.2723    0.3257   22.7856 C.ar    1  UNL1        0.1834
     28 N           2.7893    0.4001   24.1917 N.ar    1  UNL1       -0.0603
     29 O           1.7958    1.1697   25.0107 O.2     1  UNL1       -0.3373
     30 C           2.9494   -0.3531   21.6320 C.3     1  UNL1        0.0744
     31 C           4.2771   -0.1763   22.3072 C.3     1  UNL1        0.0121
     32 C           1.6218   -0.5300   20.9567 C.3     1  UNL1        0.0121
     33 C           3.6265   -1.0320   20.4784 C.ar    1  UNL1       -0.0160
     34 C           4.3062   -0.2139   19.4206 C.ar    1  UNL1       -0.0000
     35 C           4.9833   -0.8927   18.2671 C.ar    1  UNL1        0.0711
     36 C           4.9807   -2.3896   18.1712 C.ar    1  UNL1        0.0077
     37 C           4.3011   -3.2077   19.2290 C.ar    1  UNL1        0.0711
     38 C           3.6240   -2.5289   20.3825 C.ar    1  UNL1       -0.0000
     39 C           5.6630   -0.0746   17.2094 C.3     1  UNL1        0.4186
     40 F           6.3427    0.7435   16.1517 F       1  UNL1       -0.1659
     41 F           6.8150    0.1695   18.1384 F       1  UNL1       -0.1659
     42 F           4.5109   -0.3187   16.2803 F       1  UNL1       -0.1659
     43 C           4.2985   -4.7046   19.1331 C.3     1  UNL1        0.4186
     44 F           4.2958   -6.2016   19.0373 F       1  UNL1       -0.1659
     45 F           2.7990   -4.6995   19.0925 F       1  UNL1       -0.1659
     46 F           5.7978   -4.7099   19.1738 F       1  UNL1       -0.1659
@<TRIPOS>BOND
     1     8     9    1
     2     9    10    2
     3     9    11   am
     4    11    12    1
     5    12    13    1
     6    13    14    1
     7    14     1    1
     8     1     2    2
     9     1     3   am
    10     3     4    1
    11     4     5    1
    12     5    25    1
    13    25    26   ar
    14    26    27   ar
    15    27    30    1
    16    30    31    1
    17    30    32    1
    18    30    33    1
    19    33    34   ar
    20    34    35   ar
    21    35    39    1
    22    39    40    1
    23    39    41    1
    24    39    42    1
    25    35    36   ar
    26    36    37   ar
    27    37    43    1
    28    43    44    1
    29    43    45    1
    30    43    46    1
    31    37    38   ar
    32    27    28   ar
    33    28    29   ar
    34     5     6    1
    35     6    17    1
    36    17    18   ar
    37    18    19   ar
    38    19    20   ar
    39    20    21    1
    40    20    22   ar
    41    22    23   ar
    42    23    24    1
    43     6     7    1
    44    14    15    1
    45    15    16    1
    46    16    11    1
    47     7     3    1
    48    29    25   ar
    49    23    17   ar
    50    38    33   ar
@<TRIPOS>MOLECULE
*****
 46 50 0 0 0
SMALL
GASTEIGER

@<TRIPOS>ATOM
      1 C           2.8656    2.4190   30.7840 C.2     1  UNL1        0.2253
      2 O           1.8752    3.1647   29.9396 O.2     1  UNL1       -0.2749
      3 N           3.6776    1.3096   30.1841 N.am    1  UNL1       -0.2787
      4 C           3.6089    0.8359   28.7625 C.3     1  UNL1        0.1030
      5 C           4.5897   -0.2874   28.6003 C.3     1  UNL1        0.1046
      6 C           5.2646   -0.5079   29.9217 C.3     1  UNL1        0.0523
      7 C           4.7009    0.4791   30.9005 C.3     1  UNL1        0.0982
      8 C           2.7610    3.1876   37.6139 C.3     1  UNL1        0.0948
      9 C           3.5794    3.8741   36.5609 C.2     1  UNL1        0.2261
     10 O           4.5764    4.9243   36.9522 O.2     1  UNL1       -0.2749
     11 N           3.4010    3.5103   35.1167 N.am    1  UNL1       -0.2795
     12 C           2.4040    2.4601   34.7254 C.3     1  UNL1        0.0939
     13 C           2.2256    2.0964   33.2812 C.3     1  UNL1        0.0306
     14 C           3.0441    2.7828   32.2282 C.3     1  UNL1        0.0801
     15 C           4.0410    3.8330   32.6195 C.3     1  UNL1        0.0306
     16 C           4.2195    4.1968   34.0637 C.3     1  UNL1        0.0939
     17 C           6.3181   -1.5350   30.2131 C.ar    1  UNL1       -0.0241
     18 C           5.9390   -2.8376   30.8530 C.ar    1  UNL1       -0.0022
     19 C           6.9926   -3.8648   31.1445 C.ar    1  UNL1        0.0293
     20 C           8.4253   -3.5893   30.7959 C.ar    1  UNL1        0.1398
     21 F           9.4789   -4.6165   31.0873 F       1  UNL1       -0.2042
     22 C           8.8044   -2.2867   30.1559 C.ar    1  UNL1        0.0251
     23 C           7.7508   -1.2596   29.8645 C.ar    1  UNL1       -0.0235
     24 C           8.1300    0.0429   29.2246 C.3     1  UNL1        0.0308
     25 C           4.8500   -1.0554   27.3384 C.ar    1  UNL1        0.2379
     26 N           4.1378   -0.8708   26.0312 N.ar    1  UNL1       -0.1945
     27 C           4.7158   -1.8440   25.0470 C.ar    1  UNL1        0.1834
     28 N           5.7851   -2.6302   25.7459 N.ar    1  UNL1       -0.0603
     29 O           5.8681   -2.1427   27.1621 O.2     1  UNL1       -0.3373
     30 C           4.2977   -2.0032   23.6153 C.3     1  UNL1        0.0744
     31 C           3.3879   -0.8182   23.7492 C.3     1  UNL1        0.0121
     32 C           5.2075   -3.1882   23.4813 C.3     1  UNL1        0.0121
     33 C           3.8796   -2.1624   22.1835 C.ar    1  UNL1       -0.0160
     34 C           4.3760   -3.3295   21.3825 C.ar    1  UNL1       -0.0000
     35 C           3.9580   -3.4887   19.9508 C.ar    1  UNL1        0.0711
     36 C           3.0436   -2.4808   19.3200 C.ar    1  UNL1        0.0077
     37 C           2.5472   -1.3137   20.1209 C.ar    1  UNL1        0.0711
     38 C           2.9652   -1.1545   21.5527 C.ar    1  UNL1       -0.0000
     39 C           4.4543   -4.6558   19.1499 C.3     1  UNL1        0.4186
     40 F           4.9507   -5.8229   18.3490 F       1  UNL1       -0.1659
     41 F           5.4011   -3.7512   18.4183 F       1  UNL1       -0.1659
     42 F           3.5076   -5.5605   19.8815 F       1  UNL1       -0.1659
     43 C           1.6328   -0.3057   19.4901 C.3     1  UNL1        0.4186
     44 F           0.7183    0.7022   18.8594 F       1  UNL1       -0.1659
     45 F           0.5653   -0.6511   20.4858 F       1  UNL1       -0.1659
     46 F           2.7002    0.0396   18.4946 F       1  UNL1       -0.1659
@<TRIPOS>BOND
     1     8     9    1
     2     9    10    2
     3     9    11   am
     4    11    12    1
     5    12    13    1
     6    13    14    1
     7    14     1    1
     8     1     2    2
     9     1     3   am
    10     3     4    1
    11     4     5    1
    12     5    25    1
    13    25    26   ar
    14    26    27   ar
    15    27    30    1
    16    30    31    1
    17    30    32    1
    18    30    33    1
    19    33    34   ar
    20    34    35   ar
    21    35    39    1
    22    39    40    1
    23    39    41    1
    24    39    42    1
    25    35    36   ar
    26    36    37   ar
    27    37    43    1
    28    43    44    1
    29    43    45    1
    30    43    46    1
    31    37    38   ar
    32    27    28   ar
    33    28    29   ar
    34     5     6    1
    35     6    17    1
    36    17    18   ar
    37    18    19   ar
    38    19    20   ar
    39    20    21    1
    40    20    22   ar
    41    22    23   ar
    42    23    24    1
    43     6     7    1
    44    14    15    1
    45    15    16    1
    46    16    11    1
    47     7     3    1
    48    29    25   ar
    49    23    17   ar
    50    38    33   ar
@<TRIPOS>MOLECULE
*****
 46 50 0 0 0
SMALL
GASTEIGER

@<TRIPOS>ATOM
      1 C           1.5699    2.5586   30.7291 C.2     1  UNL1        0.2253
      2 O           0.5007    3.1104   29.8333 O.2     1  UNL1       -0.2749
      3 N           2.5743    1.5855   30.1868 N.am    1  UNL1       -0.2787
      4 C           2.6350    1.0744   28.7778 C.3     1  UNL1        0.1030
      5 C           3.7927    0.1256   28.6784 C.3     1  UNL1        0.1046
      6 C           4.4473    0.0503   30.0260 C.3     1  UNL1        0.0523
      7 C           3.6943    0.9526   30.9582 C.3     1  UNL1        0.0982
      8 C           2.4224    3.3242   37.5068 C.3     1  UNL1        0.0948
      9 C           1.8288    4.2443   36.4816 C.2     1  UNL1        0.2261
     10 O           1.2998    5.5858   36.8946 O.2     1  UNL1       -0.2749
     11 N           1.7640    3.8229   35.0435 N.am    1  UNL1       -0.2795
     12 C           2.2930    2.4814   34.6305 C.3     1  UNL1        0.0939
     13 C           2.2282    2.0600   33.1924 C.3     1  UNL1        0.0306
     14 C           1.6346    2.9801   32.1672 C.3     1  UNL1        0.0801
     15 C           1.1057    4.3216   32.5802 C.3     1  UNL1        0.0306
     16 C           1.1704    4.7430   34.0183 C.3     1  UNL1        0.0939
     17 C           5.6446   -0.7811   30.3793 C.ar    1  UNL1       -0.0241
     18 C           5.4630   -2.1122   31.0466 C.ar    1  UNL1       -0.0022
     19 C           6.6603   -2.9437   31.4000 C.ar    1  UNL1        0.0293
     20 C           8.0395   -2.4442   31.0860 C.ar    1  UNL1        0.1398
     21 F           9.2369   -3.2757   31.4393 F       1  UNL1       -0.2042
     22 C           8.2211   -1.1131   30.4186 C.ar    1  UNL1        0.0251
     23 C           7.0237   -0.2816   30.0653 C.ar    1  UNL1       -0.0235
     24 C           7.2055    1.0494   29.3980 C.3     1  UNL1        0.0308
     25 C           4.2205   -0.6175   27.4477 C.ar    1  UNL1        0.2379
     26 N           3.5705   -0.5364   26.0983 N.ar    1  UNL1       -0.1945
     27 C           4.3217   -1.4409   25.1669 C.ar    1  UNL1        0.1834
     28 N           5.4359   -2.0810   25.9406 N.ar    1  UNL1       -0.0603
     29 O           5.3734   -1.5721   27.3503 O.2     1  UNL1       -0.3373
     30 C           4.0128   -1.6658   23.7163 C.3     1  UNL1        0.0744
     31 C           5.0201   -2.7765   23.6741 C.3     1  UNL1        0.0121
     32 C           3.0056   -0.5551   23.7585 C.3     1  UNL1        0.0121
     33 C           3.7040   -1.8907   22.2657 C.ar    1  UNL1       -0.0160
     34 C           2.8567   -0.9046   21.5177 C.ar    1  UNL1       -0.0000
     35 C           2.5478   -1.1294   20.0672 C.ar    1  UNL1        0.0711
     36 C           3.0862   -2.3405   19.3647 C.ar    1  UNL1        0.0077
     37 C           3.9335   -3.3266   20.1128 C.ar    1  UNL1        0.0711
     38 C           4.2424   -3.1018   21.5633 C.ar    1  UNL1       -0.0000
     39 C           1.7005   -0.1433   19.3191 C.3     1  UNL1        0.4186
     40 F           0.8532    0.8429   18.5710 F       1  UNL1       -0.1659
     41 F           2.8948    0.2699   18.5111 F       1  UNL1       -0.1659
     42 F           0.5062   -0.5564   20.1272 F       1  UNL1       -0.1659
     43 C           4.4720   -4.5376   19.4103 C.3     1  UNL1        0.4186
     44 F           5.0104   -5.7487   18.7079 F       1  UNL1       -0.1659
     45 F           3.0817   -4.9115   18.9892 F       1  UNL1       -0.1659
     46 F           5.8622   -4.1639   19.8315 F       1  UNL1       -0.1659
@<TRIPOS>BOND
     1     8     9    1
     2     9    10    2
     3     9    11   am
     4    11    12    1
     5    12    13    1
     6    13    14    1
     7    14     1    1
     8     1     2    2
     9     1     3   am
    10     3     4    1
    11     4     5    1
    12     5    25    1
    13    25    26   ar
    14    26    27   ar
    15    27    30    1
    16    30    31    1
    17    30    32    1
    18    30    33    1
    19    33    34   ar
    20    34    35   ar
    21    35    39    1
    22    39    40    1
    23    39    41    1
    24    39    42    1
    25    35    36   ar
    26    36    37   ar
    27    37    43    1
    28    43    44    1
    29    43    45    1
    30    43    46    1
    31    37    38   ar
    32    27    28   ar
    33    28    29   ar
    34     5     6    1
    35     6    17    1
    36    17    18   ar
    37    18    19   ar
    38    19    20   ar
    39    20    21    1
    40    20    22   ar
    41    22    23   ar
    42    23    24    1
    43     6     7    1
    44    14    15    1
    45    15    16    1
    46    16    11    1
    47     7     3    1
    48    29    25   ar
    49    23    17   ar
    50    38    33   ar
@<TRIPOS>MOLECULE
*****
 46 50 0 0 0
SMALL
GASTEIGER

@<TRIPOS>ATOM
      1 C           3.8926    1.9720   31.4202 C.2     1  UNL1        0.2253
      2 O           3.0069    2.9019   30.6451 O.2     1  UNL1       -0.2749
      3 N           4.5532    0.8159   30.7296 N.am    1  UNL1       -0.2787
      4 C           4.4225    0.4650   29.2770 C.3     1  UNL1        0.1030
      5 C           5.2489   -0.7602   29.0199 C.3     1  UNL1        0.1046
      6 C           5.8904   -1.1665   30.3136 C.3     1  UNL1        0.0523
      7 C           5.4604   -0.1924   31.3702 C.3     1  UNL1        0.0982
      8 C           5.8927    3.7894   37.7405 C.3     1  UNL1        0.0948
      9 C           4.7936    2.8771   37.2827 C.2     1  UNL1        0.2261
     10 O           3.9197    2.1910   38.2905 O.2     1  UNL1       -0.2749
     11 N           4.5683    2.6508   35.8171 N.am    1  UNL1       -0.2795
     12 C           5.4422    3.3368   34.8093 C.3     1  UNL1        0.0939
     13 C           5.2170    3.1106   33.3436 C.3     1  UNL1        0.0306
     14 C           4.1179    2.1983   32.8858 C.3     1  UNL1        0.0801
     15 C           3.2440    1.5123   33.8936 C.3     1  UNL1        0.0306
     16 C           3.4692    1.7385   35.3592 C.3     1  UNL1        0.0939
     17 C           6.8017   -2.3406   30.5153 C.ar    1  UNL1       -0.0241
     18 C           6.2493   -3.6411   31.0186 C.ar    1  UNL1       -0.0022
     19 C           7.1606   -4.8153   31.2203 C.ar    1  UNL1        0.0293
     20 C           8.6246   -4.6889   30.9187 C.ar    1  UNL1        0.1398
     21 F           9.5360   -5.8631   31.1204 F       1  UNL1       -0.2042
     22 C           9.1771   -3.3884   30.4154 C.ar    1  UNL1        0.0251
     23 C           8.2656   -2.2142   30.2137 C.ar    1  UNL1       -0.0235
     24 C           8.8182   -0.9137   29.7104 C.3     1  UNL1        0.0308
     25 C           5.4063   -1.4568   27.7009 C.ar    1  UNL1        0.2379
     26 N           4.6290   -1.1652   26.4516 N.ar    1  UNL1       -0.1945
     27 C           5.1109   -2.0954   25.3781 C.ar    1  UNL1        0.1834
     28 N           6.1860   -2.9619   25.9639 N.ar    1  UNL1       -0.0603
     29 O           6.3686   -2.5672   27.3995 O.2     1  UNL1       -0.3373
     30 C           4.6062   -2.1496   23.9666 C.3     1  UNL1        0.0744
     31 C           5.6339   -3.1920   23.6392 C.3     1  UNL1        0.0121
     32 C           3.5785   -1.1073   24.2940 C.3     1  UNL1        0.0121
     33 C           4.1015   -2.2038   22.5550 C.ar    1  UNL1       -0.0160
     34 C           3.2011   -1.1211   22.0384 C.ar    1  UNL1       -0.0000
     35 C           2.6964   -1.1753   20.6269 C.ar    1  UNL1        0.0711
     36 C           3.0921   -2.3122   19.7321 C.ar    1  UNL1        0.0077
     37 C           3.9925   -3.3949   20.2487 C.ar    1  UNL1        0.0711
     38 C           4.4972   -3.3408   21.6602 C.ar    1  UNL1       -0.0000
     39 C           1.7960   -0.0925   20.1102 C.3     1  UNL1        0.4186
     40 F           0.8956    0.9902   19.5936 F       1  UNL1       -0.1659
     41 F           0.5964   -0.9133   20.4807 F       1  UNL1       -0.1659
     42 F           2.9956    0.7283   19.7398 F       1  UNL1       -0.1659
     43 C           4.3883   -4.5319   19.3539 C.3     1  UNL1        0.4186
     44 F           4.7841   -5.6689   18.4591 F       1  UNL1       -0.1659
     45 F           5.7919   -4.4554   19.8774 F       1  UNL1       -0.1659
     46 F           2.9848   -4.6084   18.8304 F       1  UNL1       -0.1659
@<TRIPOS>BOND
     1     8     9    1
     2     9    10    2
     3     9    11   am
     4    11    12    1
     5    12    13    1
     6    13    14    1
     7    14     1    1
     8     1     2    2
     9     1     3   am
    10     3     4    1
    11     4     5    1
    12     5    25    1
    13    25    26   ar
    14    26    27   ar
    15    27    30    1
    16    30    31    1
    17    30    32    1
    18    30    33    1
    19    33    34   ar
    20    34    35   ar
    21    35    39    1
    22    39    40    1
    23    39    41    1
    24    39    42    1
    25    35    36   ar
    26    36    37   ar
    27    37    43    1
    28    43    44    1
    29    43    45    1
    30    43    46    1
    31    37    38   ar
    32    27    28   ar
    33    28    29   ar
    34     5     6    1
    35     6    17    1
    36    17    18   ar
    37    18    19   ar
    38    19    20   ar
    39    20    21    1
    40    20    22   ar
    41    22    23   ar
    42    23    24    1
    43     6     7    1
    44    14    15    1
    45    15    16    1
    46    16    11    1
    47     7     3    1
    48    29    25   ar
    49    23    17   ar
    50    38    33   ar
@<TRIPOS>MOLECULE
*****
 46 50 0 0 0
SMALL
GASTEIGER

@<TRIPOS>ATOM
      1 C           5.3410   -0.5971   32.2308 C.2     1  UNL1        0.2253
      2 O           6.6529   -1.3243   32.2355 O.2     1  UNL1       -0.2749
      3 N           4.5765   -0.4376   30.9501 N.am    1  UNL1       -0.2787
      4 C           4.9955   -0.9488   29.6036 C.3     1  UNL1        0.1030
      5 C           3.9367   -0.5661   28.6124 C.3     1  UNL1        0.1046
      6 C           2.8632    0.1816   29.3463 C.3     1  UNL1        0.0523
      7 C           3.2586    0.2610   30.7911 C.3     1  UNL1        0.0982
      8 C           3.5487    1.0775   38.6521 C.3     1  UNL1        0.0948
      9 C           3.1515    1.6741   37.3345 C.2     1  UNL1        0.2261
     10 O           2.2070    2.8386   37.2928 O.2     1  UNL1       -0.2749
     11 N           3.6989    1.1063   36.0585 N.am    1  UNL1       -0.2795
     12 C           4.6435   -0.0581   36.1002 C.3     1  UNL1        0.0939
     13 C           5.1908   -0.6259   34.8243 C.3     1  UNL1        0.0306
     14 C           4.7936   -0.0293   33.5067 C.3     1  UNL1        0.0801
     15 C           3.8491    1.1352   33.4650 C.3     1  UNL1        0.0306
     16 C           3.3017    1.7030   34.7409 C.3     1  UNL1        0.0939
     17 C           1.6138    0.7501   28.7417 C.ar    1  UNL1       -0.0241
     18 C           0.3456   -0.0508   28.7488 C.ar    1  UNL1       -0.0022
     19 C          -0.9040    0.5176   28.1442 C.ar    1  UNL1        0.0293
     20 C          -0.8852    1.8871   27.5324 C.ar    1  UNL1        0.1398
     21 F          -2.1347    2.4556   26.9277 F       1  UNL1       -0.2042
     22 C           0.3831    2.6881   27.5253 C.ar    1  UNL1        0.0251
     23 C           1.6326    2.1196   28.1299 C.ar    1  UNL1       -0.0235
     24 C           2.9007    2.9205   28.1228 C.3     1  UNL1        0.0308
     25 C           3.9491   -0.8766   27.1449 C.ar    1  UNL1        0.2379
     26 N           3.2280   -0.1107   26.0756 N.ar    1  UNL1       -0.1945
     27 C           3.5181   -0.7683   24.7590 C.ar    1  UNL1        0.1834
     28 N           4.4184   -1.9404   25.0146 N.ar    1  UNL1       -0.0603
     29 O           4.6848   -2.0074   26.4892 O.2     1  UNL1       -0.3373
     30 C           2.9989   -0.3304   23.4215 C.3     1  UNL1        0.0744
     31 C           2.4036    0.8929   24.0531 C.3     1  UNL1        0.0121
     32 C           3.5942   -1.5537   22.7899 C.3     1  UNL1        0.0121
     33 C           2.4797    0.1075   22.0840 C.ar    1  UNL1       -0.0160
     34 C           3.1850   -0.3171   20.8301 C.ar    1  UNL1       -0.0000
     35 C           2.6659    0.1207   19.4927 C.ar    1  UNL1        0.0711
     36 C           1.4414    0.9831   19.4092 C.ar    1  UNL1        0.0077
     37 C           0.7361    1.4076   20.6631 C.ar    1  UNL1        0.0711
     38 C           1.2552    0.9698   22.0005 C.ar    1  UNL1       -0.0000
     39 C           3.3712   -0.3038   18.2387 C.3     1  UNL1        0.4186
     40 F           4.0765   -0.7283   16.9848 F       1  UNL1       -0.1659
     41 F           4.5919   -0.6448   19.0408 F       1  UNL1       -0.1659
     42 F           2.1504    0.0373   17.4366 F       1  UNL1       -0.1659
     43 C          -0.4884    2.2700   20.5796 C.3     1  UNL1        0.4186
     44 F          -1.7129    3.1324   20.4962 F       1  UNL1       -0.1659
     45 F          -0.6382    2.2016   22.0705 F       1  UNL1       -0.1659
     46 F          -0.3386    2.3384   19.0887 F       1  UNL1       -0.1659
@<TRIPOS>BOND
     1     8     9    1
     2     9    10    2
     3     9    11   am
     4    11    12    1
     5    12    13    1
     6    13    14    1
     7    14     1    1
     8     1     2    2
     9     1     3   am
    10     3     4    1
    11     4     5    1
    12     5    25    1
    13    25    26   ar
    14    26    27   ar
    15    27    30    1
    16    30    31    1
    17    30    32    1
    18    30    33    1
    19    33    34   ar
    20    34    35   ar
    21    35    39    1
    22    39    40    1
    23    39    41    1
    24    39    42    1
    25    35    36   ar
    26    36    37   ar
    27    37    43    1
    28    43    44    1
    29    43    45    1
    30    43    46    1
    31    37    38   ar
    32    27    28   ar
    33    28    29   ar
    34     5     6    1
    35     6    17    1
    36    17    18   ar
    37    18    19   ar
    38    19    20   ar
    39    20    21    1
    40    20    22   ar
    41    22    23   ar
    42    23    24    1
    43     6     7    1
    44    14    15    1
    45    15    16    1
    46    16    11    1
    47     7     3    1
    48    29    25   ar
    49    23    17   ar
    50    38    33   ar
