@<TRIPOS>MOLECULE
*****
 32 34 0 0 0
SMALL
GASTEIGER

@<TRIPOS>ATOM
      1 C          -9.0090  -17.7761   22.3561 C.2     1  UNL1        0.2439
      2 O          -7.5528  -17.9385   22.6771 O.2     1  UNL1       -0.2731
      3 N          -9.5793  -18.4053   21.1197 N.am    1  UNL1       -0.2730
      4 C         -11.0085  -18.3296   20.6706 C.3     1  UNL1        0.0939
      5 C         -11.1329  -19.0982   19.3886 C.3     1  UNL1        0.0237
      6 C          -9.7806  -19.6491   19.0453 C.3     1  UNL1        0.0293
      7 C          -8.8204  -19.2208   20.1151 C.3     1  UNL1        0.1319
      8 C          -7.3581  -19.5503   20.1707 C.ar    1  UNL1        0.1353
      9 N          -6.7683  -20.9213   20.3209 N.ar    1  UNL1       -0.2279
     10 C          -5.2745  -20.7848   20.3289 C.ar    1  UNL1        0.1171
     11 C          -4.9411  -19.3296   20.1837 C.ar    1  UNL1        0.0769
     12 N          -6.2289  -18.5666   20.0860 N.ar    1  UNL1       -0.3394
     13 H          -6.3174  -17.5914   19.9840 H       1  UNL1        0.1671
     14 C          -3.5621  -18.7407   20.1433 C.ar    1  UNL1        0.0173
     15 C          -2.8396  -18.4347   21.4217 C.ar    1  UNL1        0.0032
     16 C          -1.4606  -17.8458   21.3813 C.ar    1  UNL1        0.0262
     17 C          -0.8042  -17.5629   20.0625 C.ar    1  UNL1        0.1641
     18 C          -1.5268  -17.8689   18.7842 C.ar    1  UNL1        0.0262
     19 C          -2.9057  -18.4578   18.8246 C.ar    1  UNL1        0.0032
     20 N           0.5748  -16.9740   20.0222 N.2     1  UNL1        0.1168
     21 N           1.7134  -17.6840   20.6925 N.2     1  UNL1       -0.0090
     22 N           2.8521  -18.3939   21.3629 N.2     1  UNL1       -0.3278
     23 C          -9.8951  -16.9844   23.2717 C.3     1  UNL1        0.1512
     24 C          -8.8753  -16.2352   25.5407 C.2     1  UNL1        0.4021
     25 O          -9.0289  -17.6302   26.0703 O.2     1  UNL1       -0.2264
     26 N          -9.3085  -15.9124   24.1414 N.am    1  UNL1       -0.2640
     27 H          -9.2077  -14.9968   23.7938 H       1  UNL1        0.1532
     28 C          -7.1053  -15.4672   27.2806 C.3     1  UNL1        0.2573
     29 O          -8.2887  -15.1631   26.4104 O.3     1  UNL1       -0.4306
     30 C         -11.3680  -17.2649   23.3174 C.3     1  UNL1        0.0270
     31 C         -12.3340  -16.3056   22.6878 C.3     1  UNL1        0.0022
     32 C         -11.8749  -18.5047   23.9928 C.3     1  UNL1        0.0022
@<TRIPOS>UNITY_ATOM_ATTR
21 1
charge 1
22 1
charge -1
@<TRIPOS>BOND
     1    28    29    1
     2    29    24    1
     3    24    25    2
     4    24    26   am
     5    23    26    1
     6    23     1    1
     7     1     2    2
     8     1     3   am
     9     3     4    1
    10     4     5    1
    11     5     6    1
    12     6     7    1
    13     7     8    1
    14     8     9   ar
    15     9    10   ar
    16    10    11   ar
    17    11    14    1
    18    14    15   ar
    19    15    16   ar
    20    16    17   ar
    21    17    20    1
    22    20    21    2
    23    21    22    2
    24    17    18   ar
    25    18    19   ar
    26    11    12   ar
    27    23    30    1
    28    30    31    1
    29    30    32    1
    30     7     3    1
    31    12     8   ar
    32    19    14   ar
    33    26    27    1
    34    12    13    1
@<TRIPOS>MOLECULE
*****
 32 34 0 0 0
SMALL
GASTEIGER

@<TRIPOS>ATOM
      1 C          -9.1196  -17.4315   22.5144 C.2     1  UNL1        0.2439
      2 O          -8.0292  -17.1783   21.5160 O.2     1  UNL1       -0.2731
      3 N          -9.2323  -18.7718   23.1783 N.am    1  UNL1       -0.2730
      4 C         -10.2646  -19.1701   24.1911 C.3     1  UNL1        0.0939
      5 C         -10.0027  -20.5936   24.5848 C.3     1  UNL1        0.0237
      6 C          -8.8086  -21.0752   23.8153 C.3     1  UNL1        0.0293
      7 C          -8.3325  -19.9493   22.9461 C.3     1  UNL1        0.1319
      8 C          -7.1620  -19.9930   22.0090 C.ar    1  UNL1        0.1353
      9 N          -7.0332  -20.8707   20.7994 N.ar    1  UNL1       -0.2279
     10 C          -5.7064  -20.5870   20.1599 C.ar    1  UNL1        0.1171
     11 C          -5.0151  -19.5339   20.9742 C.ar    1  UNL1        0.0769
     12 N          -5.9147  -19.1668   22.1171 N.ar    1  UNL1       -0.3394
     13 H          -5.7206  -18.5006   22.8154 H       1  UNL1        0.1671
     14 C          -3.6618  -18.9503   20.6948 C.ar    1  UNL1        0.0173
     15 C          -2.6467  -18.8500   21.7946 C.ar    1  UNL1        0.0032
     16 C          -1.2934  -18.2665   21.5151 C.ar    1  UNL1        0.0262
     17 C          -0.9553  -17.7831   20.1360 C.ar    1  UNL1        0.1641
     18 C          -1.9704  -17.8834   19.0362 C.ar    1  UNL1        0.0262
     19 C          -3.3237  -18.4669   19.3157 C.ar    1  UNL1        0.0032
     20 N           0.3980  -17.1995   19.8566 N.2     1  UNL1        0.1168
     21 N           1.6004  -17.7053   20.5971 N.2     1  UNL1       -0.0090
     22 N           2.8028  -18.2111   21.3377 N.2     1  UNL1       -0.3278
     23 C         -10.0975  -16.3443   22.8489 C.3     1  UNL1        0.1512
     24 C          -8.6750  -15.5792   24.8838 C.2     1  UNL1        0.4021
     25 O          -7.4817  -16.2894   24.3168 O.2     1  UNL1       -0.2264
     26 N          -9.9829  -15.6066   24.1499 N.am    1  UNL1       -0.2640
     27 H         -10.7661  -15.1405   24.5221 H       1  UNL1        0.1532
     28 C          -8.1103  -15.5642   27.4198 C.3     1  UNL1        0.2573
     29 O          -8.5605  -14.8415   26.1848 O.3     1  UNL1       -0.4306
     30 C         -11.1900  -15.9949   21.8823 C.3     1  UNL1        0.0270
     31 C         -10.8524  -15.6451   20.4633 C.3     1  UNL1        0.0022
     32 C         -12.6203  -15.9953   22.3347 C.3     1  UNL1        0.0022
@<TRIPOS>UNITY_ATOM_ATTR
21 1
charge 1
22 1
charge -1
@<TRIPOS>BOND
     1    28    29    1
     2    29    24    1
     3    24    25    2
     4    24    26   am
     5    23    26    1
     6    23     1    1
     7     1     2    2
     8     1     3   am
     9     3     4    1
    10     4     5    1
    11     5     6    1
    12     6     7    1
    13     7     8    1
    14     8     9   ar
    15     9    10   ar
    16    10    11   ar
    17    11    14    1
    18    14    15   ar
    19    15    16   ar
    20    16    17   ar
    21    17    20    1
    22    20    21    2
    23    21    22    2
    24    17    18   ar
    25    18    19   ar
    26    11    12   ar
    27    23    30    1
    28    30    31    1
    29    30    32    1
    30     7     3    1
    31    12     8   ar
    32    19    14   ar
    33    26    27    1
    34    12    13    1
@<TRIPOS>MOLECULE
*****
 32 34 0 0 0
SMALL
GASTEIGER

@<TRIPOS>ATOM
      1 C           5.4316   -3.4641   21.4030 C.2     1  UNL1        0.2439
      2 O           5.1471   -4.3024   22.6138 O.2     1  UNL1       -0.2731
      3 N           6.8295   -3.3703   20.8673 N.am    1  UNL1       -0.2730
      4 C           7.2640   -2.5758   19.6714 C.3     1  UNL1        0.0939
      5 C           8.7414   -2.7690   19.4984 C.3     1  UNL1        0.0237
      6 C           9.2200   -3.6829   20.5873 C.3     1  UNL1        0.0293
      7 C           8.0384   -4.0545   21.4333 C.3     1  UNL1        0.1319
      8 C           8.0616   -4.9527   22.6344 C.ar    1  UNL1        0.1353
      9 N           8.4104   -6.4116   22.6379 N.ar    1  UNL1       -0.2279
     10 C           8.3045   -6.9102   24.0486 C.ar    1  UNL1        0.1171
     11 C           7.8901   -5.7595   24.9170 C.ar    1  UNL1        0.0769
     12 N           7.7400   -4.5497   24.0430 N.ar    1  UNL1       -0.3394
     13 H           7.4767   -3.6492   24.3415 H       1  UNL1        0.1671
     14 C           7.6654   -5.8097   26.3993 C.ar    1  UNL1        0.0173
     15 C           8.3314   -6.8714   27.2233 C.ar    1  UNL1        0.0032
     16 C           8.1066   -6.9216   28.7055 C.ar    1  UNL1        0.0262
     17 C           7.2158   -5.9101   29.3636 C.ar    1  UNL1        0.1641
     18 C           6.5497   -4.8484   28.5396 C.ar    1  UNL1        0.0262
     19 C           6.7745   -4.7982   27.0574 C.ar    1  UNL1        0.0032
     20 N           6.9910   -5.9603   30.8459 N.2     1  UNL1        0.1168
     21 N           6.7636   -4.6918   31.6134 N.2     1  UNL1       -0.0090
     22 N           6.5361   -3.4233   32.3810 N.2     1  UNL1       -0.3278
     23 C           4.3182   -2.7195   20.7278 C.3     1  UNL1        0.1512
     24 C           4.1469   -0.2294   21.4492 C.2     1  UNL1        0.4021
     25 O           5.4178    0.0717   20.7114 O.2     1  UNL1       -0.2264
     26 N           3.5971   -1.6250   21.4573 N.am    1  UNL1       -0.2640
     27 H           2.7630   -1.8227   21.9416 H       1  UNL1        0.1532
     28 C           2.3974    0.5237   23.2160 C.3     1  UNL1        0.2573
     29 O           3.4258    0.8649   22.1787 O.3     1  UNL1       -0.4306
     30 C           3.9258   -3.0694   19.3229 C.3     1  UNL1        0.0270
     31 C           3.5503   -4.4802   18.9784 C.3     1  UNL1        0.0022
     32 C           3.9088   -2.0085   18.2625 C.3     1  UNL1        0.0022
@<TRIPOS>UNITY_ATOM_ATTR
21 1
charge 1
22 1
charge -1
@<TRIPOS>BOND
     1    28    29    1
     2    29    24    1
     3    24    25    2
     4    24    26   am
     5    23    26    1
     6    23     1    1
     7     1     2    2
     8     1     3   am
     9     3     4    1
    10     4     5    1
    11     5     6    1
    12     6     7    1
    13     7     8    1
    14     8     9   ar
    15     9    10   ar
    16    10    11   ar
    17    11    14    1
    18    14    15   ar
    19    15    16   ar
    20    16    17   ar
    21    17    20    1
    22    20    21    2
    23    21    22    2
    24    17    18   ar
    25    18    19   ar
    26    11    12   ar
    27    23    30    1
    28    30    31    1
    29    30    32    1
    30     7     3    1
    31    12     8   ar
    32    19    14   ar
    33    26    27    1
    34    12    13    1
@<TRIPOS>MOLECULE
*****
 32 34 0 0 0
SMALL
GASTEIGER

@<TRIPOS>ATOM
      1 C           0.8366    2.2886   29.8656 C.2     1  UNL1        0.2439
      2 O           0.6604    1.9543   31.3172 O.2     1  UNL1       -0.2731
      3 N           1.1577    3.6946   29.4533 N.am    1  UNL1       -0.2730
      4 C           1.3611    4.1766   28.0475 C.3     1  UNL1        0.0939
      5 C           1.6609    5.6453   28.0998 C.3     1  UNL1        0.0237
      6 C           1.6429    6.0712   29.5380 C.3     1  UNL1        0.0293
      7 C           1.3319    4.8655   30.3744 C.3     1  UNL1        0.1319
      8 C           1.2156    4.8360   31.8696 C.ar    1  UNL1        0.1353
      9 N           0.2935    5.6798   32.6991 N.ar    1  UNL1       -0.2279
     10 C           0.5089    5.3228   34.1399 C.ar    1  UNL1        0.1171
     11 C           1.5640    4.2584   34.2010 C.ar    1  UNL1        0.0769
     12 N           2.0007    3.9576   32.7979 N.ar    1  UNL1       -0.3394
     13 H           2.6830    3.2991   32.5328 H       1  UNL1        0.1671
     14 C           2.0901    3.6088   35.4466 C.ar    1  UNL1        0.0173
     15 C           2.9659    2.3952   35.3470 C.ar    1  UNL1        0.0032
     16 C           3.4919    1.7457   36.5926 C.ar    1  UNL1        0.0262
     17 C           3.1421    2.3098   37.9377 C.ar    1  UNL1        0.1641
     18 C           2.2664    3.5235   38.0373 C.ar    1  UNL1        0.0262
     19 C           1.7404    4.1730   36.7918 C.ar    1  UNL1        0.0032
     20 N           3.6682    1.6603   39.1833 N.2     1  UNL1        0.1168
     21 N           4.7856    2.3034   39.9499 N.2     1  UNL1       -0.0090
     22 N           5.9030    2.9465   40.7167 N.2     1  UNL1       -0.3278
     23 C           0.6916    1.2169   28.8261 C.3     1  UNL1        0.1512
     24 C           2.5921   -0.5289   29.1268 C.2     1  UNL1        0.4021
     25 O           2.0606   -0.8733   30.4866 O.2     1  UNL1       -0.2264
     26 N           1.9075    0.5161   28.2966 N.am    1  UNL1       -0.2640
     27 H           2.2563    0.7421   27.4041 H       1  UNL1        0.1532
     28 C           4.0340   -1.3244   27.1173 C.3     1  UNL1        0.2573
     29 O           3.8080   -1.2296   28.5972 O.3     1  UNL1       -0.4306
     30 C          -0.6694    0.8459   28.3163 C.3     1  UNL1        0.0270
     31 C          -1.3368   -0.4065   28.8024 C.3     1  UNL1        0.0022
     32 C          -1.3632    1.7272   27.3202 C.3     1  UNL1        0.0022
@<TRIPOS>UNITY_ATOM_ATTR
21 1
charge 1
22 1
charge -1
@<TRIPOS>BOND
     1    28    29    1
     2    29    24    1
     3    24    25    2
     4    24    26   am
     5    23    26    1
     6    23     1    1
     7     1     2    2
     8     1     3   am
     9     3     4    1
    10     4     5    1
    11     5     6    1
    12     6     7    1
    13     7     8    1
    14     8     9   ar
    15     9    10   ar
    16    10    11   ar
    17    11    14    1
    18    14    15   ar
    19    15    16   ar
    20    16    17   ar
    21    17    20    1
    22    20    21    2
    23    21    22    2
    24    17    18   ar
    25    18    19   ar
    26    11    12   ar
    27    23    30    1
    28    30    31    1
    29    30    32    1
    30     7     3    1
    31    12     8   ar
    32    19    14   ar
    33    26    27    1
    34    12    13    1
@<TRIPOS>MOLECULE
*****
 32 34 0 0 0
SMALL
GASTEIGER

@<TRIPOS>ATOM
      1 C          -1.2904    3.5712   23.6431 C.2     1  UNL1        0.2439
      2 O           0.0376    3.2053   23.0494 O.2     1  UNL1       -0.2731
      3 N          -2.5170    3.5944   22.7800 N.am    1  UNL1       -0.2730
      4 C          -3.9056    3.9390   23.2304 C.3     1  UNL1        0.0939
      5 C          -4.8171    3.8346   22.0438 C.3     1  UNL1        0.0237
      6 C          -3.9919    3.4254   20.8599 C.3     1  UNL1        0.0293
      7 C          -2.5703    3.2770   21.3150 C.3     1  UNL1        0.1319
      8 C          -1.4064    2.8807   20.4558 C.ar    1  UNL1        0.1353
      9 N          -0.8575    3.6627   19.2993 N.ar    1  UNL1       -0.2279
     10 C           0.3011    2.8981   18.7310 C.ar    1  UNL1        0.1171
     11 C           0.4684    1.6437   19.5362 C.ar    1  UNL1        0.0769
     12 N          -0.5869    1.6329   20.6021 N.ar    1  UNL1       -0.3394
     13 H          -0.7186    0.9302   21.2790 H       1  UNL1        0.1671
     14 C           1.5084    0.5857   19.3144 C.ar    1  UNL1        0.0173
     15 C           1.5838   -0.5965   20.2346 C.ar    1  UNL1        0.0032
     16 C           2.6237   -1.6544   20.0127 C.ar    1  UNL1        0.0262
     17 C           3.5882   -1.5302   18.8707 C.ar    1  UNL1        0.1641
     18 C           3.5128   -0.3481   17.9505 C.ar    1  UNL1        0.0262
     19 C           2.4729    0.7099   18.1723 C.ar    1  UNL1        0.0032
     20 N           4.6282   -2.5882   18.6489 N.2     1  UNL1        0.1168
     21 N           4.3672   -3.9995   19.0848 N.2     1  UNL1       -0.0090
     22 N           4.1063   -5.4109   19.5208 N.2     1  UNL1       -0.3278
     23 C          -1.3919    3.9140   25.0999 C.3     1  UNL1        0.1512
     24 C          -0.5928    1.9774   26.6364 C.2     1  UNL1        0.4021
     25 O           0.8163    2.1856   26.1661 O.2     1  UNL1       -0.2264
     26 N          -1.6968    2.8416   26.1033 N.am    1  UNL1       -0.2640
     27 H          -2.6217    2.7050   26.4120 H       1  UNL1        0.1532
     28 C           0.1749    0.4211   28.5699 C.3     1  UNL1        0.2573
     29 O          -0.8979    0.9050   27.6398 O.3     1  UNL1       -0.4306
     30 C          -1.1884    5.3293   25.5532 C.3     1  UNL1        0.0270
     31 C          -1.0014    6.4213   24.5419 C.3     1  UNL1        0.0022
     32 C          -1.1718    5.6528   27.0179 C.3     1  UNL1        0.0022
@<TRIPOS>UNITY_ATOM_ATTR
21 1
charge 1
22 1
charge -1
@<TRIPOS>BOND
     1    28    29    1
     2    29    24    1
     3    24    25    2
     4    24    26   am
     5    23    26    1
     6    23     1    1
     7     1     2    2
     8     1     3   am
     9     3     4    1
    10     4     5    1
    11     5     6    1
    12     6     7    1
    13     7     8    1
    14     8     9   ar
    15     9    10   ar
    16    10    11   ar
    17    11    14    1
    18    14    15   ar
    19    15    16   ar
    20    16    17   ar
    21    17    20    1
    22    20    21    2
    23    21    22    2
    24    17    18   ar
    25    18    19   ar
    26    11    12   ar
    27    23    30    1
    28    30    31    1
    29    30    32    1
    30     7     3    1
    31    12     8   ar
    32    19    14   ar
    33    26    27    1
    34    12    13    1
@<TRIPOS>MOLECULE
*****
 32 34 0 0 0
SMALL
GASTEIGER

@<TRIPOS>ATOM
      1 C           6.2606   -3.8773   23.9898 C.2     1  UNL1        0.2439
      2 O           4.9082   -3.4154   23.5343 O.2     1  UNL1       -0.2731
      3 N           7.3200   -4.2068   22.9804 N.am    1  UNL1       -0.2730
      4 C           8.7113   -4.6781   23.2842 C.3     1  UNL1        0.0939
      5 C           9.4253   -4.8854   21.9814 C.3     1  UNL1        0.0237
      6 C           8.4753   -4.5423   20.8725 C.3     1  UNL1        0.0293
      7 C           7.1742   -4.1229   21.4899 C.3     1  UNL1        0.1319
      8 C           5.9434   -3.6947   20.7471 C.ar    1  UNL1        0.1353
      9 N           5.1371   -4.5462   19.8118 N.ar    1  UNL1       -0.2279
     10 C           3.9981   -3.7176   19.2959 C.ar    1  UNL1        0.1171
     11 C           4.1004   -2.3540   19.9124 C.ar    1  UNL1        0.0769
     12 N           5.3027   -2.3399   20.8093 N.ar    1  UNL1       -0.3394
     13 H           5.6162   -1.5755   21.3448 H       1  UNL1        0.1671
     14 C           3.1648   -1.2061   19.6739 C.ar    1  UNL1        0.0173
     15 C           2.0846   -0.8998   20.6685 C.ar    1  UNL1        0.0032
     16 C           1.1491    0.2481   20.4300 C.ar    1  UNL1        0.0262
     17 C           1.2937    1.0898   19.1968 C.ar    1  UNL1        0.1641
     18 C           2.3739    0.7835   18.2022 C.ar    1  UNL1        0.0262
     19 C           3.3094   -0.3644   18.4407 C.ar    1  UNL1        0.0032
     20 N           0.3580    2.2377   18.9583 N.2     1  UNL1        0.1168
     21 N          -0.7896    2.4769   19.8941 N.2     1  UNL1       -0.0090
     22 N          -1.9372    2.7160   20.8300 N.2     1  UNL1       -0.3278
     23 C           6.5537   -4.0098   25.4550 C.3     1  UNL1        0.1512
     24 C           7.7631   -5.9332   26.7152 C.2     1  UNL1        0.4021
     25 O           9.0458   -5.1570   26.6688 O.2     1  UNL1       -0.2264
     26 N           6.5170   -5.3596   26.1083 N.am    1  UNL1       -0.2640
     27 H           5.6751   -5.8690   26.1387 H       1  UNL1        0.1532
     28 C           8.7463   -7.6409   28.4083 C.3     1  UNL1        0.2573
     29 O           7.7263   -7.2829   27.3684 O.3     1  UNL1       -0.4306
     30 C           6.8835   -2.7924   26.2669 C.3     1  UNL1        0.0270
     31 C           6.1836   -2.5484   27.5710 C.3     1  UNL1        0.0022
     32 C           7.9131   -1.8188   25.7747 C.3     1  UNL1        0.0022
@<TRIPOS>UNITY_ATOM_ATTR
21 1
charge 1
22 1
charge -1
@<TRIPOS>BOND
     1    28    29    1
     2    29    24    1
     3    24    25    2
     4    24    26   am
     5    23    26    1
     6    23     1    1
     7     1     2    2
     8     1     3   am
     9     3     4    1
    10     4     5    1
    11     5     6    1
    12     6     7    1
    13     7     8    1
    14     8     9   ar
    15     9    10   ar
    16    10    11   ar
    17    11    14    1
    18    14    15   ar
    19    15    16   ar
    20    16    17   ar
    21    17    20    1
    22    20    21    2
    23    21    22    2
    24    17    18   ar
    25    18    19   ar
    26    11    12   ar
    27    23    30    1
    28    30    31    1
    29    30    32    1
    30     7     3    1
    31    12     8   ar
    32    19    14   ar
    33    26    27    1
    34    12    13    1
@<TRIPOS>MOLECULE
*****
 32 34 0 0 0
SMALL
GASTEIGER

@<TRIPOS>ATOM
      1 C           4.3713   -1.0517   21.1795 C.2     1  UNL1        0.2439
      2 O           5.2501   -0.9536   22.3910 O.2     1  UNL1       -0.2731
      3 N           4.1243   -2.3850   20.5380 N.am    1  UNL1       -0.2730
      4 C           3.2735   -2.6375   19.3287 C.3     1  UNL1        0.0939
      5 C           3.3082   -4.1084   19.0365 C.3     1  UNL1        0.0237
      6 C           4.1805   -4.7648   20.0652 C.3     1  UNL1        0.0293
      7 C           4.6849   -3.6997   20.9931 C.3     1  UNL1        0.1319
      8 C           5.5908   -3.9121   22.1696 C.ar    1  UNL1        0.1353
      9 N           7.0160   -4.3765   22.1126 N.ar    1  UNL1       -0.2279
     10 C           7.5366   -4.4487   23.5175 C.ar    1  UNL1        0.1171
     11 C           6.4332   -4.0290   24.4428 C.ar    1  UNL1        0.0769
     12 N           5.2306   -3.6973   23.6098 N.ar    1  UNL1       -0.3394
     13 H           4.3581   -3.3923   23.9488 H       1  UNL1        0.1671
     14 C           6.5175   -3.9541   25.9386 C.ar    1  UNL1        0.0173
     15 C           6.8297   -5.1863   26.7349 C.ar    1  UNL1        0.0032
     16 C           6.9140   -5.1113   28.2306 C.ar    1  UNL1        0.0262
     17 C           6.6860   -3.8041   28.9301 C.ar    1  UNL1        0.1641
     18 C           6.3738   -2.5719   28.1338 C.ar    1  UNL1        0.0262
     19 C           6.2896   -2.6468   26.6381 C.ar    1  UNL1        0.0032
     20 N           6.7703   -3.7292   30.4259 N.2     1  UNL1        0.1168
     21 N           6.8154   -4.9891   31.2386 N.2     1  UNL1       -0.0090
     22 N           6.8605   -6.2490   32.0513 N.2     1  UNL1       -0.3278
     23 C           3.7392    0.1834   20.6093 C.3     1  UNL1        0.1512
     24 C           1.2256    0.4427   21.2130 C.2     1  UNL1        0.4021
     25 O           0.8894   -0.7033   20.3054 O.2     1  UNL1       -0.2264
     26 N           2.6505    0.8860   21.3649 N.am    1  UNL1       -0.2640
     27 H           2.8712    1.6382   21.9606 H       1  UNL1        0.1532
     28 C           0.4467    1.8303   23.2667 C.3     1  UNL1        0.2573
     29 O           0.1370    1.1454   21.9686 O.3     1  UNL1       -0.4306
     30 C           4.1960    0.7159   19.2835 C.3     1  UNL1        0.0270
     31 C           3.1906    1.0370   18.2176 C.3     1  UNL1        0.0022
     32 C           5.6581    0.9272   19.0234 C.3     1  UNL1        0.0022
@<TRIPOS>UNITY_ATOM_ATTR
21 1
charge 1
22 1
charge -1
@<TRIPOS>BOND
     1    28    29    1
     2    29    24    1
     3    24    25    2
     4    24    26   am
     5    23    26    1
     6    23     1    1
     7     1     2    2
     8     1     3   am
     9     3     4    1
    10     4     5    1
    11     5     6    1
    12     6     7    1
    13     7     8    1
    14     8     9   ar
    15     9    10   ar
    16    10    11   ar
    17    11    14    1
    18    14    15   ar
    19    15    16   ar
    20    16    17   ar
    21    17    20    1
    22    20    21    2
    23    21    22    2
    24    17    18   ar
    25    18    19   ar
    26    11    12   ar
    27    23    30    1
    28    30    31    1
    29    30    32    1
    30     7     3    1
    31    12     8   ar
    32    19    14   ar
    33    26    27    1
    34    12    13    1
@<TRIPOS>MOLECULE
*****
 32 34 0 0 0
SMALL
GASTEIGER

@<TRIPOS>ATOM
      1 C           3.5059   -0.6236   20.4616 C.2     1  UNL1        0.2439
      2 O           3.8978   -0.4775   21.9020 O.2     1  UNL1       -0.2731
      3 N           2.4537    0.2708   19.8761 N.am    1  UNL1       -0.2730
      4 C           1.9606    0.2422   18.4597 C.3     1  UNL1        0.0939
      5 C           0.9119    1.3046   18.3124 C.3     1  UNL1        0.0237
      6 C           0.7569    1.9898   19.6378 C.3     1  UNL1        0.0293
      7 C           1.7097    1.3509   20.6041 C.3     1  UNL1        0.1319
      8 C           1.8875    1.7261   22.0455 C.ar    1  UNL1        0.1353
      9 N           2.4564    3.0163   22.5570 N.ar    1  UNL1       -0.2279
     10 C           2.4480    2.9646   24.0561 C.ar    1  UNL1        0.1171
     11 C           1.8739    1.6425   24.4711 C.ar    1  UNL1        0.0769
     12 N           1.5275    0.8770   23.2285 N.ar    1  UNL1       -0.3394
     13 H           1.1331   -0.0244   23.1952 H       1  UNL1        0.1671
     14 C           1.6802    1.1688   25.8812 C.ar    1  UNL1        0.0173
     15 C           0.3898    1.4446   26.5944 C.ar    1  UNL1        0.0032
     16 C           0.1962    0.9710   28.0044 C.ar    1  UNL1        0.0262
     17 C           1.2930    0.2216   28.7011 C.ar    1  UNL1        0.1641
     18 C           2.5834   -0.0542   27.9879 C.ar    1  UNL1        0.0262
     19 C           2.7770    0.4194   26.5779 C.ar    1  UNL1        0.0032
     20 N           1.0993   -0.2521   30.1112 N.2     1  UNL1        0.1168
     21 N           2.2783   -0.7115   30.9167 N.2     1  UNL1       -0.0090
     22 N           3.4573   -1.1711   31.7222 N.2     1  UNL1       -0.3278
     23 C           4.1662   -1.6642   19.6064 C.3     1  UNL1        0.1512
     24 C           6.3486   -0.8118   18.4836 C.2     1  UNL1        0.4021
     25 O           7.0237   -0.7764   19.8227 O.2     1  UNL1       -0.2264
     26 N           4.9199   -1.2557   18.3755 N.am    1  UNL1       -0.2640
     27 H           4.4768   -1.2789   17.4967 H       1  UNL1        0.1532
     28 C           6.6925    0.8251   16.4956 C.3     1  UNL1        0.2573
     29 O           7.1021   -0.4033   17.2527 O.3     1  UNL1       -0.4306
     30 C           4.0729   -3.1133   19.9823 C.3     1  UNL1        0.0270
     31 C           3.3454   -4.0744   19.0895 C.3     1  UNL1        0.0022
     32 C           4.7070   -3.6015   21.2511 C.3     1  UNL1        0.0022
@<TRIPOS>UNITY_ATOM_ATTR
21 1
charge 1
22 1
charge -1
@<TRIPOS>BOND
     1    28    29    1
     2    29    24    1
     3    24    25    2
     4    24    26   am
     5    23    26    1
     6    23     1    1
     7     1     2    2
     8     1     3   am
     9     3     4    1
    10     4     5    1
    11     5     6    1
    12     6     7    1
    13     7     8    1
    14     8     9   ar
    15     9    10   ar
    16    10    11   ar
    17    11    14    1
    18    14    15   ar
    19    15    16   ar
    20    16    17   ar
    21    17    20    1
    22    20    21    2
    23    21    22    2
    24    17    18   ar
    25    18    19   ar
    26    11    12   ar
    27    23    30    1
    28    30    31    1
    29    30    32    1
    30     7     3    1
    31    12     8   ar
    32    19    14   ar
    33    26    27    1
    34    12    13    1
@<TRIPOS>MOLECULE
*****
 32 34 0 0 0
SMALL
GASTEIGER

@<TRIPOS>ATOM
      1 C           4.7579   -1.1243   20.5716 C.2     1  UNL1        0.2439
      2 O           5.6967   -0.9557   21.7291 O.2     1  UNL1       -0.2731
      3 N           4.2955   -2.4948   20.1743 N.am    1  UNL1       -0.2730
      4 C           3.3626   -2.8177   19.0449 C.3     1  UNL1        0.0939
      5 C           3.1754   -4.3055   19.0092 C.3     1  UNL1        0.0237
      6 C           3.9926   -4.9022   20.1165 C.3     1  UNL1        0.0293
      7 C           4.6848   -3.7831   20.8365 C.3     1  UNL1        0.1319
      8 C           5.6049   -3.9271   22.0124 C.ar    1  UNL1        0.1353
      9 N           7.0588   -4.2918   21.9549 N.ar    1  UNL1       -0.2279
     10 C           7.5851   -4.3217   23.3592 C.ar    1  UNL1        0.1171
     11 C           6.4565   -3.9755   24.2846 C.ar    1  UNL1        0.0769
     12 N           5.2327   -3.7316   23.4523 N.ar    1  UNL1       -0.3394
     13 H           4.3416   -3.4863   23.7915 H       1  UNL1        0.1671
     14 C           6.5375   -3.8885   25.7800 C.ar    1  UNL1        0.0173
     15 C           6.2053   -2.6017   26.4754 C.ar    1  UNL1        0.0032
     16 C           6.2863   -2.5147   27.9707 C.ar    1  UNL1        0.0262
     17 C           6.6995   -3.7145   28.7705 C.ar    1  UNL1        0.1641
     18 C           7.0316   -5.0014   28.0750 C.ar    1  UNL1        0.0262
     19 C           6.9506   -5.0883   26.5798 C.ar    1  UNL1        0.0032
     20 N           6.7804   -3.6275   30.2658 N.2     1  UNL1        0.1168
     21 N           6.7920   -4.8804   31.0905 N.2     1  UNL1       -0.0090
     22 N           6.8036   -6.1333   31.9152 N.2     1  UNL1       -0.3278
     23 C           4.2813    0.0777   19.8112 C.3     1  UNL1        0.1512
     24 C           5.7738    0.5162   17.7303 C.2     1  UNL1        0.4021
     25 O           5.2984   -0.7683   17.1186 O.2     1  UNL1       -0.2264
     26 N           5.2652    0.9392   19.0765 N.am    1  UNL1       -0.2640
     27 H           5.5772    1.7822   19.4780 H       1  UNL1        0.1532
     28 C           8.1873    1.4349   17.4463 C.3     1  UNL1        0.2573
     29 O           6.7577    1.3777   16.9957 O.3     1  UNL1       -0.4306
     30 C           2.8207    0.4182   19.7855 C.3     1  UNL1        0.0270
     31 C           1.9719    0.1730   20.9977 C.3     1  UNL1        0.0022
     32 C           2.2087    1.0040   18.5475 C.3     1  UNL1        0.0022
@<TRIPOS>UNITY_ATOM_ATTR
21 1
charge 1
22 1
charge -1
@<TRIPOS>BOND
     1    28    29    1
     2    29    24    1
     3    24    25    2
     4    24    26   am
     5    23    26    1
     6    23     1    1
     7     1     2    2
     8     1     3   am
     9     3     4    1
    10     4     5    1
    11     5     6    1
    12     6     7    1
    13     7     8    1
    14     8     9   ar
    15     9    10   ar
    16    10    11   ar
    17    11    14    1
    18    14    15   ar
    19    15    16   ar
    20    16    17   ar
    21    17    20    1
    22    20    21    2
    23    21    22    2
    24    17    18   ar
    25    18    19   ar
    26    11    12   ar
    27    23    30    1
    28    30    31    1
    29    30    32    1
    30     7     3    1
    31    12     8   ar
    32    19    14   ar
    33    26    27    1
    34    12    13    1
