@<TRIPOS>MOLECULE
*****
 47 52 0 0 0
SMALL
GASTEIGER

@<TRIPOS>ATOM
      1 C           4.3845   -1.6730   24.3433 C.ar    1  UNL1        0.0830
      2 C           5.5804   -2.2010   25.0788 C.ar    1  UNL1        0.0208
      3 C           5.7944   -1.8406   26.5190 C.ar    1  UNL1        0.0238
      4 C           4.8125   -0.9522   27.2237 C.ar    1  UNL1        0.1173
      5 N           4.7604   -0.4297   28.6288 N.ar    1  UNL1       -0.2248
      6 C           3.5323    0.4212   28.7617 C.ar    1  UNL1        0.1515
      7 N           2.8253    0.4246   27.4387 N.ar    1  UNL1       -0.2754
      8 C           3.6166   -0.4243   26.4882 C.ar    1  UNL1        0.1665
      9 N           3.4026   -0.7847   25.0480 N.ar    1  UNL1       -0.2264
     10 C           3.0888    1.1422   30.0001 C.ar    1  UNL1        0.0657
     11 C           2.7295    2.5970   29.9329 C.ar    1  UNL1        0.0074
     12 C           2.2861    3.3179   31.1713 C.ar    1  UNL1        0.0209
     13 C           2.2021    2.5841   32.4768 C.ar    1  UNL1        0.1003
     14 N           2.5615    1.1294   32.5440 N.ar    1  UNL1       -0.2295
     15 C           3.0048    0.4084   31.3057 C.ar    1  UNL1        0.1282
     16 N           3.3643   -1.0464   31.3728 N.pl3   1  UNL1       -0.3425
     17 H           3.3091   -1.5280   32.2297 H       1  UNL1        0.1437
     18 H           3.6553   -1.5195   30.5600 H       1  UNL1        0.1437
     19 C           3.4678   -1.3572   20.4949 C.ar    1  UNL1        0.0503
     20 C           3.7425   -2.7542   20.0225 C.ar    1  UNL1        0.0147
     21 C           4.2311   -3.7908   20.9903 C.ar    1  UNL1        0.0013
     22 C           4.4451   -3.4304   22.4306 C.ar    1  UNL1        0.0016
     23 C           4.1705   -2.0335   22.9030 C.ar    1  UNL1        0.0189
     24 C           3.6819   -0.9969   21.9351 C.ar    1  UNL1        0.0162
     25 C           1.0337    1.0700   18.5116 C.3     1  UNL1        0.0949
     26 C           1.5223    0.0334   19.4794 C.2     1  UNL1        0.2266
     27 O           0.5542   -0.6490   20.3997 O.2     1  UNL1       -0.2748
     28 N           2.9792   -0.3207   19.5270 N.am    1  UNL1       -0.2839
     29 H           3.6147    0.1273   18.9230 H       1  UNL1        0.1549
     30 C           1.5509    1.1494   27.1218 C.ar    1  UNL1        0.0667
     31 C           1.5511    2.2619   26.1156 C.ar    1  UNL1        0.0173
     32 C           0.2767    2.9868   25.7987 C.ar    1  UNL1       -0.0011
     33 C          -0.9979    2.5993   26.4880 C.ar    1  UNL1       -0.0025
     34 C          -0.9981    1.4868   27.4942 C.ar    1  UNL1       -0.0011
     35 C           0.2763    0.7619   27.8111 C.ar    1  UNL1        0.0173
     36 C          -2.2723    3.3242   26.1711 C.3     1  UNL1        0.1166
     37 N          -2.7217    3.4634   24.7468 N.am    1  UNL1       -0.2969
     38 C          -4.1848    3.5479   24.4269 C.2     1  UNL1        0.2462
     39 O          -5.1984    3.4932   25.5312 O.2     1  UNL1       -0.2701
     40 H          -2.0565    3.4993   24.0220 H       1  UNL1        0.1501
     41 C          -4.6342    3.6872   23.0026 C.ar    1  UNL1        0.0556
     42 C          -6.0561    4.0549   22.6974 C.ar    1  UNL1        0.0047
     43 C          -6.5056    4.1941   21.2731 C.ar    1  UNL1        0.0025
     44 C          -5.5332    3.9657   20.1541 C.ar    1  UNL1        0.0296
     45 C          -4.1113    3.5980   20.4592 C.ar    1  UNL1        0.1403
     46 F          -3.1390    3.3695   19.3402 F       1  UNL1       -0.2042
     47 C          -3.6618    3.4587   21.8835 C.ar    1  UNL1        0.0341
@<TRIPOS>BOND
     1    25    26    1
     2    26    27    2
     3    26    28   am
     4    28    19    1
     5    19    20   ar
     6    20    21   ar
     7    21    22   ar
     8    22    23   ar
     9    23     1    1
    10     1     2   ar
    11     2     3   ar
    12     3     4   ar
    13     4     5   ar
    14     5     6   ar
    15     6    10    1
    16    10    11   ar
    17    11    12   ar
    18    12    13   ar
    19    13    14   ar
    20    14    15   ar
    21    15    16    1
    22     6     7   ar
    23     7    30    1
    24    30    31   ar
    25    31    32   ar
    26    32    33   ar
    27    33    36    1
    28    36    37    1
    29    37    38   am
    30    38    39    2
    31    38    41    1
    32    41    42   ar
    33    42    43   ar
    34    43    44   ar
    35    44    45   ar
    36    45    46    1
    37    45    47   ar
    38    33    34   ar
    39    34    35   ar
    40     7     8   ar
    41     8     9   ar
    42    23    24   ar
    43    24    19   ar
    44     9     1   ar
    45     8     4   ar
    46    15    10   ar
    47    35    30   ar
    48    47    41   ar
    49    28    29    1
    50    16    17    1
    51    16    18    1
    52    37    40    1
@<TRIPOS>MOLECULE
*****
 47 52 0 0 0
SMALL
GASTEIGER

@<TRIPOS>ATOM
      1 C           2.2000    0.5399   21.6725 C.ar    1  UNL1        0.0830
      2 C           0.8889    1.2609   21.5671 C.ar    1  UNL1        0.0208
      3 C           0.1921    1.7354   22.8077 C.ar    1  UNL1        0.0238
      4 C           0.8064    1.4890   24.1538 C.ar    1  UNL1        0.1173
      5 N           0.3559    1.8371   25.5416 N.ar    1  UNL1       -0.2248
      6 C           1.3886    1.3312   26.5047 C.ar    1  UNL1        0.1515
      7 N           2.4773    0.6705   25.7121 N.ar    1  UNL1       -0.2754
      8 C           2.1175    0.7680   24.2592 C.ar    1  UNL1        0.1665
      9 N           2.8143    0.2934   23.0186 N.ar    1  UNL1       -0.2264
     10 C           1.3410    1.4629   27.9982 C.ar    1  UNL1        0.0657
     11 C           2.2867    2.3921   28.6997 C.ar    1  UNL1        0.0074
     12 C           2.2391    2.5238   30.1931 C.ar    1  UNL1        0.0209
     13 C           1.2458    1.7262   30.9850 C.ar    1  UNL1        0.1003
     14 N           0.3000    0.7970   30.2836 N.ar    1  UNL1       -0.2295
     15 C           0.3477    0.6653   28.7901 C.ar    1  UNL1        0.1282
     16 N          -0.5981   -0.2639   28.0886 N.pl3   1  UNL1       -0.3425
     17 H          -1.2500   -0.7874   28.6083 H       1  UNL1        0.1437
     18 H          -0.5668   -0.3503   27.1084 H       1  UNL1        0.1437
     19 C           3.6326   -1.8732   18.8663 C.ar    1  UNL1        0.0503
     20 C           4.2905   -0.8839   17.9505 C.ar    1  UNL1        0.0147
     21 C           4.2515    0.5799   18.2754 C.ar    1  UNL1        0.0013
     22 C           3.5546    1.0545   19.5161 C.ar    1  UNL1        0.0016
     23 C           2.8968    0.0653   20.4318 C.ar    1  UNL1        0.0189
     24 C           2.9358   -1.3986   20.1069 C.ar    1  UNL1        0.0162
     25 C           4.7934   -5.6675   18.7882 C.3     1  UNL1        0.0949
     26 C           4.7544   -4.2036   19.1131 C.2     1  UNL1        0.2266
     27 O           5.7982   -3.6063   20.0095 O.2     1  UNL1       -0.2748
     28 N           3.6716   -3.3371   18.5414 N.am    1  UNL1       -0.2839
     29 H           2.9865   -3.7292   17.9531 H       1  UNL1        0.1549
     30 C           3.7096    0.0255   26.2739 C.ar    1  UNL1        0.0667
     31 C           3.6100   -1.2946   26.9791 C.ar    1  UNL1        0.0173
     32 C           4.8423   -1.9397   27.5409 C.ar    1  UNL1       -0.0011
     33 C           6.1741   -1.2647   27.3973 C.ar    1  UNL1       -0.0025
     34 C           6.2736    0.0555   26.6921 C.ar    1  UNL1       -0.0011
     35 C           5.0414    0.7005   26.1303 C.ar    1  UNL1        0.0173
     36 C           7.4063   -1.9097   27.9591 C.3     1  UNL1        0.1166
     37 N           7.8392   -3.2579   27.4641 N.am    1  UNL1       -0.2969
     38 C           7.3847   -4.4988   28.1738 C.2     1  UNL1        0.2462
     39 O           6.4973   -4.3914   29.3783 O.2     1  UNL1       -0.2701
     40 H           8.4216   -3.3283   26.6735 H       1  UNL1        0.1501
     41 C           7.8176   -5.8470   27.6788 C.ar    1  UNL1        0.0556
     42 C           8.3989   -6.8458   28.6352 C.ar    1  UNL1        0.0047
     43 C           8.8318   -8.1940   28.1403 C.ar    1  UNL1        0.0025
     44 C           8.6834   -8.5434   26.6891 C.ar    1  UNL1        0.0296
     45 C           8.1020   -7.5446   25.7328 C.ar    1  UNL1        0.1403
     46 F           7.9536   -7.8940   24.2817 F       1  UNL1       -0.2042
     47 C           7.6691   -6.1964   26.2277 C.ar    1  UNL1        0.0341
@<TRIPOS>BOND
     1    25    26    1
     2    26    27    2
     3    26    28   am
     4    28    19    1
     5    19    20   ar
     6    20    21   ar
     7    21    22   ar
     8    22    23   ar
     9    23     1    1
    10     1     2   ar
    11     2     3   ar
    12     3     4   ar
    13     4     5   ar
    14     5     6   ar
    15     6    10    1
    16    10    11   ar
    17    11    12   ar
    18    12    13   ar
    19    13    14   ar
    20    14    15   ar
    21    15    16    1
    22     6     7   ar
    23     7    30    1
    24    30    31   ar
    25    31    32   ar
    26    32    33   ar
    27    33    36    1
    28    36    37    1
    29    37    38   am
    30    38    39    2
    31    38    41    1
    32    41    42   ar
    33    42    43   ar
    34    43    44   ar
    35    44    45   ar
    36    45    46    1
    37    45    47   ar
    38    33    34   ar
    39    34    35   ar
    40     7     8   ar
    41     8     9   ar
    42    23    24   ar
    43    24    19   ar
    44     9     1   ar
    45     8     4   ar
    46    15    10   ar
    47    35    30   ar
    48    47    41   ar
    49    28    29    1
    50    16    17    1
    51    16    18    1
    52    37    40    1
@<TRIPOS>MOLECULE
*****
 47 52 0 0 0
SMALL
GASTEIGER

@<TRIPOS>ATOM
      1 C           1.1406    2.0478   19.9013 C.ar    1  UNL1        0.0830
      2 C           0.0690    2.5819   18.9978 C.ar    1  UNL1        0.0208
      3 C          -1.1759    3.1801   19.5829 C.ar    1  UNL1        0.0238
      4 C          -1.3492    3.2441   21.0714 C.ar    1  UNL1        0.1173
      5 N          -2.4592    3.7727   21.9308 N.ar    1  UNL1       -0.2248
      6 C          -2.0736    3.5653   23.3655 C.ar    1  UNL1        0.1515
      7 N          -0.7253    2.9084   23.3927 N.ar    1  UNL1       -0.2754
      8 C          -0.2777    2.7099   21.9750 C.ar    1  UNL1        0.1665
      9 N           0.9673    2.1118   21.3899 N.ar    1  UNL1       -0.2264
     10 C          -2.8925    3.9476   24.5628 C.ar    1  UNL1        0.0657
     11 C          -2.2640    4.7169   25.6866 C.ar    1  UNL1        0.0074
     12 C          -3.0829    5.0991   26.8838 C.ar    1  UNL1        0.0209
     13 C          -4.5302    4.7121   26.9571 C.ar    1  UNL1        0.1003
     14 N          -5.1587    3.9428   25.8332 N.ar    1  UNL1       -0.2295
     15 C          -4.3399    3.5606   24.6361 C.ar    1  UNL1        0.1282
     16 N          -4.9683    2.7913   23.5121 N.pl3   1  UNL1       -0.3425
     17 H          -5.9183    2.5372   23.5602 H       1  UNL1        0.1437
     18 H          -4.4309    2.5404   22.7263 H       1  UNL1        0.1437
     19 C           3.6871   -0.6169   18.4300 C.ar    1  UNL1        0.0503
     20 C           4.8756    0.2532   18.1462 C.ar    1  UNL1        0.0147
     21 C           4.8190    1.7216   18.4475 C.ar    1  UNL1        0.0013
     22 C           3.5740    2.3197   19.0326 C.ar    1  UNL1        0.0016
     23 C           2.3856    1.4496   19.3163 C.ar    1  UNL1        0.0189
     24 C           2.4422   -0.0187   19.0150 C.ar    1  UNL1        0.0162
     25 C           4.0925   -4.5337   18.9247 C.3     1  UNL1        0.0949
     26 C           4.0360   -3.0654   19.2260 C.2     1  UNL1        0.2266
     27 O           4.2718   -2.5771   20.6245 O.2     1  UNL1       -0.2748
     28 N           3.7436   -2.0853   18.1287 N.am    1  UNL1       -0.2839
     29 H           3.5888   -2.4057   17.2107 H       1  UNL1        0.1549
     30 C           0.0408    2.5186   24.6220 C.ar    1  UNL1        0.0667
     31 C           1.3532    3.1772   24.9281 C.ar    1  UNL1        0.0173
     32 C           2.1193    2.7873   26.1573 C.ar    1  UNL1       -0.0011
     33 C           1.5731    1.7388   27.0805 C.ar    1  UNL1       -0.0025
     34 C           0.2606    1.0802   26.7744 C.ar    1  UNL1       -0.0011
     35 C          -0.5055    1.4701   25.5452 C.ar    1  UNL1        0.0173
     36 C           2.3392    1.3489   28.3098 C.3     1  UNL1        0.1166
     37 N           2.2833    2.2137   29.5341 N.am    1  UNL1       -0.2969
     38 C           1.2107    1.9938   30.5593 C.2     1  UNL1        0.2462
     39 O           0.1940    0.9091   30.3602 O.2     1  UNL1       -0.2701
     40 H           2.9506    2.9257   29.6648 H       1  UNL1        0.1501
     41 C           1.1547    2.8586   31.7837 C.ar    1  UNL1        0.0556
     42 C           0.3876    4.1474   31.7571 C.ar    1  UNL1        0.0047
     43 C           0.3317    5.0121   32.9815 C.ar    1  UNL1        0.0025
     44 C           1.0428    4.5882   34.2323 C.ar    1  UNL1        0.0296
     45 C           1.8099    3.2995   34.2588 C.ar    1  UNL1        0.1403
     46 F           2.5211    2.8756   35.5096 F       1  UNL1       -0.2042
     47 C           1.8659    2.4346   33.0345 C.ar    1  UNL1        0.0341
@<TRIPOS>BOND
     1    25    26    1
     2    26    27    2
     3    26    28   am
     4    28    19    1
     5    19    20   ar
     6    20    21   ar
     7    21    22   ar
     8    22    23   ar
     9    23     1    1
    10     1     2   ar
    11     2     3   ar
    12     3     4   ar
    13     4     5   ar
    14     5     6   ar
    15     6    10    1
    16    10    11   ar
    17    11    12   ar
    18    12    13   ar
    19    13    14   ar
    20    14    15   ar
    21    15    16    1
    22     6     7   ar
    23     7    30    1
    24    30    31   ar
    25    31    32   ar
    26    32    33   ar
    27    33    36    1
    28    36    37    1
    29    37    38   am
    30    38    39    2
    31    38    41    1
    32    41    42   ar
    33    42    43   ar
    34    43    44   ar
    35    44    45   ar
    36    45    46    1
    37    45    47   ar
    38    33    34   ar
    39    34    35   ar
    40     7     8   ar
    41     8     9   ar
    42    23    24   ar
    43    24    19   ar
    44     9     1   ar
    45     8     4   ar
    46    15    10   ar
    47    35    30   ar
    48    47    41   ar
    49    28    29    1
    50    16    17    1
    51    16    18    1
    52    37    40    1
@<TRIPOS>MOLECULE
*****
 47 52 0 0 0
SMALL
GASTEIGER

@<TRIPOS>ATOM
      1 C           7.9931   -5.6555   23.7233 C.ar    1  UNL1        0.0830
      2 C           8.9212   -6.1074   22.6350 C.ar    1  UNL1        0.0208
      3 C           8.9092   -5.4160   21.3040 C.ar    1  UNL1        0.0238
      4 C           7.9691   -4.2727   21.0611 C.ar    1  UNL1        0.1173
      5 N           7.7331   -3.4048   19.8606 N.ar    1  UNL1       -0.2248
      6 C           6.6591   -2.4166   20.2069 C.ar    1  UNL1        0.1515
      7 N           6.2314   -2.6737   21.6214 N.ar    1  UNL1       -0.2754
      8 C           7.0410   -3.8207   22.1494 C.ar    1  UNL1        0.1665
      9 N           7.0530   -4.5122   23.4804 N.ar    1  UNL1       -0.2264
     10 C           6.1094   -1.3573   19.2982 C.ar    1  UNL1        0.0657
     11 C           6.4085    0.0883   19.5643 C.ar    1  UNL1        0.0074
     12 C           5.8588    1.1475   18.6556 C.ar    1  UNL1        0.0209
     13 C           5.0099    0.7612   17.4808 C.ar    1  UNL1        0.1003
     14 N           4.7108   -0.6843   17.2147 N.ar    1  UNL1       -0.2295
     15 C           5.2605   -1.7436   18.1234 C.ar    1  UNL1        0.1282
     16 N           4.9614   -3.1892   17.8572 N.pl3   1  UNL1       -0.3425
     17 H           4.4043   -3.4428   17.0862 H       1  UNL1        0.1437
     18 H           5.3222   -3.8844   18.4537 H       1  UNL1        0.1437
     19 C           7.3279   -6.4126   27.5618 C.ar    1  UNL1        0.0503
     20 C           8.0290   -7.7297   27.7166 C.ar    1  UNL1        0.0147
     21 C           8.7181   -8.3553   26.5403 C.ar    1  UNL1        0.0013
     22 C           8.7062   -7.6639   25.2092 C.ar    1  UNL1        0.0016
     23 C           8.0051   -6.3469   25.0544 C.ar    1  UNL1        0.0189
     24 C           7.3159   -5.7213   26.2307 C.ar    1  UNL1        0.0162
     25 C           6.7417   -4.3756   30.9169 C.3     1  UNL1        0.0949
     26 C           7.4309   -5.0012   29.7406 C.2     1  UNL1        0.2266
     27 O           8.9121   -4.8410   29.5668 O.2     1  UNL1       -0.2748
     28 N           6.6387   -5.7870   28.7381 N.am    1  UNL1       -0.2839
     29 H           5.6665   -5.8922   28.8521 H       1  UNL1        0.1549
     30 C           5.1788   -1.9166   22.3757 C.ar    1  UNL1        0.0667
     31 C           5.4672   -1.4046   23.7558 C.ar    1  UNL1        0.0173
     32 C           4.4146   -0.6475   24.5100 C.ar    1  UNL1       -0.0011
     33 C           3.0737   -0.4023   23.8842 C.ar    1  UNL1       -0.0025
     34 C           2.7853   -0.9142   22.5040 C.ar    1  UNL1       -0.0011
     35 C           3.8379   -1.6713   21.7498 C.ar    1  UNL1        0.0173
     36 C           2.0211    0.3548   24.6384 C.3     1  UNL1        0.1166
     37 N           2.1660    0.5706   26.1157 N.am    1  UNL1       -0.2969
     38 C           1.0002    1.0657   26.9193 C.2     1  UNL1        0.2462
     39 O          -0.3105    1.3451   26.2456 O.2     1  UNL1       -0.2701
     40 H           3.0263    0.3872   26.5579 H       1  UNL1        0.1501
     41 C           1.1452    1.2815   28.3966 C.ar    1  UNL1        0.0556
     42 C           0.5407    2.4941   29.0403 C.ar    1  UNL1        0.0047
     43 C           0.6856    2.7099   30.5176 C.ar    1  UNL1        0.0025
     44 C           1.4350    1.7131   31.3512 C.ar    1  UNL1        0.0296
     45 C           2.0394    0.5005   30.7075 C.ar    1  UNL1        0.1403
     46 F           2.7888   -0.4962   31.5411 F       1  UNL1       -0.2042
     47 C           1.8945    0.2847   29.2302 C.ar    1  UNL1        0.0341
@<TRIPOS>BOND
     1    25    26    1
     2    26    27    2
     3    26    28   am
     4    28    19    1
     5    19    20   ar
     6    20    21   ar
     7    21    22   ar
     8    22    23   ar
     9    23     1    1
    10     1     2   ar
    11     2     3   ar
    12     3     4   ar
    13     4     5   ar
    14     5     6   ar
    15     6    10    1
    16    10    11   ar
    17    11    12   ar
    18    12    13   ar
    19    13    14   ar
    20    14    15   ar
    21    15    16    1
    22     6     7   ar
    23     7    30    1
    24    30    31   ar
    25    31    32   ar
    26    32    33   ar
    27    33    36    1
    28    36    37    1
    29    37    38   am
    30    38    39    2
    31    38    41    1
    32    41    42   ar
    33    42    43   ar
    34    43    44   ar
    35    44    45   ar
    36    45    46    1
    37    45    47   ar
    38    33    34   ar
    39    34    35   ar
    40     7     8   ar
    41     8     9   ar
    42    23    24   ar
    43    24    19   ar
    44     9     1   ar
    45     8     4   ar
    46    15    10   ar
    47    35    30   ar
    48    47    41   ar
    49    28    29    1
    50    16    17    1
    51    16    18    1
    52    37    40    1
@<TRIPOS>MOLECULE
*****
 47 52 0 0 0
SMALL
GASTEIGER

@<TRIPOS>ATOM
      1 C          -4.8053    3.8993   22.2824 C.ar    1  UNL1        0.0830
      2 C          -5.8421    4.1254   23.3425 C.ar    1  UNL1        0.0208
      3 C          -5.4671    4.0263   24.7915 C.ar    1  UNL1        0.0238
      4 C          -4.0553    3.7011   25.1803 C.ar    1  UNL1        0.1173
      5 N          -3.3946    3.5379   26.5171 N.ar    1  UNL1       -0.2248
      6 C          -1.9495    3.2110   26.2830 C.ar    1  UNL1        0.1515
      7 N          -1.7171    3.1721   24.8016 N.ar    1  UNL1       -0.2754
      8 C          -3.0186    3.4750   24.1201 C.ar    1  UNL1        0.1665
      9 N          -3.3936    3.5741   22.6712 N.ar    1  UNL1       -0.2264
     10 C          -0.9179    2.9660   27.3441 C.ar    1  UNL1        0.0657
     11 C          -0.6853    1.5759   27.8573 C.ar    1  UNL1        0.0074
     12 C           0.3462    1.3310   28.9183 C.ar    1  UNL1        0.0209
     13 C           1.1453    2.4762   29.4661 C.ar    1  UNL1        0.1003
     14 N           0.9128    3.8663   28.9529 N.ar    1  UNL1       -0.2295
     15 C          -0.1188    4.1112   27.8919 C.ar    1  UNL1        0.1282
     16 N          -0.3514    5.5014   27.3786 N.pl3   1  UNL1       -0.3425
     17 H           0.1730    6.2530   27.7381 H       1  UNL1        0.1437
     18 H          -1.0285    5.6621   26.6822 H       1  UNL1        0.1437
     19 C          -6.9632    4.4390   18.9957 C.ar    1  UNL1        0.0503
     20 C          -5.9303    4.1967   17.9353 C.ar    1  UNL1        0.0147
     21 C          -4.5223    3.8552   18.3240 C.ar    1  UNL1        0.0013
     22 C          -4.1473    3.7561   19.7730 C.ar    1  UNL1        0.0016
     23 C          -5.1803    3.9984   20.8333 C.ar    1  UNL1        0.0189
     24 C          -6.5882    4.3399   20.4446 C.ar    1  UNL1        0.0162
     25 C         -10.2313    6.5523   18.2183 C.3     1  UNL1        0.0949
     26 C          -8.8233    6.2108   18.6069 C.2     1  UNL1        0.2266
     27 O          -7.8675    7.2995   18.9955 O.2     1  UNL1       -0.2748
     28 N          -8.3712    4.7805   18.6070 N.am    1  UNL1       -0.2839
     29 H          -8.9985    4.0659   18.3520 H       1  UNL1        0.1549
     30 C          -0.4123    2.8814   24.1212 C.ar    1  UNL1        0.0667
     31 C           0.2780    3.9548   23.3330 C.ar    1  UNL1        0.0173
     32 C           1.5828    3.6640   22.6525 C.ar    1  UNL1       -0.0011
     33 C           2.1973    2.3000   22.7603 C.ar    1  UNL1       -0.0025
     34 C           1.5070    1.2266   23.5486 C.ar    1  UNL1       -0.0011
     35 C           0.2022    1.5173   24.2290 C.ar    1  UNL1        0.0173
     36 C           3.5021    2.0092   22.0799 C.3     1  UNL1        0.1166
     37 N           3.8862    0.5932   21.7682 N.am    1  UNL1       -0.2969
     38 C           3.8231    0.0925   20.3556 C.2     1  UNL1        0.2462
     39 O           3.3758    1.0080   19.2547 O.2     1  UNL1       -0.2701
     40 H           4.1798   -0.0077   22.4907 H       1  UNL1        0.1501
     41 C           4.2072   -1.3236   20.0439 C.ar    1  UNL1        0.0556
     42 C           5.6465   -1.7415   20.1073 C.ar    1  UNL1        0.0047
     43 C           6.0306   -3.1576   19.7956 C.ar    1  UNL1        0.0025
     44 C           4.9756   -4.1556   19.4204 C.ar    1  UNL1        0.0296
     45 C           3.5364   -3.7377   19.3570 C.ar    1  UNL1        0.1403
     46 F           2.4814   -4.7358   18.9819 F       1  UNL1       -0.2042
     47 C           3.1522   -2.3216   19.6687 C.ar    1  UNL1        0.0341
@<TRIPOS>BOND
     1    25    26    1
     2    26    27    2
     3    26    28   am
     4    28    19    1
     5    19    20   ar
     6    20    21   ar
     7    21    22   ar
     8    22    23   ar
     9    23     1    1
    10     1     2   ar
    11     2     3   ar
    12     3     4   ar
    13     4     5   ar
    14     5     6   ar
    15     6    10    1
    16    10    11   ar
    17    11    12   ar
    18    12    13   ar
    19    13    14   ar
    20    14    15   ar
    21    15    16    1
    22     6     7   ar
    23     7    30    1
    24    30    31   ar
    25    31    32   ar
    26    32    33   ar
    27    33    36    1
    28    36    37    1
    29    37    38   am
    30    38    39    2
    31    38    41    1
    32    41    42   ar
    33    42    43   ar
    34    43    44   ar
    35    44    45   ar
    36    45    46    1
    37    45    47   ar
    38    33    34   ar
    39    34    35   ar
    40     7     8   ar
    41     8     9   ar
    42    23    24   ar
    43    24    19   ar
    44     9     1   ar
    45     8     4   ar
    46    15    10   ar
    47    35    30   ar
    48    47    41   ar
    49    28    29    1
    50    16    17    1
    51    16    18    1
    52    37    40    1
@<TRIPOS>MOLECULE
*****
 47 52 0 0 0
SMALL
GASTEIGER

@<TRIPOS>ATOM
      1 C          -4.4602    4.0565   23.6961 C.ar    1  UNL1        0.0830
      2 C          -5.0869    4.1638   25.0547 C.ar    1  UNL1        0.0208
      3 C          -4.2734    3.8729   26.2809 C.ar    1  UNL1        0.0238
      4 C          -2.8333    3.4747   26.1486 C.ar    1  UNL1        0.1173
      5 N          -1.7896    3.1294   27.1691 N.ar    1  UNL1       -0.2248
      6 C          -0.5178    2.8088   26.4412 C.ar    1  UNL1        0.1515
      7 N          -0.7756    2.9559   24.9709 N.ar    1  UNL1       -0.2754
      8 C          -2.2066    3.3674   24.7900 C.ar    1  UNL1        0.1665
      9 N          -3.0201    3.6583   23.5638 N.ar    1  UNL1       -0.2264
     10 C           0.7833    2.4109   27.0728 C.ar    1  UNL1        0.0657
     11 C           1.9595    3.3400   27.0163 C.ar    1  UNL1        0.0074
     12 C           3.2606    2.9422   27.6478 C.ar    1  UNL1        0.0209
     13 C           3.3854    1.6152   28.3359 C.ar    1  UNL1        0.1003
     14 N           2.2092    0.6861   28.3925 N.ar    1  UNL1       -0.2295
     15 C           0.9082    1.0839   27.7609 C.ar    1  UNL1        0.1282
     16 N          -0.2681    0.1548   27.8175 N.pl3   1  UNL1       -0.3425
     17 H          -0.1862   -0.7161   28.2691 H       1  UNL1        0.1437
     18 H          -1.1221    0.4160   27.4030 H       1  UNL1        0.1437
     19 C          -5.7077    4.0238   19.9288 C.ar    1  UNL1        0.0503
     20 C          -6.9004    4.9291   20.0172 C.ar    1  UNL1        0.0147
     21 C          -7.2797    5.5436   21.3320 C.ar    1  UNL1        0.0013
     22 C          -6.4663    5.2527   22.5583 C.ar    1  UNL1        0.0016
     23 C          -5.2736    4.3474   22.4698 C.ar    1  UNL1        0.0189
     24 C          -4.8943    3.7329   21.1551 C.ar    1  UNL1        0.0162
     25 C          -3.9620    3.4855   16.4056 C.3     1  UNL1        0.0949
     26 C          -4.3413    4.1000   17.7203 C.2     1  UNL1        0.2266
     27 O          -3.7336    5.4051   18.1414 O.2     1  UNL1       -0.2748
     28 N          -5.3284    3.4093   18.6140 N.am    1  UNL1       -0.2839
     29 H          -5.7273    2.5527   18.3377 H       1  UNL1        0.1549
     30 C           0.2224    2.7309   23.8740 C.ar    1  UNL1        0.0667
     31 C           0.8815    3.9022   23.2078 C.ar    1  UNL1        0.0173
     32 C           1.8796    3.6772   22.1109 C.ar    1  UNL1       -0.0011
     33 C           2.2186    2.2810   21.6800 C.ar    1  UNL1       -0.0025
     34 C           1.5595    1.1097   22.3462 C.ar    1  UNL1       -0.0011
     35 C           0.5615    1.3347   23.4431 C.ar    1  UNL1        0.0173
     36 C           3.2167    2.0560   20.5831 C.3     1  UNL1        0.1166
     37 N           3.8014    0.6913   20.3694 N.am    1  UNL1       -0.2969
     38 C           3.2832   -0.1823   19.2657 C.2     1  UNL1        0.2462
     39 O           2.1802    0.3088   18.3757 O.2     1  UNL1       -0.2701
     40 H           4.5254    0.3690   20.9536 H       1  UNL1        0.1501
     41 C           3.8680   -1.5470   19.0521 C.ar    1  UNL1        0.0556
     42 C           5.2050   -1.6944   18.3881 C.ar    1  UNL1        0.0047
     43 C           5.7897   -3.0591   18.1744 C.ar    1  UNL1        0.0025
     44 C           5.0376   -4.2763   18.6247 C.ar    1  UNL1        0.0296
     45 C           3.7006   -4.1289   19.2886 C.ar    1  UNL1        0.1403
     46 F           2.9485   -5.3460   19.7389 F       1  UNL1       -0.2042
     47 C           3.1158   -2.7642   19.5023 C.ar    1  UNL1        0.0341
@<TRIPOS>BOND
     1    25    26    1
     2    26    27    2
     3    26    28   am
     4    28    19    1
     5    19    20   ar
     6    20    21   ar
     7    21    22   ar
     8    22    23   ar
     9    23     1    1
    10     1     2   ar
    11     2     3   ar
    12     3     4   ar
    13     4     5   ar
    14     5     6   ar
    15     6    10    1
    16    10    11   ar
    17    11    12   ar
    18    12    13   ar
    19    13    14   ar
    20    14    15   ar
    21    15    16    1
    22     6     7   ar
    23     7    30    1
    24    30    31   ar
    25    31    32   ar
    26    32    33   ar
    27    33    36    1
    28    36    37    1
    29    37    38   am
    30    38    39    2
    31    38    41    1
    32    41    42   ar
    33    42    43   ar
    34    43    44   ar
    35    44    45   ar
    36    45    46    1
    37    45    47   ar
    38    33    34   ar
    39    34    35   ar
    40     7     8   ar
    41     8     9   ar
    42    23    24   ar
    43    24    19   ar
    44     9     1   ar
    45     8     4   ar
    46    15    10   ar
    47    35    30   ar
    48    47    41   ar
    49    28    29    1
    50    16    17    1
    51    16    18    1
    52    37    40    1
@<TRIPOS>MOLECULE
*****
 47 52 0 0 0
SMALL
GASTEIGER

@<TRIPOS>ATOM
      1 C           3.5426   -0.9811   22.3166 C.ar    1  UNL1        0.0830
      2 C           4.4701   -2.0598   22.7919 C.ar    1  UNL1        0.0208
      3 C           4.7130   -2.2469   24.2602 C.ar    1  UNL1        0.0238
      4 C           4.0284   -1.3553   25.2532 C.ar    1  UNL1        0.1173
      5 N           4.0725   -1.3018   26.7517 N.ar    1  UNL1       -0.2248
      6 C           3.1722   -0.1900   27.2025 C.ar    1  UNL1        0.1515
      7 N           2.5717    0.4437   25.9827 N.ar    1  UNL1       -0.2754
      8 C           3.1008   -0.2765   24.7780 C.ar    1  UNL1        0.1665
      9 N           2.8579   -0.0894   23.3097 N.ar    1  UNL1       -0.2264
     10 C           2.9171    0.2168   28.6236 C.ar    1  UNL1        0.0657
     11 C           4.0022    0.8778   29.4208 C.ar    1  UNL1        0.0074
     12 C           3.7471    1.2846   30.8419 C.ar    1  UNL1        0.0209
     13 C           2.4069    1.0303   31.4657 C.ar    1  UNL1        0.1003
     14 N           1.3218    0.3693   30.6685 N.ar    1  UNL1       -0.2295
     15 C           1.5769   -0.0374   29.2475 C.ar    1  UNL1        0.1282
     16 N           0.4917   -0.6985   28.4502 N.pl3   1  UNL1       -0.3425
     17 H          -0.3879   -0.8653   28.8596 H       1  UNL1        0.1437
     18 H           0.6592   -0.9654   27.5175 H       1  UNL1        0.1437
     19 C           1.9154    0.2464   18.9114 C.ar    1  UNL1        0.0503
     20 C           2.8137   -0.4196   17.9116 C.ar    1  UNL1        0.0147
     21 C           3.9550   -1.2728   18.3802 C.ar    1  UNL1        0.0013
     22 C           4.1979   -1.4600   19.8486 C.ar    1  UNL1        0.0016
     23 C           3.2996   -0.7939   20.8483 C.ar    1  UNL1        0.0189
     24 C           2.1584    0.0593   20.3797 C.ar    1  UNL1        0.0162
     25 C          -0.2054    3.4418   17.8906 C.3     1  UNL1        0.0949
     26 C           0.9359    2.5886   18.3592 C.2     1  UNL1        0.2266
     27 O           2.2388    3.2243   18.7441 O.2     1  UNL1       -0.2748
     28 N           0.7741    1.0996   18.4428 N.am    1  UNL1       -0.2839
     29 H          -0.0810    0.6824   18.1901 H       1  UNL1        0.1549
     30 C           1.6107    1.5953   25.9698 C.ar    1  UNL1        0.0667
     31 C           0.1777    1.3722   25.5866 C.ar    1  UNL1        0.0173
     32 C          -0.7833    2.5239   25.5737 C.ar    1  UNL1       -0.0011
     33 C          -0.3114    3.8987   25.9441 C.ar    1  UNL1       -0.0025
     34 C           1.1216    4.1218   26.3273 C.ar    1  UNL1       -0.0011
     35 C           2.0825    2.9701   26.3402 C.ar    1  UNL1        0.0173
     36 C          -1.2724    5.0503   25.9312 C.3     1  UNL1        0.1166
     37 N          -2.4705    5.0174   25.0293 N.am    1  UNL1       -0.2969
     38 C          -3.7653    4.4433   25.5229 C.2     1  UNL1        0.2462
     39 O          -3.8621    3.9021   26.9185 O.2     1  UNL1       -0.2701
     40 H          -2.4069    5.3726   24.1133 H       1  UNL1        0.1501
     41 C          -4.9634    4.4104   24.6210 C.ar    1  UNL1        0.0556
     42 C          -4.8532    3.8135   23.2492 C.ar    1  UNL1        0.0047
     43 C          -6.0513    3.7806   22.3472 C.ar    1  UNL1        0.0025
     44 C          -7.3595    4.3444   22.8170 C.ar    1  UNL1        0.0296
     45 C          -7.4697    4.9412   24.1887 C.ar    1  UNL1        0.1403
     46 F          -8.7778    5.5051   24.6585 F       1  UNL1       -0.2042
     47 C          -6.2716    4.9742   25.0908 C.ar    1  UNL1        0.0341
@<TRIPOS>BOND
     1    25    26    1
     2    26    27    2
     3    26    28   am
     4    28    19    1
     5    19    20   ar
     6    20    21   ar
     7    21    22   ar
     8    22    23   ar
     9    23     1    1
    10     1     2   ar
    11     2     3   ar
    12     3     4   ar
    13     4     5   ar
    14     5     6   ar
    15     6    10    1
    16    10    11   ar
    17    11    12   ar
    18    12    13   ar
    19    13    14   ar
    20    14    15   ar
    21    15    16    1
    22     6     7   ar
    23     7    30    1
    24    30    31   ar
    25    31    32   ar
    26    32    33   ar
    27    33    36    1
    28    36    37    1
    29    37    38   am
    30    38    39    2
    31    38    41    1
    32    41    42   ar
    33    42    43   ar
    34    43    44   ar
    35    44    45   ar
    36    45    46    1
    37    45    47   ar
    38    33    34   ar
    39    34    35   ar
    40     7     8   ar
    41     8     9   ar
    42    23    24   ar
    43    24    19   ar
    44     9     1   ar
    45     8     4   ar
    46    15    10   ar
    47    35    30   ar
    48    47    41   ar
    49    28    29    1
    50    16    17    1
    51    16    18    1
    52    37    40    1
@<TRIPOS>MOLECULE
*****
 47 52 0 0 0
SMALL
GASTEIGER

@<TRIPOS>ATOM
      1 C           5.8076   -2.1934   31.5443 C.ar    1  UNL1        0.0830
      2 C           5.0198   -2.0095   32.8074 C.ar    1  UNL1        0.0208
      3 C           3.7770   -1.1696   32.8006 C.ar    1  UNL1        0.0238
      4 C           3.3221   -0.5136   31.5307 C.ar    1  UNL1        0.1173
      5 N           2.1464    0.3647   31.2200 N.ar    1  UNL1       -0.2248
      6 C           2.2076    0.7236   29.7649 C.ar    1  UNL1        0.1515
      7 N           3.4212    0.0671   29.1762 N.ar    1  UNL1       -0.2754
      8 C           4.1099   -0.6975   30.2676 C.ar    1  UNL1        0.1665
      9 N           5.3526   -1.5374   30.2744 N.ar    1  UNL1       -0.2264
     10 C           1.2275    1.5873   29.0277 C.ar    1  UNL1        0.0657
     11 C           1.4190    3.0745   28.9893 C.ar    1  UNL1        0.0074
     12 C           0.4388    3.9381   28.2522 C.ar    1  UNL1        0.0209
     13 C          -0.7328    3.3145   27.5534 C.ar    1  UNL1        0.1003
     14 N          -0.9244    1.8273   27.5918 N.ar    1  UNL1       -0.2295
     15 C           0.0558    0.9637   28.3289 C.ar    1  UNL1        0.1282
     16 N          -0.1357   -0.5236   28.3673 N.pl3   1  UNL1       -0.3425
     17 H          -0.9047   -0.9329   27.9086 H       1  UNL1        0.1437
     18 H           0.5076   -1.0904   28.8511 H       1  UNL1        0.1437
     19 C           8.3032   -5.2033   30.8642 C.ar    1  UNL1        0.0503
     20 C           9.5359   -4.7133   31.5646 C.ar    1  UNL1        0.0147
     21 C           9.5258   -3.3833   32.2582 C.ar    1  UNL1        0.0013
     22 C           8.2830   -2.5433   32.2514 C.ar    1  UNL1        0.0016
     23 C           7.0504   -3.0334   31.5511 C.ar    1  UNL1        0.0189
     24 C           7.0605   -4.3633   30.8575 C.ar    1  UNL1        0.0162
     25 C           8.5653   -7.9362   27.9985 C.3     1  UNL1        0.0949
     26 C           8.5552   -6.6062   28.6920 C.2     1  UNL1        0.2266
     27 O           8.7869   -5.3492   27.9071 O.2     1  UNL1       -0.2748
     28 N           8.3133   -6.5333   30.1707 N.am    1  UNL1       -0.2839
     29 H           8.1612   -7.3583   30.6859 H       1  UNL1        0.1549
     30 C           3.8676    0.1591   27.7472 C.ar    1  UNL1        0.0667
     31 C           3.4714   -0.9057   26.7677 C.ar    1  UNL1        0.0173
     32 C           3.9178   -0.8137   25.3386 C.ar    1  UNL1       -0.0011
     33 C           4.7604    0.3429   24.8890 C.ar    1  UNL1       -0.0025
     34 C           5.1565    1.4077   25.8685 C.ar    1  UNL1       -0.0011
     35 C           4.7101    1.3157   27.2975 C.ar    1  UNL1        0.0173
     36 C           5.2068    0.4349   23.4599 C.3     1  UNL1        0.1166
     37 N           5.2249   -0.7935   22.5993 N.am    1  UNL1       -0.2969
     38 C           4.6161   -0.7583   21.2289 C.2     1  UNL1        0.2462
     39 O           3.9890    0.5054   20.7191 O.2     1  UNL1       -0.2701
     40 H           5.6365   -1.6229   22.9339 H       1  UNL1        0.1501
     41 C           4.6342   -1.9867   20.3682 C.ar    1  UNL1        0.0556
     42 C           5.3945   -1.9852   19.0751 C.ar    1  UNL1        0.0047
     43 C           5.4126   -3.2137   18.2145 C.ar    1  UNL1        0.0025
     44 C           4.6706   -4.4434   18.6470 C.ar    1  UNL1        0.0296
     45 C           3.9104   -4.4449   19.9400 C.ar    1  UNL1        0.1403
     46 F           3.1684   -5.6747   20.3725 F       1  UNL1       -0.2042
     47 C           3.8922   -3.2165   20.8007 C.ar    1  UNL1        0.0341
@<TRIPOS>BOND
     1    25    26    1
     2    26    27    2
     3    26    28   am
     4    28    19    1
     5    19    20   ar
     6    20    21   ar
     7    21    22   ar
     8    22    23   ar
     9    23     1    1
    10     1     2   ar
    11     2     3   ar
    12     3     4   ar
    13     4     5   ar
    14     5     6   ar
    15     6    10    1
    16    10    11   ar
    17    11    12   ar
    18    12    13   ar
    19    13    14   ar
    20    14    15   ar
    21    15    16    1
    22     6     7   ar
    23     7    30    1
    24    30    31   ar
    25    31    32   ar
    26    32    33   ar
    27    33    36    1
    28    36    37    1
    29    37    38   am
    30    38    39    2
    31    38    41    1
    32    41    42   ar
    33    42    43   ar
    34    43    44   ar
    35    44    45   ar
    36    45    46    1
    37    45    47   ar
    38    33    34   ar
    39    34    35   ar
    40     7     8   ar
    41     8     9   ar
    42    23    24   ar
    43    24    19   ar
    44     9     1   ar
    45     8     4   ar
    46    15    10   ar
    47    35    30   ar
    48    47    41   ar
    49    28    29    1
    50    16    17    1
    51    16    18    1
    52    37    40    1
@<TRIPOS>MOLECULE
*****
 47 52 0 0 0
SMALL
GASTEIGER

@<TRIPOS>ATOM
      1 C           7.7641   -5.2384   27.3165 C.ar    1  UNL1        0.0830
      2 C           8.2474   -6.0184   28.5031 C.ar    1  UNL1        0.0208
      3 C           7.9531   -5.5315   29.8910 C.ar    1  UNL1        0.0238
      4 C           7.1755   -4.2648   30.0923 C.ar    1  UNL1        0.1173
      5 N           6.7362   -3.5429   31.3317 N.ar    1  UNL1       -0.2248
      6 C           5.9814   -2.3168   30.9111 C.ar    1  UNL1        0.1515
      7 N           5.9542   -2.2809   29.4117 N.ar    1  UNL1       -0.2754
      8 C           6.6921   -3.4848   28.9057 C.ar    1  UNL1        0.1665
      9 N           6.9865   -3.9717   27.5178 N.ar    1  UNL1       -0.2264
     10 C           5.3625   -1.3043   31.8286 C.ar    1  UNL1        0.0657
     11 C           5.5797    0.1598   31.5857 C.ar    1  UNL1        0.0074
     12 C           4.9608    1.1722   32.5032 C.ar    1  UNL1        0.0209
     13 C           4.1246    0.7205   33.6637 C.ar    1  UNL1        0.1003
     14 N           3.9074   -0.7437   33.9067 N.ar    1  UNL1       -0.2295
     15 C           4.5263   -1.7561   32.9891 C.ar    1  UNL1        0.1282
     16 N           4.3091   -3.2203   33.2321 N.pl3   1  UNL1       -0.3425
     17 H           3.7603   -3.5168   33.9937 H       1  UNL1        0.1437
     18 H           4.7153   -3.8848   32.6298 H       1  UNL1        0.1437
     19 C           8.3634   -5.2456   23.3934 C.ar    1  UNL1        0.0503
     20 C           8.6470   -6.6988   23.1526 C.ar    1  UNL1        0.0147
     21 C           8.6363   -7.6652   24.2997 C.ar    1  UNL1        0.0013
     22 C           8.3420   -7.1784   25.6877 C.ar    1  UNL1        0.0016
     23 C           8.0584   -5.7253   25.9285 C.ar    1  UNL1        0.0189
     24 C           8.0692   -4.7589   24.7813 C.ar    1  UNL1        0.0162
     25 C           7.0913   -2.8347   20.5091 C.3     1  UNL1        0.0949
     26 C           7.0806   -3.8011   21.6563 C.2     1  UNL1        0.2266
     27 O           5.7763   -4.2892   22.2135 O.2     1  UNL1       -0.2748
     28 N           8.3742   -4.2793   22.2462 N.am    1  UNL1       -0.2839
     29 H           9.2302   -3.9589   21.8805 H       1  UNL1        0.1549
     30 C           5.3032   -1.2263   28.5667 C.ar    1  UNL1        0.0667
     31 C           6.1254   -0.1084   27.9972 C.ar    1  UNL1        0.0173
     32 C           5.4745    0.9462   27.1522 C.ar    1  UNL1       -0.0011
     33 C           4.0014    0.8830   26.8766 C.ar    1  UNL1       -0.0025
     34 C           3.1792   -0.2349   27.4462 C.ar    1  UNL1       -0.0011
     35 C           3.8302   -1.2895   28.2912 C.ar    1  UNL1        0.0173
     36 C           3.3505    1.9376   26.0316 C.3     1  UNL1        0.1166
     37 N           2.5725    1.5458   24.8105 N.am    1  UNL1       -0.2969
     38 C           3.2447    0.7881   23.7041 C.2     1  UNL1        0.2462
     39 O           4.6948    0.4222   23.8189 O.2     1  UNL1       -0.2701
     40 H           1.6207    1.7859   24.7352 H       1  UNL1        0.1501
     41 C           2.4667    0.3962   22.4830 C.ar    1  UNL1        0.0556
     42 C           1.1586    1.0653   22.1805 C.ar    1  UNL1        0.0047
     43 C           0.3806    0.6734   20.9593 C.ar    1  UNL1        0.0025
     44 C           0.9107   -0.3874   20.0408 C.ar    1  UNL1        0.0296
     45 C           2.2187   -1.0564   20.3433 C.ar    1  UNL1        0.1403
     46 F           2.7487   -2.1172   19.4247 F       1  UNL1       -0.2042
     47 C           2.9967   -0.6646   21.5644 C.ar    1  UNL1        0.0341
@<TRIPOS>BOND
     1    25    26    1
     2    26    27    2
     3    26    28   am
     4    28    19    1
     5    19    20   ar
     6    20    21   ar
     7    21    22   ar
     8    22    23   ar
     9    23     1    1
    10     1     2   ar
    11     2     3   ar
    12     3     4   ar
    13     4     5   ar
    14     5     6   ar
    15     6    10    1
    16    10    11   ar
    17    11    12   ar
    18    12    13   ar
    19    13    14   ar
    20    14    15   ar
    21    15    16    1
    22     6     7   ar
    23     7    30    1
    24    30    31   ar
    25    31    32   ar
    26    32    33   ar
    27    33    36    1
    28    36    37    1
    29    37    38   am
    30    38    39    2
    31    38    41    1
    32    41    42   ar
    33    42    43   ar
    34    43    44   ar
    35    44    45   ar
    36    45    46    1
    37    45    47   ar
    38    33    34   ar
    39    34    35   ar
    40     7     8   ar
    41     8     9   ar
    42    23    24   ar
    43    24    19   ar
    44     9     1   ar
    45     8     4   ar
    46    15    10   ar
    47    35    30   ar
    48    47    41   ar
    49    28    29    1
    50    16    17    1
    51    16    18    1
    52    37    40    1
