@<TRIPOS>MOLECULE
*****
 34 37 0 0 0
SMALL
GASTEIGER

@<TRIPOS>ATOM
      1 C          -7.2824  -18.5875   21.3318 C.ar    1  UNL1        0.1224
      2 N          -6.2267  -18.1842   22.3182 N.ar    1  UNL1       -0.2325
      3 C          -6.4719  -17.0358   23.2516 C.ar    1  UNL1        0.0835
      4 C          -5.4163  -16.6326   24.2380 C.ar    1  UNL1        0.0000
      5 C          -5.6614  -15.4843   25.1714 C.ar    1  UNL1       -0.0024
      6 C          -6.9622  -14.7392   25.1184 C.ar    1  UNL1       -0.0001
      7 C          -8.0178  -15.1425   24.1320 C.ar    1  UNL1        0.0062
      8 C          -7.7727  -16.2908   23.1986 C.ar    1  UNL1        0.0735
      9 C          -8.8284  -16.6941   22.2122 C.ar    1  UNL1        0.2631
     10 O         -10.1291  -15.9490   22.1592 O.2     1  UNL1       -0.2669
     11 N          -8.5832  -17.8424   21.2788 N.ar    1  UNL1       -0.2837
     12 C          -5.8223  -20.5980   20.5729 C.3     1  UNL1        0.0084
     13 C          -7.0373  -19.7358   20.3984 C.3     1  UNL1        0.0640
     14 C          -4.1155  -17.3777   24.2910 C.3     1  UNL1        0.0541
     15 C          -3.3031  -17.5580   23.0430 C.ar    1  UNL1       -0.0177
     16 C          -2.7359  -16.3617   22.3379 C.ar    1  UNL1       -0.0038
     17 C          -1.9235  -16.5420   21.0899 C.ar    1  UNL1        0.0043
     18 C          -1.6783  -17.9186   20.5470 C.ar    1  UNL1        0.0553
     19 C          -2.2455  -19.1150   21.2520 C.ar    1  UNL1        0.0043
     20 C          -3.0579  -18.9347   22.5001 C.ar    1  UNL1       -0.0038
     21 C          -0.8659  -18.0989   19.2990 C.2     1  UNL1        0.2677
     22 O           0.4991  -18.7161   19.3753 O.2     1  UNL1       -0.2681
     23 N          -1.4185  -17.6620   17.9747 N.am    1  UNL1       -0.1934
     24 O          -0.6061  -17.8423   16.7267 O.3     1  UNL1       -0.2949
     25 H          -2.3144  -17.2569   17.9246 H       1  UNL1        0.1825
     26 H           0.2440  -18.2522   16.9507 H       1  UNL1        0.2414
     27 C          -9.6389  -18.2457   20.2924 C.3     1  UNL1        0.1148
     28 C         -10.7463  -19.1657   20.7132 C.3     1  UNL1        0.0510
     29 C         -11.4676  -18.9286   22.0068 C.ar    1  UNL1       -0.0202
     30 C         -10.9426  -19.5258   23.2787 C.ar    1  UNL1       -0.0042
     31 C         -11.6639  -19.2887   24.5723 C.ar    1  UNL1       -0.0003
     32 C         -12.9103  -18.4544   24.5941 C.ar    1  UNL1       -0.0000
     33 C         -13.4353  -17.8572   23.3222 C.ar    1  UNL1       -0.0003
     34 C         -12.7140  -18.0943   22.0286 C.ar    1  UNL1       -0.0042
@<TRIPOS>BOND
     1    12    13    1
     2    13     1    1
     3     1     2   ar
     4     2     3   ar
     5     3     4   ar
     6     4    14    1
     7    14    15    1
     8    15    16   ar
     9    16    17   ar
    10    17    18   ar
    11    18    21    1
    12    21    22    2
    13    21    23   am
    14    23    24    1
    15    18    19   ar
    16    19    20   ar
    17     4     5   ar
    18     5     6   ar
    19     6     7   ar
    20     7     8   ar
    21     8     9   ar
    22     9    10    2
    23     9    11   ar
    24    11    27    1
    25    27    28    1
    26    28    29    1
    27    29    30   ar
    28    30    31   ar
    29    31    32   ar
    30    32    33   ar
    31    33    34   ar
    32    11     1   ar
    33    34    29   ar
    34     8     3   ar
    35    20    15   ar
    36    23    25    1
    37    24    26    1
@<TRIPOS>MOLECULE
*****
 34 37 0 0 0
SMALL
GASTEIGER

@<TRIPOS>ATOM
      1 C          -7.8956  -18.4505   22.4299 C.ar    1  UNL1        0.1224
      2 N          -7.1299  -17.3317   23.0716 N.ar    1  UNL1       -0.2325
      3 C          -7.5146  -16.8466   24.4379 C.ar    1  UNL1        0.0835
      4 C          -6.7489  -15.7277   25.0797 C.ar    1  UNL1        0.0000
      5 C          -7.1336  -15.2426   26.4459 C.ar    1  UNL1       -0.0024
      6 C          -8.2839  -15.8763   27.1704 C.ar    1  UNL1       -0.0001
      7 C          -9.0497  -16.9952   26.5287 C.ar    1  UNL1        0.0062
      8 C          -8.6650  -17.4803   25.1624 C.ar    1  UNL1        0.0735
      9 C          -9.4307  -18.5991   24.5207 C.ar    1  UNL1        0.2631
     10 O         -10.5811  -19.2329   25.2452 O.2     1  UNL1       -0.2669
     11 N          -9.0461  -19.0843   23.1544 N.ar    1  UNL1       -0.2837
     12 C          -6.0704  -19.1999   20.7396 C.3     1  UNL1        0.0084
     13 C          -7.5110  -18.9356   21.0636 C.3     1  UNL1        0.0640
     14 C          -5.5984  -15.0940   24.3551 C.3     1  UNL1        0.0541
     15 C          -4.6067  -15.9519   23.6267 C.ar    1  UNL1       -0.0177
     16 C          -4.4542  -17.3983   23.9935 C.ar    1  UNL1       -0.0038
     17 C          -3.4624  -18.2562   23.2651 C.ar    1  UNL1        0.0043
     18 C          -2.6233  -17.6676   22.1700 C.ar    1  UNL1        0.0553
     19 C          -2.7759  -16.2212   21.8031 C.ar    1  UNL1        0.0043
     20 C          -3.7676  -15.3633   22.5315 C.ar    1  UNL1       -0.0038
     21 C          -1.6316  -18.5255   21.4416 C.2     1  UNL1        0.2677
     22 O          -1.7045  -20.0193   21.5572 O.2     1  UNL1       -0.2681
     23 N          -0.5670  -17.8897   20.5976 N.am    1  UNL1       -0.1934
     24 O           0.4247  -18.7476   19.8693 O.3     1  UNL1       -0.2949
     25 H          -0.5192  -16.9093   20.5218 H       1  UNL1        0.1825
     26 H           0.2381  -19.6821   20.0500 H       1  UNL1        0.2414
     27 C          -9.8118  -20.2031   22.5127 C.3     1  UNL1        0.1148
     28 C         -11.1522  -19.9366   21.8944 C.3     1  UNL1        0.0510
     29 C         -11.4636  -18.5803   21.3345 C.ar    1  UNL1       -0.0202
     30 C         -12.2542  -17.5974   22.1461 C.ar    1  UNL1       -0.0042
     31 C         -12.5656  -16.2411   21.5862 C.ar    1  UNL1       -0.0003
     32 C         -12.0864  -15.8677   20.2147 C.ar    1  UNL1       -0.0000
     33 C         -11.2958  -16.8507   19.4032 C.ar    1  UNL1       -0.0003
     34 C         -10.9844  -18.2070   19.9630 C.ar    1  UNL1       -0.0042
@<TRIPOS>BOND
     1    12    13    1
     2    13     1    1
     3     1     2   ar
     4     2     3   ar
     5     3     4   ar
     6     4    14    1
     7    14    15    1
     8    15    16   ar
     9    16    17   ar
    10    17    18   ar
    11    18    21    1
    12    21    22    2
    13    21    23   am
    14    23    24    1
    15    18    19   ar
    16    19    20   ar
    17     4     5   ar
    18     5     6   ar
    19     6     7   ar
    20     7     8   ar
    21     8     9   ar
    22     9    10    2
    23     9    11   ar
    24    11    27    1
    25    27    28    1
    26    28    29    1
    27    29    30   ar
    28    30    31   ar
    29    31    32   ar
    30    32    33   ar
    31    33    34   ar
    32    11     1   ar
    33    34    29   ar
    34     8     3   ar
    35    20    15   ar
    36    23    25    1
    37    24    26    1
@<TRIPOS>MOLECULE
*****
 34 37 0 0 0
SMALL
GASTEIGER

@<TRIPOS>ATOM
      1 C          -6.9104  -16.5885   22.9942 C.ar    1  UNL1        0.1224
      2 N          -7.4377  -17.5948   22.0147 N.ar    1  UNL1       -0.2325
      3 C          -6.5435  -18.6867   21.5066 C.ar    1  UNL1        0.0835
      4 C          -7.0708  -19.6930   20.5272 C.ar    1  UNL1        0.0000
      5 C          -6.1767  -20.7850   20.0191 C.ar    1  UNL1       -0.0024
      6 C          -4.7553  -20.8706   20.4904 C.ar    1  UNL1       -0.0001
      7 C          -4.2280  -19.8643   21.4699 C.ar    1  UNL1        0.0062
      8 C          -5.1221  -18.7724   21.9780 C.ar    1  UNL1        0.0735
      9 C          -4.5948  -17.7661   22.9575 C.ar    1  UNL1        0.2631
     10 O          -3.1734  -17.8517   23.4288 O.2     1  UNL1       -0.2669
     11 N          -5.4889  -16.6742   23.4656 N.ar    1  UNL1       -0.2837
     12 C          -9.1748  -15.8270   24.0152 C.3     1  UNL1        0.0084
     13 C          -7.8045  -15.4966   23.5023 C.3     1  UNL1        0.0640
     14 C          -8.4923  -19.6073   20.0558 C.3     1  UNL1        0.0541
     15 C          -9.5839  -19.2606   21.0243 C.ar    1  UNL1       -0.0177
     16 C          -9.6961  -20.0005   22.3243 C.ar    1  UNL1       -0.0038
     17 C         -10.7878  -19.6538   23.2928 C.ar    1  UNL1        0.0043
     18 C         -11.7673  -18.5672   22.9614 C.ar    1  UNL1        0.0553
     19 C         -11.6552  -17.8273   21.6613 C.ar    1  UNL1        0.0043
     20 C         -10.5635  -18.1740   20.6928 C.ar    1  UNL1       -0.0038
     21 C         -12.8590  -18.2205   23.9299 C.2     1  UNL1        0.2677
     22 O         -13.8267  -17.1208   23.6070 O.2     1  UNL1       -0.2681
     23 N         -12.9830  -18.9735   25.2212 N.am    1  UNL1       -0.1934
     24 O         -14.0747  -18.6268   26.1897 O.3     1  UNL1       -0.2949
     25 H         -12.3478  -19.6952   25.4331 H       1  UNL1        0.1825
     26 H         -14.6070  -17.8999   25.8303 H       1  UNL1        0.2414
     27 C          -4.9616  -15.6679   24.4450 C.3     1  UNL1        0.1148
     28 C          -5.0179  -15.9528   25.9166 C.3     1  UNL1        0.0510
     29 C          -6.3133  -15.8097   26.6592 C.ar    1  UNL1       -0.0202
     30 C          -6.6596  -14.5082   27.3195 C.ar    1  UNL1       -0.0042
     31 C          -7.9550  -14.3651   28.0621 C.ar    1  UNL1       -0.0003
     32 C          -8.9042  -15.5236   28.1444 C.ar    1  UNL1       -0.0000
     33 C          -8.5580  -16.8252   27.4841 C.ar    1  UNL1       -0.0003
     34 C          -7.2626  -16.9682   26.7415 C.ar    1  UNL1       -0.0042
@<TRIPOS>BOND
     1    12    13    1
     2    13     1    1
     3     1     2   ar
     4     2     3   ar
     5     3     4   ar
     6     4    14    1
     7    14    15    1
     8    15    16   ar
     9    16    17   ar
    10    17    18   ar
    11    18    21    1
    12    21    22    2
    13    21    23   am
    14    23    24    1
    15    18    19   ar
    16    19    20   ar
    17     4     5   ar
    18     5     6   ar
    19     6     7   ar
    20     7     8   ar
    21     8     9   ar
    22     9    10    2
    23     9    11   ar
    24    11    27    1
    25    27    28    1
    26    28    29    1
    27    29    30   ar
    28    30    31   ar
    29    31    32   ar
    30    32    33   ar
    31    33    34   ar
    32    11     1   ar
    33    34    29   ar
    34     8     3   ar
    35    20    15   ar
    36    23    25    1
    37    24    26    1
@<TRIPOS>MOLECULE
*****
 34 37 0 0 0
SMALL
GASTEIGER

@<TRIPOS>ATOM
      1 C          -8.3041  -17.5451   21.9026 C.ar    1  UNL1        0.1224
      2 N          -7.4775  -18.7331   21.5084 N.ar    1  UNL1       -0.2325
      3 C          -7.9227  -19.6151   20.3796 C.ar    1  UNL1        0.0835
      4 C          -7.0962  -20.8032   19.9854 C.ar    1  UNL1        0.0000
      5 C          -7.5413  -21.6852   18.8567 C.ar    1  UNL1       -0.0024
      6 C          -8.8129  -21.3792   18.1223 C.ar    1  UNL1       -0.0001
      7 C          -9.6394  -20.1911   18.5166 C.ar    1  UNL1        0.0062
      8 C          -9.1943  -19.3091   19.6453 C.ar    1  UNL1        0.0735
      9 C         -10.0208  -18.1211   20.0395 C.ar    1  UNL1        0.2631
     10 O         -11.2924  -17.8151   19.3052 O.2     1  UNL1       -0.2669
     11 N          -9.5757  -17.2391   21.1682 N.ar    1  UNL1       -0.2837
     12 C          -6.4069  -16.5934   23.4010 C.3     1  UNL1        0.0084
     13 C          -7.8590  -16.6631   23.0313 C.3     1  UNL1        0.0640
     14 C          -5.8245  -21.1092   20.7198 C.3     1  UNL1        0.0541
     15 C          -4.6850  -20.1343   20.6848 C.ar    1  UNL1       -0.0177
     16 C          -4.1588  -19.5495   21.9619 C.ar    1  UNL1       -0.0038
     17 C          -3.0193  -18.5747   21.9269 C.ar    1  UNL1        0.0043
     18 C          -2.4061  -18.1845   20.6147 C.ar    1  UNL1        0.0553
     19 C          -2.9324  -18.7693   19.3375 C.ar    1  UNL1        0.0043
     20 C          -4.0718  -19.7442   19.3725 C.ar    1  UNL1       -0.0038
     21 C          -1.2666  -17.2097   20.5797 C.2     1  UNL1        0.2677
     22 O          -1.3369  -15.9446   21.3828 O.2     1  UNL1       -0.2681
     23 N          -0.0569  -17.4998   19.7417 N.am    1  UNL1       -0.1934
     24 O           1.0826  -16.5249   19.7067 O.3     1  UNL1       -0.2949
     25 H          -0.0107  -18.3300   19.2147 H       1  UNL1        0.1825
     26 H           0.8776  -15.7674   20.2768 H       1  UNL1        0.2414
     27 C         -10.4022  -16.0510   21.5625 C.3     1  UNL1        0.1148
     28 C         -11.8644  -16.2176   21.8525 C.3     1  UNL1        0.0510
     29 C         -12.3105  -17.1211   22.9637 C.ar    1  UNL1       -0.0202
     30 C         -13.7703  -17.2543   23.2819 C.ar    1  UNL1       -0.0042
     31 C         -14.2163  -18.1578   24.3931 C.ar    1  UNL1       -0.0003
     32 C         -13.2026  -18.9281   25.1861 C.ar    1  UNL1       -0.0000
     33 C         -11.7428  -18.7949   24.8680 C.ar    1  UNL1       -0.0003
     34 C         -11.2967  -17.8914   23.7568 C.ar    1  UNL1       -0.0042
@<TRIPOS>BOND
     1    12    13    1
     2    13     1    1
     3     1     2   ar
     4     2     3   ar
     5     3     4   ar
     6     4    14    1
     7    14    15    1
     8    15    16   ar
     9    16    17   ar
    10    17    18   ar
    11    18    21    1
    12    21    22    2
    13    21    23   am
    14    23    24    1
    15    18    19   ar
    16    19    20   ar
    17     4     5   ar
    18     5     6   ar
    19     6     7   ar
    20     7     8   ar
    21     8     9   ar
    22     9    10    2
    23     9    11   ar
    24    11    27    1
    25    27    28    1
    26    28    29    1
    27    29    30   ar
    28    30    31   ar
    29    31    32   ar
    30    32    33   ar
    31    33    34   ar
    32    11     1   ar
    33    34    29   ar
    34     8     3   ar
    35    20    15   ar
    36    23    25    1
    37    24    26    1
@<TRIPOS>MOLECULE
*****
 34 37 0 0 0
SMALL
GASTEIGER

@<TRIPOS>ATOM
      1 C          -6.1908  -17.8331   22.3751 C.ar    1  UNL1        0.1224
      2 N          -7.5286  -17.7500   21.7018 N.ar    1  UNL1       -0.2325
      3 C          -7.9079  -18.7604   20.6599 C.ar    1  UNL1        0.0835
      4 C          -9.2457  -18.6773   19.9866 C.ar    1  UNL1        0.0000
      5 C          -9.6250  -19.6876   18.9448 C.ar    1  UNL1       -0.0024
      6 C          -8.6666  -20.7811   18.5764 C.ar    1  UNL1       -0.0001
      7 C          -7.3288  -20.8642   19.2498 C.ar    1  UNL1        0.0062
      8 C          -6.9494  -19.8538   20.2916 C.ar    1  UNL1        0.0735
      9 C          -5.6117  -19.9369   20.9649 C.ar    1  UNL1        0.2631
     10 O          -4.6532  -21.0304   20.5965 O.2     1  UNL1       -0.2669
     11 N          -5.2323  -18.9266   22.0067 N.ar    1  UNL1       -0.2837
     12 C          -6.8073  -15.7923   23.8600 C.3     1  UNL1        0.0084
     13 C          -5.8115  -16.8228   23.4169 C.3     1  UNL1        0.0640
     14 C         -10.2041  -17.5838   20.3550 C.3     1  UNL1        0.0541
     15 C         -11.2219  -17.8105   21.4333 C.ar    1  UNL1       -0.0177
     16 C         -12.6144  -17.2759   21.2746 C.ar    1  UNL1       -0.0038
     17 C         -13.6322  -17.5026   22.3529 C.ar    1  UNL1        0.0043
     18 C         -13.2575  -18.2637   23.5899 C.ar    1  UNL1        0.0553
     19 C         -11.8650  -18.7983   23.7486 C.ar    1  UNL1        0.0043
     20 C         -10.8472  -18.5716   22.6704 C.ar    1  UNL1       -0.0038
     21 C         -14.2753  -18.4904   24.6682 C.2     1  UNL1        0.2677
     22 O         -15.7014  -18.7807   24.3044 O.2     1  UNL1       -0.2681
     23 N         -13.8672  -18.4266   26.1101 N.am    1  UNL1       -0.1934
     24 O         -14.8850  -18.6532   27.1884 O.3     1  UNL1       -0.2949
     25 H         -12.9313  -18.2360   26.3489 H       1  UNL1        0.1825
     26 H         -15.7500  -18.8267   26.7853 H       1  UNL1        0.2414
     27 C          -3.8946  -19.0097   22.6801 C.3     1  UNL1        0.1148
     28 C          -2.8588  -17.9557   22.4231 C.3     1  UNL1        0.0510
     29 C          -2.1629  -17.8958   21.0957 C.ar    1  UNL1       -0.0202
     30 C          -2.9657  -17.8366   19.8300 C.ar    1  UNL1       -0.0042
     31 C          -2.2698  -17.7767   18.5025 C.ar    1  UNL1       -0.0003
     32 C          -0.7712  -17.7759   18.4407 C.ar    1  UNL1       -0.0000
     33 C           0.0317  -17.8351   19.7064 C.ar    1  UNL1       -0.0003
     34 C          -0.6642  -17.8950   21.0339 C.ar    1  UNL1       -0.0042
@<TRIPOS>BOND
     1    12    13    1
     2    13     1    1
     3     1     2   ar
     4     2     3   ar
     5     3     4   ar
     6     4    14    1
     7    14    15    1
     8    15    16   ar
     9    16    17   ar
    10    17    18   ar
    11    18    21    1
    12    21    22    2
    13    21    23   am
    14    23    24    1
    15    18    19   ar
    16    19    20   ar
    17     4     5   ar
    18     5     6   ar
    19     6     7   ar
    20     7     8   ar
    21     8     9   ar
    22     9    10    2
    23     9    11   ar
    24    11    27    1
    25    27    28    1
    26    28    29    1
    27    29    30   ar
    28    30    31   ar
    29    31    32   ar
    30    32    33   ar
    31    33    34   ar
    32    11     1   ar
    33    34    29   ar
    34     8     3   ar
    35    20    15   ar
    36    23    25    1
    37    24    26    1
