@<TRIPOS>MOLECULE
*****
 31 34 0 0 0
SMALL
GASTEIGER

@<TRIPOS>ATOM
      1 C          -7.2571  -17.8049   22.1430 C.ar    1  UNL1        0.0796
      2 C          -5.9245  -18.1313   21.5368 C.ar    1  UNL1        0.0154
      3 C          -4.6627  -17.6876   22.2158 C.ar    1  UNL1        0.0105
      4 C          -4.7336  -16.9175   23.5010 C.ar    1  UNL1        0.0777
      5 N          -6.0662  -16.5910   24.1073 N.ar    1  UNL1       -0.2922
      6 C          -6.4469  -15.8518   25.3557 C.ar    1  UNL1        0.0567
      7 C          -5.4973  -15.2342   26.3389 C.3     1  UNL1        0.0517
      8 C          -7.9440  -15.8386   25.4483 C.ar    1  UNL1        0.0730
      9 C          -8.7543  -15.2055   26.5404 C.3     1  UNL1        0.0534
     10 N          -8.4886  -16.5697   24.2571 N.ar    1  UNL1       -0.2299
     11 C          -7.3279  -17.0347   23.4283 C.ar    1  UNL1        0.1603
     12 C          -3.3301  -18.0140   21.6095 C.3     1  UNL1        0.1392
     13 C          -2.9993  -19.4306   21.2436 C.2     1  UNL1        0.0771
     14 N          -1.6667  -19.7571   20.6374 N.am    1  UNL1       -0.1646
     15 C          -0.6648  -18.6669   20.3970 C.2     1  UNL1        0.3297
     16 O           0.6678  -18.9934   19.7908 O.2     1  UNL1       -0.2502
     17 N          -0.9955  -17.2503   20.7629 N.am    1  UNL1       -0.2374
     18 C          -2.3282  -16.9239   21.3691 C.2     1  UNL1        0.2385
     19 O          -2.6590  -15.5073   21.7350 O.2     1  UNL1       -0.2739
     20 H          -0.3380  -16.5348   20.6051 H       1  UNL1        0.1592
     21 N          -8.5189  -18.2486   21.4640 N.pl3   1  UNL1       -0.3267
     22 H          -8.7562  -17.8855   20.5802 H       1  UNL1        0.1472
     23 C          -9.4192  -19.2454   22.1317 C.3     1  UNL1        0.1137
     24 C         -10.1634  -19.6812   25.0051 C.3     1  UNL1        0.0307
     25 C         -11.1412  -19.0393   24.0661 C.ar    1  UNL1       -0.0245
     26 C         -12.4913  -18.6152   24.5639 C.ar    1  UNL1       -0.0045
     27 C         -13.4692  -17.9733   23.6249 C.ar    1  UNL1       -0.0007
     28 C         -13.0971  -17.7554   22.1882 C.ar    1  UNL1       -0.0045
     29 C         -11.7471  -18.1794   21.6905 C.ar    1  UNL1       -0.0245
     30 C         -11.3750  -17.9615   20.2538 C.3     1  UNL1        0.0307
     31 C         -10.7692  -18.8214   22.6295 C.ar    1  UNL1       -0.0105
@<TRIPOS>BOND
     1    24    25    1
     2    25    26   ar
     3    26    27   ar
     4    27    28   ar
     5    28    29   ar
     6    29    30    1
     7    29    31   ar
     8    31    23    1
     9    23    21    1
    10    21     1    1
    11     1     2   ar
    12     2     3   ar
    13     3    12    1
    14    12    13    1
    15    13    14    2
    16    14    15    1
    17    15    16    2
    18    15    17   am
    19    17    18   am
    20    18    19    2
    21     3     4   ar
    22     4     5   ar
    23     5     6   ar
    24     6     7    1
    25     6     8   ar
    26     8     9    1
    27     8    10   ar
    28    10    11   ar
    29    31    25   ar
    30    11     1   ar
    31    18    12    1
    32    11     5   ar
    33    21    22    1
    34    17    20    1
@<TRIPOS>MOLECULE
*****
 31 34 0 0 0
SMALL
GASTEIGER

@<TRIPOS>ATOM
      1 C          -7.2561  -17.8080   22.1440 C.ar    1  UNL1        0.0796
      2 C          -5.9230  -18.1331   21.5381 C.ar    1  UNL1        0.0154
      3 C          -4.6619  -17.6865   22.2165 C.ar    1  UNL1        0.0105
      4 C          -4.7339  -16.9147   23.5007 C.ar    1  UNL1        0.0777
      5 N          -6.0670  -16.5896   24.1066 N.ar    1  UNL1       -0.2922
      6 C          -6.4489  -15.8493   25.3540 C.ar    1  UNL1        0.0567
      7 C          -5.5002  -15.2288   26.3363 C.3     1  UNL1        0.0517
      8 C          -7.9460  -15.8384   25.4466 C.ar    1  UNL1        0.0730
      9 C          -8.7573  -15.2051   26.5379 C.3     1  UNL1        0.0534
     10 N          -8.4894  -16.5720   24.2564 N.ar    1  UNL1       -0.2299
     11 C          -7.3281  -17.0362   23.4282 C.ar    1  UNL1        0.1603
     12 C          -3.3287  -18.0116   21.6106 C.3     1  UNL1        0.1392
     13 C          -2.9976  -19.4274   21.2421 C.2     1  UNL1        0.0771
     14 N          -1.6645  -19.7526   20.6363 N.am    1  UNL1       -0.1646
     15 C          -0.6625  -18.6618   20.3988 C.2     1  UNL1        0.3297
     16 O           0.6706  -18.9870   19.7930 O.2     1  UNL1       -0.2502
     17 N          -0.9936  -17.2460   20.7673 N.am    1  UNL1       -0.2374
     18 C          -2.3268  -16.9209   21.3732 C.2     1  UNL1        0.2385
     19 O          -2.6579  -15.5050   21.7416 O.2     1  UNL1       -0.2739
     20 H          -0.3360  -16.5301   20.6115 H       1  UNL1        0.1592
     21 N          -8.5172  -18.2546   21.4657 N.pl3   1  UNL1       -0.3267
     22 H          -8.7544  -17.8943   20.5807 H       1  UNL1        0.1472
     23 C          -9.4171  -19.2503   22.1357 C.3     1  UNL1        0.1137
     24 C         -11.3725  -17.9648   20.2585 C.3     1  UNL1        0.0307
     25 C         -11.7443  -18.1826   21.6953 C.ar    1  UNL1       -0.0245
     26 C         -13.0938  -17.7576   22.1935 C.ar    1  UNL1       -0.0045
     27 C         -13.4657  -17.9754   23.6302 C.ar    1  UNL1       -0.0007
     28 C         -12.4880  -18.6182   24.5688 C.ar    1  UNL1       -0.0045
     29 C         -11.1384  -19.0431   24.0707 C.ar    1  UNL1       -0.0245
     30 C         -10.1607  -19.6859   25.0093 C.3     1  UNL1        0.0307
     31 C         -10.7666  -18.8253   22.6339 C.ar    1  UNL1       -0.0105
@<TRIPOS>BOND
     1    24    25    1
     2    25    26   ar
     3    26    27   ar
     4    27    28   ar
     5    28    29   ar
     6    29    30    1
     7    29    31   ar
     8    31    23    1
     9    23    21    1
    10    21     1    1
    11     1     2   ar
    12     2     3   ar
    13     3    12    1
    14    12    13    1
    15    13    14    2
    16    14    15    1
    17    15    16    2
    18    15    17   am
    19    17    18   am
    20    18    19    2
    21     3     4   ar
    22     4     5   ar
    23     5     6   ar
    24     6     7    1
    25     6     8   ar
    26     8     9    1
    27     8    10   ar
    28    10    11   ar
    29    31    25   ar
    30    11     1   ar
    31    18    12    1
    32    11     5   ar
    33    21    22    1
    34    17    20    1
@<TRIPOS>MOLECULE
*****
 31 34 0 0 0
SMALL
GASTEIGER

@<TRIPOS>ATOM
      1 C          -7.8034  -18.4569   20.9713 C.ar    1  UNL1        0.0796
      2 C          -8.1741  -17.6966   22.2100 C.ar    1  UNL1        0.0154
      3 C          -7.1341  -17.4062   23.2511 C.ar    1  UNL1        0.0105
      4 C          -5.7234  -17.8761   23.0536 C.ar    1  UNL1        0.0777
      5 N          -5.3526  -18.6364   21.8148 N.ar    1  UNL1       -0.2922
      6 C          -4.0531  -19.2221   21.3478 C.ar    1  UNL1        0.0567
      7 C          -2.7462  -19.1654   22.0818 C.3     1  UNL1        0.0517
      8 C          -4.2899  -19.8745   20.0181 C.ar    1  UNL1        0.0730
      9 C          -3.2614  -20.5848   19.1888 C.3     1  UNL1        0.0534
     10 N          -5.7359  -19.6920   19.6632 N.ar    1  UNL1       -0.2299
     11 C          -6.3926  -18.9268   20.7737 C.ar    1  UNL1        0.1603
     12 C          -7.5048  -16.6459   24.4900 C.3     1  UNL1        0.1392
     13 C          -8.6853  -17.0765   25.3091 C.2     1  UNL1        0.0771
     14 N          -9.0561  -16.3162   26.5478 N.am    1  UNL1       -0.1646
     15 C          -8.2462  -15.1253   26.9675 C.2     1  UNL1        0.3297
     16 O          -8.6170  -14.3651   28.2063 O.2     1  UNL1       -0.2502
     17 N          -7.0657  -14.6948   26.1484 N.am    1  UNL1       -0.2374
     18 C          -6.6950  -15.4551   24.9096 C.2     1  UNL1        0.2385
     19 O          -5.5145  -15.0245   24.0904 O.2     1  UNL1       -0.2739
     20 H          -6.5342  -13.9132   26.4238 H       1  UNL1        0.1592
     21 N          -8.8434  -18.7473   19.9301 N.pl3   1  UNL1       -0.3267
     22 H          -8.6600  -18.5511   18.9829 H       1  UNL1        0.1472
     23 C         -10.1629  -19.3368   20.3320 C.3     1  UNL1        0.1137
     24 C         -10.6318  -20.3962   23.0992 C.3     1  UNL1        0.0307
     25 C         -11.2938  -19.1235   22.6612 C.ar    1  UNL1       -0.0245
     26 C         -12.1904  -18.3804   23.6068 C.ar    1  UNL1       -0.0045
     27 C         -12.8524  -17.1077   23.1688 C.ar    1  UNL1       -0.0007
     28 C         -12.6180  -16.5780   21.7851 C.ar    1  UNL1       -0.0045
     29 C         -11.7215  -17.3210   20.8396 C.ar    1  UNL1       -0.0245
     30 C         -11.4870  -16.7913   19.4559 C.3     1  UNL1        0.0307
     31 C         -11.0594  -18.5938   21.2776 C.ar    1  UNL1       -0.0105
@<TRIPOS>BOND
     1    24    25    1
     2    25    26   ar
     3    26    27   ar
     4    27    28   ar
     5    28    29   ar
     6    29    30    1
     7    29    31   ar
     8    31    23    1
     9    23    21    1
    10    21     1    1
    11     1     2   ar
    12     2     3   ar
    13     3    12    1
    14    12    13    1
    15    13    14    2
    16    14    15    1
    17    15    16    2
    18    15    17   am
    19    17    18   am
    20    18    19    2
    21     3     4   ar
    22     4     5   ar
    23     5     6   ar
    24     6     7    1
    25     6     8   ar
    26     8     9    1
    27     8    10   ar
    28    10    11   ar
    29    31    25   ar
    30    11     1   ar
    31    18    12    1
    32    11     5   ar
    33    21    22    1
    34    17    20    1
@<TRIPOS>MOLECULE
*****
 31 34 0 0 0
SMALL
GASTEIGER

@<TRIPOS>ATOM
      1 C          -7.6027  -18.1062   21.5215 C.ar    1  UNL1        0.0796
      2 C          -7.6940  -17.2369   22.7404 C.ar    1  UNL1        0.0154
      3 C          -6.4844  -17.0228   23.6012 C.ar    1  UNL1        0.0105
      4 C          -5.1835  -17.6780   23.2429 C.ar    1  UNL1        0.0777
      5 N          -5.0922  -18.5473   22.0239 N.ar    1  UNL1       -0.2922
      6 C          -3.9540  -19.3183   21.4238 C.ar    1  UNL1        0.0567
      7 C          -2.5552  -19.3866   21.9611 C.3     1  UNL1        0.0517
      8 C          -4.4602  -20.0088   20.1922 C.ar    1  UNL1        0.0730
      9 C          -3.6564  -20.8890   19.2815 C.3     1  UNL1        0.0534
     10 N          -5.9113  -19.6647   20.0311 N.ar    1  UNL1       -0.2299
     11 C          -6.3018  -18.7614   21.1632 C.ar    1  UNL1        0.1603
     12 C          -6.5756  -16.1535   24.8202 C.3     1  UNL1        0.1392
     13 C          -5.3738  -15.3862   25.2858 C.2     1  UNL1        0.0771
     14 N          -5.4649  -14.5169   26.5048 N.am    1  UNL1       -0.1646
     15 C          -6.7580  -14.4149   27.2583 C.2     1  UNL1        0.3297
     16 O          -6.8492  -13.5456   28.4773 O.2     1  UNL1       -0.2502
     17 N          -7.9599  -15.1822   26.7927 N.am    1  UNL1       -0.2374
     18 C          -7.8686  -16.0515   25.5736 C.2     1  UNL1        0.2385
     19 O          -9.0705  -16.8188   25.1080 O.2     1  UNL1       -0.2739
     20 H          -8.8085  -15.1152   27.2871 H       1  UNL1        0.1592
     21 N          -8.8124  -18.3203   20.6606 N.pl3   1  UNL1       -0.3267
     22 H          -8.9176  -17.8118   19.8242 H       1  UNL1        0.1472
     23 C          -9.8618  -19.3091   21.0743 C.3     1  UNL1        0.1137
     24 C         -12.1292  -17.4267   20.5128 C.3     1  UNL1        0.0307
     25 C         -11.9675  -18.0190   21.8814 C.ar    1  UNL1       -0.0245
     26 C         -12.9396  -17.6701   22.9693 C.ar    1  UNL1       -0.0045
     27 C         -12.7779  -18.2625   24.3378 C.ar    1  UNL1       -0.0007
     28 C         -11.6442  -19.2037   24.6186 C.ar    1  UNL1       -0.0045
     29 C         -10.6722  -19.5526   23.5308 C.ar    1  UNL1       -0.0245
     30 C          -9.5384  -20.4938   23.8115 C.3     1  UNL1        0.0307
     31 C         -10.8338  -18.9602   22.1621 C.ar    1  UNL1       -0.0105
@<TRIPOS>BOND
     1    24    25    1
     2    25    26   ar
     3    26    27   ar
     4    27    28   ar
     5    28    29   ar
     6    29    30    1
     7    29    31   ar
     8    31    23    1
     9    23    21    1
    10    21     1    1
    11     1     2   ar
    12     2     3   ar
    13     3    12    1
    14    12    13    1
    15    13    14    2
    16    14    15    1
    17    15    16    2
    18    15    17   am
    19    17    18   am
    20    18    19    2
    21     3     4   ar
    22     4     5   ar
    23     5     6   ar
    24     6     7    1
    25     6     8   ar
    26     8     9    1
    27     8    10   ar
    28    10    11   ar
    29    31    25   ar
    30    11     1   ar
    31    18    12    1
    32    11     5   ar
    33    21    22    1
    34    17    20    1
@<TRIPOS>MOLECULE
*****
 31 34 0 0 0
SMALL
GASTEIGER

@<TRIPOS>ATOM
      1 C          -6.1734  -17.6772   22.7486 C.ar    1  UNL1        0.0796
      2 C          -7.6109  -17.5715   23.1635 C.ar    1  UNL1        0.0154
      3 C          -8.6197  -18.5433   22.6269 C.ar    1  UNL1        0.0105
      4 C          -8.1909  -19.6207   21.6754 C.ar    1  UNL1        0.0777
      5 N          -6.7533  -19.7263   21.2605 N.ar    1  UNL1       -0.2922
      6 C          -6.0402  -20.6762   20.3445 C.ar    1  UNL1        0.0567
      7 C          -6.6667  -21.8115   19.5903 C.3     1  UNL1        0.0517
      8 C          -4.5907  -20.2915   20.3149 C.ar    1  UNL1        0.0730
      9 C          -3.5131  -20.9746   19.5260 C.3     1  UNL1        0.0534
     10 N          -4.4079  -19.1038   21.2127 N.ar    1  UNL1       -0.2299
     11 C          -5.7446  -18.7546   21.7971 C.ar    1  UNL1        0.1603
     12 C         -10.0574  -18.4377   23.0418 C.3     1  UNL1        0.1392
     13 C         -11.0474  -17.7514   22.1480 C.2     1  UNL1        0.0771
     14 N         -12.4850  -17.6457   22.5628 N.am    1  UNL1       -0.1646
     15 C         -12.9326  -18.2264   23.8715 C.2     1  UNL1        0.3297
     16 O         -14.3702  -18.1208   24.2863 O.2     1  UNL1       -0.2502
     17 N         -11.9426  -18.9127   24.7652 N.am    1  UNL1       -0.2374
     18 C         -10.5049  -19.0183   24.3504 C.2     1  UNL1        0.2385
     19 O          -9.5149  -19.7046   25.2442 O.2     1  UNL1       -0.2739
     20 H         -12.2364  -19.2938   25.6241 H       1  UNL1        0.1592
     21 N          -5.1645  -16.7054   23.2852 N.pl3   1  UNL1       -0.3267
     22 H          -4.2029  -16.9037   23.2126 H       1  UNL1        0.1472
     23 C          -5.6207  -15.4314   23.9324 C.3     1  UNL1        0.1137
     24 C          -4.4867  -16.3125   26.5664 C.3     1  UNL1        0.0307
     25 C          -5.9310  -15.9207   26.4651 C.ar    1  UNL1       -0.0245
     26 C          -6.8084  -15.9694   27.6808 C.ar    1  UNL1       -0.0045
     27 C          -8.2528  -15.5776   27.5795 C.ar    1  UNL1       -0.0007
     28 C          -8.8198  -15.1370   26.2625 C.ar    1  UNL1       -0.0045
     29 C          -7.9425  -15.0883   25.0469 C.ar    1  UNL1       -0.0245
     30 C          -8.5095  -14.6478   23.7299 C.3     1  UNL1        0.0307
     31 C          -6.4981  -15.4801   25.1481 C.ar    1  UNL1       -0.0105
@<TRIPOS>BOND
     1    24    25    1
     2    25    26   ar
     3    26    27   ar
     4    27    28   ar
     5    28    29   ar
     6    29    30    1
     7    29    31   ar
     8    31    23    1
     9    23    21    1
    10    21     1    1
    11     1     2   ar
    12     2     3   ar
    13     3    12    1
    14    12    13    1
    15    13    14    2
    16    14    15    1
    17    15    16    2
    18    15    17   am
    19    17    18   am
    20    18    19    2
    21     3     4   ar
    22     4     5   ar
    23     5     6   ar
    24     6     7    1
    25     6     8   ar
    26     8     9    1
    27     8    10   ar
    28    10    11   ar
    29    31    25   ar
    30    11     1   ar
    31    18    12    1
    32    11     5   ar
    33    21    22    1
    34    17    20    1
@<TRIPOS>MOLECULE
*****
 31 34 0 0 0
SMALL
GASTEIGER

@<TRIPOS>ATOM
      1 C          -6.4960  -19.5207   21.3203 C.ar    1  UNL1        0.0796
      2 C          -6.6563  -18.6729   22.5473 C.ar    1  UNL1        0.0154
      3 C          -7.9618  -17.9863   22.8191 C.ar    1  UNL1        0.0105
      4 C          -9.1071  -18.1473   21.8639 C.ar    1  UNL1        0.0777
      5 N          -8.9468  -18.9951   20.6370 N.ar    1  UNL1       -0.2922
      6 C          -9.8911  -19.3369   19.5227 C.ar    1  UNL1        0.0567
      7 C         -11.3085  -18.8638   19.3919 C.3     1  UNL1        0.0517
      8 C          -9.1691  -20.2348   18.5622 C.ar    1  UNL1        0.0730
      9 C          -9.7378  -20.8173   17.3023 C.3     1  UNL1        0.0534
     10 N          -7.7786  -20.4480   19.0829 N.ar    1  UNL1       -0.2299
     11 C          -7.6413  -19.6818   20.3652 C.ar    1  UNL1        0.1603
     12 C          -8.1222  -17.1384   24.0462 C.3     1  UNL1        0.1392
     13 C          -8.9188  -17.6476   25.2107 C.2     1  UNL1        0.0771
     14 N          -9.0791  -16.7999   26.4377 N.am    1  UNL1       -0.1646
     15 C          -8.4429  -15.4429   26.5002 C.2     1  UNL1        0.3297
     16 O          -8.6032  -14.5951   27.7272 O.2     1  UNL1       -0.2502
     17 N          -7.6462  -14.9337   25.3357 N.am    1  UNL1       -0.2374
     18 C          -7.4859  -15.7816   24.1087 C.2     1  UNL1        0.2385
     19 O          -6.6892  -15.2724   22.9441 O.2     1  UNL1       -0.2739
     20 H          -7.2286  -14.0431   25.3767 H       1  UNL1        0.1592
     21 N          -5.1904  -20.2075   21.0485 N.pl3   1  UNL1       -0.3267
     22 H          -5.1289  -20.8836   20.3356 H       1  UNL1        0.1472
     23 C          -3.9784  -19.8639   21.8629 C.3     1  UNL1        0.1137
     24 C          -2.8102  -19.6006   19.1122 C.3     1  UNL1        0.0307
     25 C          -2.5699  -18.5298   20.1348 C.ar    1  UNL1       -0.0245
     26 C          -1.7454  -17.3273   19.7821 C.ar    1  UNL1       -0.0045
     27 C          -1.5050  -16.2566   20.8047 C.ar    1  UNL1       -0.0007
     28 C          -2.0892  -16.3883   22.1800 C.ar    1  UNL1       -0.0045
     29 C          -2.9136  -17.5907   22.5327 C.ar    1  UNL1       -0.0245
     30 C          -3.4977  -17.7224   23.9080 C.3     1  UNL1        0.0307
     31 C          -3.1540  -18.6615   21.5101 C.ar    1  UNL1       -0.0105
@<TRIPOS>BOND
     1    24    25    1
     2    25    26   ar
     3    26    27   ar
     4    27    28   ar
     5    28    29   ar
     6    29    30    1
     7    29    31   ar
     8    31    23    1
     9    23    21    1
    10    21     1    1
    11     1     2   ar
    12     2     3   ar
    13     3    12    1
    14    12    13    1
    15    13    14    2
    16    14    15    1
    17    15    16    2
    18    15    17   am
    19    17    18   am
    20    18    19    2
    21     3     4   ar
    22     4     5   ar
    23     5     6   ar
    24     6     7    1
    25     6     8   ar
    26     8     9    1
    27     8    10   ar
    28    10    11   ar
    29    31    25   ar
    30    11     1   ar
    31    18    12    1
    32    11     5   ar
    33    21    22    1
    34    17    20    1
@<TRIPOS>MOLECULE
*****
 31 34 0 0 0
SMALL
GASTEIGER

@<TRIPOS>ATOM
      1 C          -6.0478  -17.5271   22.6913 C.ar    1  UNL1        0.0796
      2 C          -7.4951  -17.4315   23.0735 C.ar    1  UNL1        0.0154
      3 C          -8.4783  -18.4330   22.5441 C.ar    1  UNL1        0.0105
      4 C          -8.0143  -19.5300   21.6324 C.ar    1  UNL1        0.0777
      5 N          -6.5670  -19.6256   21.2501 N.ar    1  UNL1       -0.2922
      6 C          -5.8213  -20.5898   20.3760 C.ar    1  UNL1        0.0567
      7 C          -6.4154  -21.7550   19.6416 C.3     1  UNL1        0.0517
      8 C          -4.3771  -20.1843   20.3652 C.ar    1  UNL1        0.0730
      9 C          -3.2736  -20.8729   19.6181 C.3     1  UNL1        0.0534
     10 N          -4.2303  -18.9695   21.2327 N.ar    1  UNL1       -0.2299
     11 C          -5.5838  -18.6241   21.7796 C.ar    1  UNL1        0.1603
     12 C          -9.9257  -18.3374   22.9263 C.3     1  UNL1        0.1392
     13 C         -10.4069  -18.9603   24.2032 C.2     1  UNL1        0.0771
     14 N         -11.8542  -18.8648   24.5855 N.am    1  UNL1       -0.1646
     15 C         -12.8204  -18.1464   23.6908 C.2     1  UNL1        0.3297
     16 O         -14.2677  -18.0509   24.0731 O.2     1  UNL1       -0.2502
     17 N         -12.3392  -17.5235   22.4139 N.am    1  UNL1       -0.2374
     18 C         -10.8919  -17.6190   22.0317 C.2     1  UNL1        0.2385
     19 O         -10.4107  -16.9961   20.7548 O.2     1  UNL1       -0.2739
     20 H         -12.9734  -17.0519   21.8267 H       1  UNL1        0.1592
     21 N          -5.0645  -16.5256   23.2207 N.pl3   1  UNL1       -0.3267
     22 H          -4.0988  -16.6704   23.0957 H       1  UNL1        0.1472
     23 C          -5.5527  -15.3036   23.9406 C.3     1  UNL1        0.1137
     24 C          -8.4484  -14.5428   23.7500 C.3     1  UNL1        0.0307
     25 C          -7.8934  -15.0644   25.0422 C.ar    1  UNL1       -0.0245
     26 C          -8.7864  -15.2056   26.2392 C.ar    1  UNL1       -0.0045
     27 C          -8.2315  -15.7272   27.5315 C.ar    1  UNL1       -0.0007
     28 C          -6.7836  -16.1076   27.6268 C.ar    1  UNL1       -0.0045
     29 C          -5.8907  -15.9664   26.4299 C.ar    1  UNL1       -0.0245
     30 C          -4.4429  -16.3468   26.5252 C.3     1  UNL1        0.0307
     31 C          -6.4456  -15.4448   25.1375 C.ar    1  UNL1       -0.0105
@<TRIPOS>BOND
     1    24    25    1
     2    25    26   ar
     3    26    27   ar
     4    27    28   ar
     5    28    29   ar
     6    29    30    1
     7    29    31   ar
     8    31    23    1
     9    23    21    1
    10    21     1    1
    11     1     2   ar
    12     2     3   ar
    13     3    12    1
    14    12    13    1
    15    13    14    2
    16    14    15    1
    17    15    16    2
    18    15    17   am
    19    17    18   am
    20    18    19    2
    21     3     4   ar
    22     4     5   ar
    23     5     6   ar
    24     6     7    1
    25     6     8   ar
    26     8     9    1
    27     8    10   ar
    28    10    11   ar
    29    31    25   ar
    30    11     1   ar
    31    18    12    1
    32    11     5   ar
    33    21    22    1
    34    17    20    1
@<TRIPOS>MOLECULE
*****
 31 34 0 0 0
SMALL
GASTEIGER

@<TRIPOS>ATOM
      1 C          -7.6407  -15.9384   22.9494 C.ar    1  UNL1        0.0796
      2 C          -6.3695  -16.3978   22.2990 C.ar    1  UNL1        0.0154
      3 C          -5.1492  -16.6515   23.1335 C.ar    1  UNL1        0.0105
      4 C          -5.2001  -16.4458   24.6185 C.ar    1  UNL1        0.0777
      5 N          -6.4712  -15.9864   25.2689 N.ar    1  UNL1       -0.2922
      6 C          -6.8201  -15.6996   26.6993 C.ar    1  UNL1        0.0567
      7 C          -5.8954  -15.8223   27.8739 C.3     1  UNL1        0.0517
      8 C          -8.2560  -15.2686   26.7488 C.ar    1  UNL1        0.0730
      9 C          -9.0193  -14.8846   27.9817 C.3     1  UNL1        0.0534
     10 N          -8.7946  -15.2890   25.3490 N.ar    1  UNL1       -0.2299
     11 C          -7.6915  -15.7327   24.4344 C.ar    1  UNL1        0.1603
     12 C          -3.8780  -17.1110   22.4831 C.3     1  UNL1        0.1392
     13 C          -2.8586  -16.1057   22.0358 C.2     1  UNL1        0.0771
     14 N          -1.5874  -16.5650   21.3854 N.am    1  UNL1       -0.1646
     15 C          -1.3356  -18.0298   21.1823 C.2     1  UNL1        0.3297
     16 O          -0.0644  -18.4892   20.5319 O.2     1  UNL1       -0.2502
     17 N          -2.3550  -19.0351   21.6297 N.am    1  UNL1       -0.2374
     18 C          -3.6263  -18.5757   22.2801 C.2     1  UNL1        0.2385
     19 O          -4.6457  -19.5810   22.7275 O.2     1  UNL1       -0.2739
     20 H          -2.1898  -19.9965   21.4964 H       1  UNL1        0.1592
     21 N          -8.8610  -15.6846   22.1149 N.pl3   1  UNL1       -0.3267
     22 H          -9.1286  -14.7614   21.9021 H       1  UNL1        0.1472
     23 C          -9.6736  -16.8376   21.6045 C.3     1  UNL1        0.1137
     24 C          -8.5044  -19.3833   22.6780 C.3     1  UNL1        0.0307
     25 C          -9.8786  -18.9533   23.0983 C.ar    1  UNL1       -0.0245
     26 C         -10.6683  -19.7963   24.0554 C.ar    1  UNL1       -0.0045
     27 C         -12.0425  -19.3663   24.4757 C.ar    1  UNL1       -0.0007
     28 C         -12.6271  -18.0935   23.9390 C.ar    1  UNL1       -0.0045
     29 C         -11.8375  -17.2505   22.9819 C.ar    1  UNL1       -0.0245
     30 C         -12.4221  -15.9777   22.4452 C.3     1  UNL1        0.0307
     31 C         -10.4632  -17.6805   22.5616 C.ar    1  UNL1       -0.0105
@<TRIPOS>BOND
     1    24    25    1
     2    25    26   ar
     3    26    27   ar
     4    27    28   ar
     5    28    29   ar
     6    29    30    1
     7    29    31   ar
     8    31    23    1
     9    23    21    1
    10    21     1    1
    11     1     2   ar
    12     2     3   ar
    13     3    12    1
    14    12    13    1
    15    13    14    2
    16    14    15    1
    17    15    16    2
    18    15    17   am
    19    17    18   am
    20    18    19    2
    21     3     4   ar
    22     4     5   ar
    23     5     6   ar
    24     6     7    1
    25     6     8   ar
    26     8     9    1
    27     8    10   ar
    28    10    11   ar
    29    31    25   ar
    30    11     1   ar
    31    18    12    1
    32    11     5   ar
    33    21    22    1
    34    17    20    1
@<TRIPOS>MOLECULE
*****
 31 34 0 0 0
SMALL
GASTEIGER

@<TRIPOS>ATOM
      1 C           3.8524   -2.5770   20.3127 C.ar    1  UNL1        0.0796
      2 C           2.9272   -1.4053   20.1677 C.ar    1  UNL1        0.0154
      3 C           2.6669   -0.5057   21.3394 C.ar    1  UNL1        0.0105
      4 C           3.3317   -0.7779   22.6562 C.ar    1  UNL1        0.0777
      5 N           4.2569   -1.9497   22.8012 N.ar    1  UNL1       -0.2922
      6 C           5.0495   -2.4646   23.9660 C.ar    1  UNL1        0.0567
      7 C           5.0856   -1.8666   25.3411 C.3     1  UNL1        0.0517
      8 C           5.7997   -3.6824   23.5141 C.ar    1  UNL1        0.0730
      9 C           6.7177   -4.5161   24.3581 C.3     1  UNL1        0.0534
     10 N           5.4707   -3.9201   22.0701 N.ar    1  UNL1       -0.2299
     11 C           4.5172   -2.8492   21.6295 C.ar    1  UNL1        0.1603
     12 C           1.7417    0.6661   21.1944 C.3     1  UNL1        0.1392
     13 C           0.2946    0.4433   20.8684 C.2     1  UNL1        0.0771
     14 N          -0.6305    1.6150   20.7234 N.am    1  UNL1       -0.1646
     15 C          -0.1086    3.0097   20.9044 C.2     1  UNL1        0.3297
     16 O          -1.0338    4.1814   20.7593 O.2     1  UNL1       -0.2502
     17 N           1.3385    3.2325   21.2303 N.am    1  UNL1       -0.2374
     18 C           2.2637    2.0606   21.3753 C.2     1  UNL1        0.2385
     19 O           3.7108    2.2835   21.7013 O.2     1  UNL1       -0.2739
     20 H           1.6810    4.1478   21.3491 H       1  UNL1        0.1592
     21 N           4.1127   -3.4766   19.1410 N.pl3   1  UNL1       -0.3267
     22 H           3.5549   -4.2756   19.0002 H       1  UNL1        0.1472
     23 C           5.2230   -3.1590   18.1837 C.3     1  UNL1        0.1137
     24 C           7.8089   -2.6379   19.6125 C.3     1  UNL1        0.0307
     25 C           7.1199   -1.5256   18.8790 C.ar    1  UNL1       -0.0245
     26 C           7.7239   -0.1526   18.8598 C.ar    1  UNL1       -0.0045
     27 C           7.0350    0.9597   18.1263 C.ar    1  UNL1       -0.0007
     28 C           5.7420    0.6991   17.4119 C.ar    1  UNL1       -0.0045
     29 C           5.1380   -0.6737   17.4310 C.ar    1  UNL1       -0.0245
     30 C           3.8451   -0.9343   16.7166 C.3     1  UNL1        0.0307
     31 C           5.8270   -1.7861   18.1646 C.ar    1  UNL1       -0.0105
@<TRIPOS>BOND
     1    24    25    1
     2    25    26   ar
     3    26    27   ar
     4    27    28   ar
     5    28    29   ar
     6    29    30    1
     7    29    31   ar
     8    31    23    1
     9    23    21    1
    10    21     1    1
    11     1     2   ar
    12     2     3   ar
    13     3    12    1
    14    12    13    1
    15    13    14    2
    16    14    15    1
    17    15    16    2
    18    15    17   am
    19    17    18   am
    20    18    19    2
    21     3     4   ar
    22     4     5   ar
    23     5     6   ar
    24     6     7    1
    25     6     8   ar
    26     8     9    1
    27     8    10   ar
    28    10    11   ar
    29    31    25   ar
    30    11     1   ar
    31    18    12    1
    32    11     5   ar
    33    21    22    1
    34    17    20    1
