@<TRIPOS>MOLECULE
*****
 39 43 0 0 0
SMALL
GASTEIGER

@<TRIPOS>ATOM
      1 C           7.0086   -2.2077   31.3125 C.ar    1  UNL1        0.0006
      2 C           8.1233   -1.5450   30.5587 C.ar    1  UNL1        0.0016
      3 C           8.7765   -2.2536   29.4093 C.ar    1  UNL1        0.0196
      4 C           8.3150   -3.6249   29.0137 C.ar    1  UNL1        0.0875
      5 N           8.7647   -4.5623   27.9324 N.ar    1  UNL1       -0.2412
      6 C           7.9280   -5.8042   28.0180 C.ar    1  UNL1        0.1110
      7 S           6.9612   -5.6345   29.1522 S.2     1  UNL1       -0.0693
      8 C           7.2003   -4.2876   29.7676 C.ar    1  UNL1        0.0482
      9 C           6.5472   -3.5790   30.9170 C.ar    1  UNL1        0.0080
     10 C           5.0490   -0.0818   34.7608 C.ar    1  UNL1        0.0536
     11 C           4.4129   -1.3084   34.1767 C.ar    1  UNL1        0.0045
     12 C           5.0662   -2.0169   33.0273 C.ar    1  UNL1        0.0001
     13 C           6.3554   -1.4990   32.4620 C.ar    1  UNL1        0.0000
     14 C           6.9914   -0.2725   33.0460 C.ar    1  UNL1        0.0001
     15 C           6.3382    0.4361   34.1955 C.ar    1  UNL1        0.0045
     16 C           0.8313    5.3443   34.8911 C.3     1  UNL1        0.0897
     17 N           1.7224    4.1650   35.1459 N.3     1  UNL1       -0.2686
     18 C           2.3756    3.4564   33.9965 C.3     1  UNL1        0.0939
     19 C           3.2668    2.2769   34.2513 C.3     1  UNL1        0.1110
     20 N           3.5046    1.8061   35.6555 N.am    1  UNL1       -0.2732
     21 C           4.3957    0.6268   35.9102 C.2     1  UNL1        0.2491
     22 O           4.6336    0.1559   37.3144 O.2     1  UNL1       -0.2699
     23 C           2.8514    2.5148   36.8049 C.3     1  UNL1        0.1110
     24 C           1.9603    3.6942   36.5501 C.3     1  UNL1        0.0939
     25 C           8.0387   -7.0052   27.1259 C.3     1  UNL1        0.2129
     26 C           8.2726   -8.3622   27.7207 C.2     1  UNL1        0.2430
     27 O           9.4335   -8.5865   28.6437 O.2     1  UNL1       -0.2735
     28 N           7.3457   -9.4948   27.3924 N.am    1  UNL1       -0.2955
     29 H           6.5838   -9.3476   26.7866 H       1  UNL1        0.1499
     30 C           7.5797  -10.8519   27.9872 C.3     1  UNL1        0.1757
     31 C           6.4233  -11.7787   28.2188 C.2     1  UNL1        0.2425
     32 O           6.6563  -13.1330   28.8203 O.2     1  UNL1       -0.2733
     33 N           5.0339  -11.3513   27.8490 N.am    1  UNL1       -0.3046
     34 H           4.8809  -10.4625   27.4543 H       1  UNL1        0.1494
     35 C           3.8774  -12.2782   28.0807 C.3     1  UNL1        0.0717
     36 C           2.9340  -13.3296   27.5762 C.3     1  UNL1        0.0213
     37 C           2.8178  -12.8320   28.9864 C.3     1  UNL1        0.0213
     38 C           7.9154   -6.8490   25.6392 C.1     1  UNL1        0.0881
     39 N           7.7920   -6.6928   24.1525 N.1     1  UNL1       -0.1950
@<TRIPOS>BOND
     1    16    17    1
     2    17    18    1
     3    18    19    1
     4    19    20    1
     5    20    21   am
     6    21    22    2
     7    21    10    1
     8    10    11   ar
     9    11    12   ar
    10    12    13   ar
    11    13     1    1
    12     1     2   ar
    13     2     3   ar
    14     3     4   ar
    15     4     5   ar
    16     5     6   ar
    17     6    25    1
    18    25    38    1
    19    38    39    3
    20    25    26    1
    21    26    27    2
    22    26    28   am
    23    28    30    1
    24    30    31    1
    25    31    32    2
    26    31    33   am
    27    33    35    1
    28    35    36    1
    29    36    37    1
    30     6     7   ar
    31     7     8   ar
    32     8     9   ar
    33    13    14   ar
    34    14    15   ar
    35    20    23    1
    36    23    24    1
    37    24    17    1
    38    15    10   ar
    39     9     1   ar
    40     8     4   ar
    41    37    35    1
    42    28    29    1
    43    33    34    1
@<TRIPOS>MOLECULE
*****
 39 43 0 0 0
SMALL
GASTEIGER

@<TRIPOS>ATOM
      1 C           7.1221   -2.9997   31.0431 C.ar    1  UNL1        0.0006
      2 C           8.3066   -3.5568   31.7755 C.ar    1  UNL1        0.0016
      3 C           8.9935   -4.7882   31.2637 C.ar    1  UNL1        0.0196
      4 C           8.4958   -5.4624   30.0196 C.ar    1  UNL1        0.0875
      5 N           8.9658   -6.6810   29.2818 N.ar    1  UNL1       -0.2412
      6 C           8.0716   -6.8769   28.0935 C.ar    1  UNL1        0.1110
      7 S           7.0491   -5.7794   28.0969 S.2     1  UNL1       -0.0693
      8 C           7.3112   -4.9052   29.2873 C.ar    1  UNL1        0.0482
      9 C           6.6244   -3.6739   29.7991 C.ar    1  UNL1        0.0080
     10 C           5.0614    0.6946   32.5784 C.ar    1  UNL1        0.0536
     11 C           6.5566    0.5901   32.6382 C.ar    1  UNL1        0.0045
     12 C           7.2434   -0.6413   32.1264 C.ar    1  UNL1        0.0001
     13 C           6.4351   -1.7682   31.5549 C.ar    1  UNL1        0.0000
     14 C           4.9400   -1.6638   31.4951 C.ar    1  UNL1        0.0001
     15 C           4.2531   -0.4324   32.0068 C.ar    1  UNL1        0.0045
     16 C           2.8102    2.3056   38.8701 C.3     1  UNL1        0.0897
     17 N           3.2013    2.2107   37.4251 N.3     1  UNL1       -0.2686
     18 C           3.8881    0.9793   36.9134 C.3     1  UNL1        0.0939
     19 C           4.2792    0.8844   35.4683 C.3     1  UNL1        0.1110
     20 N           3.9835    2.0209   34.5351 N.am    1  UNL1       -0.2732
     21 C           4.3746    1.9260   33.0901 C.2     1  UNL1        0.2491
     22 O           4.0788    3.0624   32.1568 O.2     1  UNL1       -0.2699
     23 C           3.2966    3.2523   35.0469 C.3     1  UNL1        0.1110
     24 C           2.9055    3.3472   36.4918 C.3     1  UNL1        0.0939
     25 C           8.1808   -7.9771   27.0797 C.3     1  UNL1        0.2129
     26 C           8.1605   -9.4100   27.5229 C.2     1  UNL1        0.2430
     27 O           9.4475  -10.1234   27.8137 O.2     1  UNL1       -0.2735
     28 N           6.8531  -10.1294   27.6751 N.am    1  UNL1       -0.2955
     29 H           6.0084   -9.6611   27.4842 H       1  UNL1        0.1499
     30 C           6.8327  -11.5623   28.1183 C.3     1  UNL1        0.1757
     31 C           5.5348  -12.3123   28.1723 C.2     1  UNL1        0.2425
     32 O           5.4011  -13.6316   27.4712 O.2     1  UNL1       -0.2733
     33 N           4.3705  -11.7428   28.9274 N.am    1  UNL1       -0.3046
     34 H           4.4583  -10.8769   29.3875 H       1  UNL1        0.1494
     35 C           3.0725  -12.4928   28.9814 C.3     1  UNL1        0.0717
     36 C           2.0160  -13.2055   29.7725 C.3     1  UNL1        0.0213
     37 C           1.8809  -13.0789   28.2840 C.3     1  UNL1        0.0213
     38 C           8.3103   -7.6443   25.6229 C.1     1  UNL1        0.0881
     39 N           8.4399   -7.3116   24.1660 N.1     1  UNL1       -0.1950
@<TRIPOS>BOND
     1    16    17    1
     2    17    18    1
     3    18    19    1
     4    19    20    1
     5    20    21   am
     6    21    22    2
     7    21    10    1
     8    10    11   ar
     9    11    12   ar
    10    12    13   ar
    11    13     1    1
    12     1     2   ar
    13     2     3   ar
    14     3     4   ar
    15     4     5   ar
    16     5     6   ar
    17     6    25    1
    18    25    38    1
    19    38    39    3
    20    25    26    1
    21    26    27    2
    22    26    28   am
    23    28    30    1
    24    30    31    1
    25    31    32    2
    26    31    33   am
    27    33    35    1
    28    35    36    1
    29    36    37    1
    30     6     7   ar
    31     7     8   ar
    32     8     9   ar
    33    13    14   ar
    34    14    15   ar
    35    20    23    1
    36    23    24    1
    37    24    17    1
    38    15    10   ar
    39     9     1   ar
    40     8     4   ar
    41    37    35    1
    42    28    29    1
    43    33    34    1
@<TRIPOS>MOLECULE
*****
 39 43 0 0 0
SMALL
GASTEIGER

@<TRIPOS>ATOM
      1 C           6.4079   -3.4426   31.2551 C.ar    1  UNL1        0.0006
      2 C           6.8338   -4.8474   31.5634 C.ar    1  UNL1        0.0016
      3 C           7.2420   -5.7683   30.4521 C.ar    1  UNL1        0.0196
      4 C           7.2243   -5.2845   29.0324 C.ar    1  UNL1        0.0875
      5 N           7.5705   -5.9587   27.7378 N.ar    1  UNL1       -0.2412
      6 C           7.3584   -4.9705   26.6294 C.ar    1  UNL1        0.1110
      7 S           6.8813   -3.6857   27.2389 S.2     1  UNL1       -0.0693
      8 C           6.7984   -3.8797   28.7240 C.ar    1  UNL1        0.0482
      9 C           6.3902   -2.9588   29.8354 C.ar    1  UNL1        0.0080
     10 C           5.1831   -0.6796   34.5892 C.ar    1  UNL1        0.0536
     11 C           6.5048   -0.4902   33.9054 C.ar    1  UNL1        0.0045
     12 C           6.9130   -1.4112   32.7941 C.ar    1  UNL1        0.0001
     13 C           5.9996   -2.5216   32.3665 C.ar    1  UNL1        0.0000
     14 C           4.6780   -2.7109   33.0502 C.ar    1  UNL1        0.0001
     15 C           4.2697   -1.7899   34.1615 C.ar    1  UNL1        0.0045
     16 C           1.0389    4.8045   34.5956 C.3     1  UNL1        0.0897
     17 N           1.9729    3.6637   34.8718 N.3     1  UNL1       -0.2686
     18 C           2.3811    2.7427   33.7605 C.3     1  UNL1        0.0939
     19 C           3.3151    1.6019   34.0367 C.3     1  UNL1        0.1110
     20 N           3.8409    1.3822   35.4243 N.am    1  UNL1       -0.2732
     21 C           4.7749    0.2414   35.7005 C.2     1  UNL1        0.2491
     22 O           5.3007    0.0217   37.0880 O.2     1  UNL1       -0.2699
     23 C           3.4327    2.3033   36.5356 C.3     1  UNL1        0.1110
     24 C           2.4987    3.4440   36.2594 C.3     1  UNL1        0.0939
     25 C           7.5839   -5.2229   25.1681 C.3     1  UNL1        0.2129
     26 C           7.1222   -4.2191   24.1536 C.2     1  UNL1        0.2430
     27 O           5.6776   -3.8190   24.0981 O.2     1  UNL1       -0.2735
     28 N           8.1050   -3.6154   23.1947 N.am    1  UNL1       -0.2955
     29 H           9.0532   -3.8780   23.2312 H       1  UNL1        0.1499
     30 C           7.6433   -2.6115   22.1802 C.3     1  UNL1        0.1757
     31 C           6.8465   -3.0593   20.9909 C.2     1  UNL1        0.2425
     32 O           7.4090   -2.9026   19.6092 O.2     1  UNL1       -0.2733
     33 N           5.4872   -3.6637   21.1832 N.am    1  UNL1       -0.3046
     34 H           5.1181   -3.7665   22.0901 H       1  UNL1        0.1494
     35 C           4.6904   -4.1115   19.9938 C.3     1  UNL1        0.0717
     36 C           4.5360   -4.9950   18.7915 C.3     1  UNL1        0.0213
     37 C           3.4645   -4.0036   19.1362 C.3     1  UNL1        0.0213
     38 C           8.2712   -6.4791   24.7212 C.1     1  UNL1        0.0881
     39 N           8.9585   -7.7352   24.2744 N.1     1  UNL1       -0.1950
@<TRIPOS>BOND
     1    16    17    1
     2    17    18    1
     3    18    19    1
     4    19    20    1
     5    20    21   am
     6    21    22    2
     7    21    10    1
     8    10    11   ar
     9    11    12   ar
    10    12    13   ar
    11    13     1    1
    12     1     2   ar
    13     2     3   ar
    14     3     4   ar
    15     4     5   ar
    16     5     6   ar
    17     6    25    1
    18    25    38    1
    19    38    39    3
    20    25    26    1
    21    26    27    2
    22    26    28   am
    23    28    30    1
    24    30    31    1
    25    31    32    2
    26    31    33   am
    27    33    35    1
    28    35    36    1
    29    36    37    1
    30     6     7   ar
    31     7     8   ar
    32     8     9   ar
    33    13    14   ar
    34    14    15   ar
    35    20    23    1
    36    23    24    1
    37    24    17    1
    38    15    10   ar
    39     9     1   ar
    40     8     4   ar
    41    37    35    1
    42    28    29    1
    43    33    34    1
@<TRIPOS>MOLECULE
*****
 39 43 0 0 0
SMALL
GASTEIGER

@<TRIPOS>ATOM
      1 C           0.7165    2.5358   29.4383 C.ar    1  UNL1        0.0006
      2 C           0.3506    3.4079   30.6025 C.ar    1  UNL1        0.0016
      3 C           0.9593    3.1547   31.9498 C.ar    1  UNL1        0.0196
      4 C           1.9339    2.0293   32.1329 C.ar    1  UNL1        0.0875
      5 N           2.6902    1.5418   33.3332 N.ar    1  UNL1       -0.2412
      6 C           3.5236    0.3684   32.9107 C.ar    1  UNL1        0.1110
      7 S           3.2823    0.1306   31.4494 S.2     1  UNL1       -0.0693
      8 C           2.2998    1.1571   30.9688 C.ar    1  UNL1        0.0482
      9 C           1.6911    1.4103   29.6214 C.ar    1  UNL1        0.0080
     10 C          -1.1096    3.2954   25.3962 C.ar    1  UNL1        0.0536
     11 C          -0.8225    4.4440   26.3173 C.ar    1  UNL1        0.0045
     12 C          -0.2138    4.1907   27.6647 C.ar    1  UNL1        0.0001
     13 C           0.1078    2.7890   28.0909 C.ar    1  UNL1        0.0000
     14 C          -0.1793    1.6405   27.1698 C.ar    1  UNL1        0.0001
     15 C          -0.7880    1.8937   25.8224 C.ar    1  UNL1        0.0045
     16 C          -7.6218    4.4992   23.5547 C.3     1  UNL1        0.0897
     17 N          -6.1459    4.2616   23.6782 N.3     1  UNL1       -0.2686
     18 C          -5.5372    4.0083   25.0256 C.3     1  UNL1        0.0939
     19 C          -4.0613    3.7707   25.1491 C.3     1  UNL1        0.1110
     20 N          -3.1941    3.7863   23.9253 N.am    1  UNL1       -0.2732
     21 C          -1.7182    3.5487   24.0488 C.2     1  UNL1        0.2491
     22 O          -0.8510    3.5643   22.8250 O.2     1  UNL1       -0.2699
     23 C          -3.8029    4.0396   22.5779 C.3     1  UNL1        0.1110
     24 C          -5.2787    4.2772   22.4544 C.3     1  UNL1        0.0939
     25 C           4.4377   -0.4276   33.7943 C.3     1  UNL1        0.2129
     26 C           4.7783    0.0734   35.1665 C.2     1  UNL1        0.2430
     27 O           5.2282   -0.8885   36.2259 O.2     1  UNL1       -0.2735
     28 N           4.6690    1.5363   35.4793 N.am    1  UNL1       -0.2955
     29 H           4.3738    2.1676   34.7839 H       1  UNL1        0.1499
     30 C           5.0096    2.0374   36.8515 C.3     1  UNL1        0.1757
     31 C           4.0669    1.7969   37.9932 C.2     1  UNL1        0.2425
     32 O           4.5184    2.0406   39.4027 O.2     1  UNL1       -0.2733
     33 N           2.6728    1.3127   37.7253 N.am    1  UNL1       -0.3046
     34 H           2.3765    1.1527   36.8001 H       1  UNL1        0.1494
     35 C           1.7300    1.0721   38.8670 C.3     1  UNL1        0.0717
     36 C           1.1178    0.1423   39.8723 C.3     1  UNL1        0.0213
     37 C           0.7093    1.5852   39.8390 C.3     1  UNL1        0.0213
     38 C           5.0113   -1.7247   33.3057 C.1     1  UNL1        0.0881
     39 N           5.5848   -3.0217   32.8171 N.1     1  UNL1       -0.1950
@<TRIPOS>BOND
     1    16    17    1
     2    17    18    1
     3    18    19    1
     4    19    20    1
     5    20    21   am
     6    21    22    2
     7    21    10    1
     8    10    11   ar
     9    11    12   ar
    10    12    13   ar
    11    13     1    1
    12     1     2   ar
    13     2     3   ar
    14     3     4   ar
    15     4     5   ar
    16     5     6   ar
    17     6    25    1
    18    25    38    1
    19    38    39    3
    20    25    26    1
    21    26    27    2
    22    26    28   am
    23    28    30    1
    24    30    31    1
    25    31    32    2
    26    31    33   am
    27    33    35    1
    28    35    36    1
    29    36    37    1
    30     6     7   ar
    31     7     8   ar
    32     8     9   ar
    33    13    14   ar
    34    14    15   ar
    35    20    23    1
    36    23    24    1
    37    24    17    1
    38    15    10   ar
    39     9     1   ar
    40     8     4   ar
    41    37    35    1
    42    28    29    1
    43    33    34    1
@<TRIPOS>MOLECULE
*****
 39 43 0 0 0
SMALL
GASTEIGER

@<TRIPOS>ATOM
      1 C           0.8670    2.3515   29.3715 C.ar    1  UNL1        0.0006
      2 C           0.6349    3.3300   30.4845 C.ar    1  UNL1        0.0016
      3 C           1.2315    3.0815   31.8381 C.ar    1  UNL1        0.0196
      4 C           2.0601    1.8545   32.0787 C.ar    1  UNL1        0.0875
      5 N           2.7710    1.3467   33.2982 N.ar    1  UNL1       -0.2412
      6 C           3.4423    0.0544   32.9388 C.ar    1  UNL1        0.1110
      7 S           3.1464   -0.2365   31.4973 S.2     1  UNL1       -0.0693
      8 C           2.2922    0.8760   30.9658 C.ar    1  UNL1        0.0482
      9 C           1.6956    1.1245   29.6122 C.ar    1  UNL1        0.0080
     10 C          -0.9227    3.0969   25.3105 C.ar    1  UNL1        0.0536
     11 C          -0.6399    4.2491   26.2285 C.ar    1  UNL1        0.0045
     12 C          -0.0433    4.0006   27.5821 C.ar    1  UNL1        0.0001
     13 C           0.2704    2.5999   28.0178 C.ar    1  UNL1        0.0000
     14 C          -0.0124    1.4478   27.0999 C.ar    1  UNL1        0.0001
     15 C          -0.6090    1.6963   25.7462 C.ar    1  UNL1        0.0045
     16 C          -7.3964    4.4284   23.4216 C.3     1  UNL1        0.0897
     17 N          -5.9271    4.1576   23.5554 N.3     1  UNL1       -0.2686
     18 C          -5.3306    3.9091   24.9090 C.3     1  UNL1        0.0939
     19 C          -3.8612    3.6384   25.0429 C.3     1  UNL1        0.1110
     20 N          -2.9885    3.6162   23.8231 N.am    1  UNL1       -0.2732
     21 C          -1.5193    3.3454   23.9569 C.2     1  UNL1        0.2491
     22 O          -0.6466    3.3232   22.7371 O.2     1  UNL1       -0.2699
     23 C          -3.5852    3.8647   22.4694 C.3     1  UNL1        0.1110
     24 C          -5.0544    4.1354   22.3356 C.3     1  UNL1        0.0939
     25 C           4.2652   -0.7975   33.8593 C.3     1  UNL1        0.2129
     26 C           4.7004   -2.1660   33.4260 C.2     1  UNL1        0.2430
     27 O           3.8152   -3.3500   33.6801 O.2     1  UNL1       -0.2735
     28 N           6.0207   -2.3505   32.7386 N.am    1  UNL1       -0.2955
     29 H           6.6017   -1.5734   32.5718 H       1  UNL1        0.1499
     30 C           6.4559   -3.7191   32.3052 C.3     1  UNL1        0.1757
     31 C           6.6194   -4.0271   30.8463 C.2     1  UNL1        0.2425
     32 O           6.6597   -2.9118   29.8442 O.2     1  UNL1       -0.2733
     33 N           6.7427   -5.4506   30.3897 N.am    1  UNL1       -0.3046
     34 H           6.7163   -6.1826   31.0475 H       1  UNL1        0.1494
     35 C           6.9062   -5.7587   28.9308 C.3     1  UNL1        0.0717
     36 C           7.6356   -6.4636   27.8257 C.3     1  UNL1        0.0213
     37 C           6.4600   -5.5876   27.5090 C.3     1  UNL1        0.0213
     38 C           4.6529   -0.2809   35.2131 C.1     1  UNL1        0.0881
     39 N           5.0405    0.2358   36.5669 N.1     1  UNL1       -0.1950
@<TRIPOS>BOND
     1    16    17    1
     2    17    18    1
     3    18    19    1
     4    19    20    1
     5    20    21   am
     6    21    22    2
     7    21    10    1
     8    10    11   ar
     9    11    12   ar
    10    12    13   ar
    11    13     1    1
    12     1     2   ar
    13     2     3   ar
    14     3     4   ar
    15     4     5   ar
    16     5     6   ar
    17     6    25    1
    18    25    38    1
    19    38    39    3
    20    25    26    1
    21    26    27    2
    22    26    28   am
    23    28    30    1
    24    30    31    1
    25    31    32    2
    26    31    33   am
    27    33    35    1
    28    35    36    1
    29    36    37    1
    30     6     7   ar
    31     7     8   ar
    32     8     9   ar
    33    13    14   ar
    34    14    15   ar
    35    20    23    1
    36    23    24    1
    37    24    17    1
    38    15    10   ar
    39     9     1   ar
    40     8     4   ar
    41    37    35    1
    42    28    29    1
    43    33    34    1
@<TRIPOS>MOLECULE
*****
 39 43 0 0 0
SMALL
GASTEIGER

@<TRIPOS>ATOM
      1 C           5.8838   -2.1183   30.4125 C.ar    1  UNL1        0.0006
      2 C           5.4485   -1.3281   29.2141 C.ar    1  UNL1        0.0016
      3 C           5.6381   -1.8897   27.8362 C.ar    1  UNL1        0.0196
      4 C           6.2631   -3.2414   27.6567 C.ar    1  UNL1        0.0875
      5 N           6.5759   -4.0478   26.4311 N.ar    1  UNL1       -0.2412
      6 C           7.2045   -5.3364   26.8721 C.ar    1  UNL1        0.1110
      7 S           7.2802   -5.3263   28.3702 S.2     1  UNL1       -0.0693
      8 C           6.6984   -4.0316   28.8551 C.ar    1  UNL1        0.0482
      9 C           6.5087   -3.4700   30.2329 C.ar    1  UNL1        0.0080
     10 C           5.3148   -0.4336   34.5463 C.ar    1  UNL1        0.0536
     11 C           4.4515   -1.5649   34.0720 C.ar    1  UNL1        0.0045
     12 C           4.6411   -2.1264   32.6941 C.ar    1  UNL1        0.0001
     13 C           5.6941   -1.5567   31.7904 C.ar    1  UNL1        0.0000
     14 C           6.5574   -0.4254   32.2647 C.ar    1  UNL1        0.0001
     15 C           6.3677    0.1361   33.6427 C.ar    1  UNL1        0.0045
     16 C           1.1956    4.5688   36.8393 C.3     1  UNL1        0.0897
     17 N           2.1780    3.4586   36.6105 N.3     1  UNL1       -0.2686
     18 C           2.3677    2.8971   35.2326 C.3     1  UNL1        0.0939
     19 C           3.3501    1.7868   35.0038 C.3     1  UNL1        0.1110
     20 N           4.1427    1.2381   36.1530 N.am    1  UNL1       -0.2732
     21 C           5.1251    0.1279   35.9242 C.2     1  UNL1        0.2491
     22 O           5.9178   -0.4208   37.0734 O.2     1  UNL1       -0.2699
     23 C           3.9530    1.7997   37.5309 C.3     1  UNL1        0.1110
     24 C           2.9707    2.9099   37.7597 C.3     1  UNL1        0.0939
     25 C           7.6748   -6.4411   25.9729 C.3     1  UNL1        0.2129
     26 C           7.9373   -6.1666   24.5218 C.2     1  UNL1        0.2430
     27 O           8.1041   -7.3064   23.5611 O.2     1  UNL1       -0.2735
     28 N           8.0330   -4.7523   24.0315 N.am    1  UNL1       -0.2955
     29 H           7.9235   -4.0042   24.6620 H       1  UNL1        0.1499
     30 C           8.2955   -4.4777   22.5803 C.3     1  UNL1        0.1757
     31 C           7.1767   -4.0292   21.6875 C.2     1  UNL1        0.2425
     32 O           5.7533   -4.3017   22.0743 O.2     1  UNL1       -0.2733
     33 N           7.4814   -3.3083   20.4079 N.am    1  UNL1       -0.3046
     34 H           8.4156   -3.1295   20.1541 H       1  UNL1        0.1494
     35 C           6.3625   -2.8598   19.5151 C.3     1  UNL1        0.0717
     36 C           5.4801   -3.0879   18.3237 C.3     1  UNL1        0.0213
     37 C           5.3072   -1.8548   19.1599 C.3     1  UNL1        0.0213
     38 C           7.8826   -7.8203   26.5249 C.1     1  UNL1        0.0881
     39 N           8.0905   -9.1994   27.0769 N.1     1  UNL1       -0.1950
@<TRIPOS>BOND
     1    16    17    1
     2    17    18    1
     3    18    19    1
     4    19    20    1
     5    20    21   am
     6    21    22    2
     7    21    10    1
     8    10    11   ar
     9    11    12   ar
    10    12    13   ar
    11    13     1    1
    12     1     2   ar
    13     2     3   ar
    14     3     4   ar
    15     4     5   ar
    16     5     6   ar
    17     6    25    1
    18    25    38    1
    19    38    39    3
    20    25    26    1
    21    26    27    2
    22    26    28   am
    23    28    30    1
    24    30    31    1
    25    31    32    2
    26    31    33   am
    27    33    35    1
    28    35    36    1
    29    36    37    1
    30     6     7   ar
    31     7     8   ar
    32     8     9   ar
    33    13    14   ar
    34    14    15   ar
    35    20    23    1
    36    23    24    1
    37    24    17    1
    38    15    10   ar
    39     9     1   ar
    40     8     4   ar
    41    37    35    1
    42    28    29    1
    43    33    34    1
@<TRIPOS>MOLECULE
*****
 39 43 0 0 0
SMALL
GASTEIGER

@<TRIPOS>ATOM
      1 C           6.5381   -3.7964   22.1806 C.ar    1  UNL1        0.0006
      2 C           7.7765   -4.4284   21.6176 C.ar    1  UNL1        0.0016
      3 C           8.6162   -5.3274   22.4758 C.ar    1  UNL1        0.0196
      4 C           8.2176   -5.5944   23.8970 C.ar    1  UNL1        0.0875
      5 N           8.8425   -6.4301   24.9747 N.ar    1  UNL1       -0.2412
      6 C           7.9903   -6.3145   26.2037 C.ar    1  UNL1        0.1110
      7 S           6.8387   -5.4074   25.8855 S.2     1  UNL1       -0.0693
      8 C           6.9792   -4.9624   24.4600 C.ar    1  UNL1        0.0482
      9 C           6.1395   -4.0634   23.6017 C.ar    1  UNL1        0.0080
     10 C           4.0188   -1.0993   19.6059 C.ar    1  UNL1        0.0536
     11 C           3.6304   -2.5362   19.7916 C.ar    1  UNL1        0.0045
     12 C           4.4701   -3.4352   20.6498 C.ar    1  UNL1        0.0001
     13 C           5.6983   -2.8973   21.3223 C.ar    1  UNL1        0.0000
     14 C           6.0868   -1.4605   21.1366 C.ar    1  UNL1        0.0001
     15 C           5.2470   -0.5614   20.2783 C.ar    1  UNL1        0.0045
     16 C          -1.2457    3.0201   21.2075 C.3     1  UNL1        0.0897
     17 N          -0.1395    2.2150   20.5925 N.3     1  UNL1       -0.2686
     18 C           0.7003    1.3160   21.4507 C.3     1  UNL1        0.0939
     19 C           1.8065    0.5109   20.8358 C.3     1  UNL1        0.1110
     20 N           2.0729    0.6048   19.3626 N.am    1  UNL1       -0.2732
     21 C           3.1790   -0.2003   18.7476 C.2     1  UNL1        0.2491
     22 O           3.4454   -0.1064   17.2745 O.2     1  UNL1       -0.2699
     23 C           1.2330    1.5038   18.5044 C.3     1  UNL1        0.1110
     24 C           0.1269    2.3089   19.1194 C.3     1  UNL1        0.0939
     25 C           8.2449   -6.9877   27.5197 C.3     1  UNL1        0.2129
     26 C           8.3983   -6.1660   28.7652 C.2     1  UNL1        0.2430
     27 O           9.4794   -5.1298   28.8518 O.2     1  UNL1       -0.2735
     28 N           7.4705   -6.3805   29.9242 N.am    1  UNL1       -0.2955
     29 H           6.7610   -7.0606   29.8673 H       1  UNL1        0.1499
     30 C           7.6238   -5.5588   31.1697 C.3     1  UNL1        0.1757
     31 C           6.8012   -4.3184   31.3559 C.2     1  UNL1        0.2425
     32 O           6.6986   -3.3131   30.2474 O.2     1  UNL1       -0.2733
     33 N           6.0812   -4.0834   32.6506 N.am    1  UNL1       -0.3046
     34 H           6.1486   -4.7433   33.3782 H       1  UNL1        0.1494
     35 C           5.2585   -2.8430   32.8369 C.3     1  UNL1        0.0717
     36 C           4.4495   -1.9415   33.7216 C.3     1  UNL1        0.0213
     37 C           4.6428   -1.5961   32.2748 C.3     1  UNL1        0.0213
     38 C           8.3462   -8.4826   27.5902 C.1     1  UNL1        0.0881
     39 N           8.4475   -9.9775   27.6607 N.1     1  UNL1       -0.1950
@<TRIPOS>BOND
     1    16    17    1
     2    17    18    1
     3    18    19    1
     4    19    20    1
     5    20    21   am
     6    21    22    2
     7    21    10    1
     8    10    11   ar
     9    11    12   ar
    10    12    13   ar
    11    13     1    1
    12     1     2   ar
    13     2     3   ar
    14     3     4   ar
    15     4     5   ar
    16     5     6   ar
    17     6    25    1
    18    25    38    1
    19    38    39    3
    20    25    26    1
    21    26    27    2
    22    26    28   am
    23    28    30    1
    24    30    31    1
    25    31    32    2
    26    31    33   am
    27    33    35    1
    28    35    36    1
    29    36    37    1
    30     6     7   ar
    31     7     8   ar
    32     8     9   ar
    33    13    14   ar
    34    14    15   ar
    35    20    23    1
    36    23    24    1
    37    24    17    1
    38    15    10   ar
    39     9     1   ar
    40     8     4   ar
    41    37    35    1
    42    28    29    1
    43    33    34    1
@<TRIPOS>MOLECULE
*****
 39 43 0 0 0
SMALL
GASTEIGER

@<TRIPOS>ATOM
      1 C          -0.2214    2.1713   26.8731 C.ar    1  UNL1        0.0006
      2 C          -0.5565    0.7911   27.3556 C.ar    1  UNL1        0.0016
      3 C          -0.3687    0.4357   28.8007 C.ar    1  UNL1        0.0196
      4 C           0.1541    1.4604   29.7633 C.ar    1  UNL1        0.0875
      5 N           0.4407    1.4013   31.2346 N.ar    1  UNL1       -0.2412
      6 C           0.9529    2.7449   31.6613 C.ar    1  UNL1        0.1110
      7 S           0.9829    3.6344   30.4538 S.2     1  UNL1       -0.0693
      8 C           0.4892    2.8405   29.2809 C.ar    1  UNL1        0.0482
      9 C           0.3015    3.1960   27.8358 C.ar    1  UNL1        0.0080
     10 C          -0.7845    3.2378   22.5377 C.ar    1  UNL1        0.0536
     11 C           0.0835    2.0747   22.9174 C.ar    1  UNL1        0.0045
     12 C           0.2711    1.7193   24.3625 C.ar    1  UNL1        0.0001
     13 C          -0.4091    2.5268   25.4280 C.ar    1  UNL1        0.0000
     14 C          -1.2770    3.6898   25.0483 C.ar    1  UNL1        0.0001
     15 C          -1.4647    4.0453   23.6032 C.ar    1  UNL1        0.0045
     16 C          -6.4718    3.5969   18.6939 C.3     1  UNL1        0.0897
     17 N          -5.0969    3.5960   19.2936 N.3     1  UNL1       -0.2686
     18 C          -4.9092    3.2405   20.7387 C.3     1  UNL1        0.0939
     19 C          -3.5342    3.2396   21.3384 C.3     1  UNL1        0.1110
     20 N          -2.3470    3.5942   20.4929 N.am    1  UNL1       -0.2732
     21 C          -0.9721    3.5933   21.0926 C.2     1  UNL1        0.2491
     22 O           0.2151    3.9478   20.2471 O.2     1  UNL1       -0.2699
     23 C          -2.5348    3.9496   19.0478 C.3     1  UNL1        0.1110
     24 C          -3.9097    3.9505   18.4481 C.3     1  UNL1        0.0939
     25 C           1.3632    3.1313   33.0515 C.3     1  UNL1        0.2129
     26 C           2.1887    2.1909   33.8785 C.2     1  UNL1        0.2430
     27 O           2.2561    2.3630   35.3671 O.2     1  UNL1       -0.2735
     28 N           2.9468    1.0785   33.2170 N.am    1  UNL1       -0.2955
     29 H           2.9026    0.9656   32.2400 H       1  UNL1        0.1499
     30 C           3.7724    0.1380   34.0440 C.3     1  UNL1        0.1757
     31 C           4.3312   -1.1100   33.4274 C.2     1  UNL1        0.2425
     32 O           3.7652   -2.4485   33.7990 O.2     1  UNL1       -0.2733
     33 N           5.4560   -1.0195   32.4392 N.am    1  UNL1       -0.3046
     34 H           5.8275   -0.1410   32.1953 H       1  UNL1        0.1494
     35 C           6.0148   -2.2675   31.8225 C.3     1  UNL1        0.0717
     36 C           6.5362   -3.6666   31.9665 C.3     1  UNL1        0.0213
     37 C           6.4614   -3.0299   30.6104 C.3     1  UNL1        0.0213
     38 C           0.9479    4.4582   33.6145 C.1     1  UNL1        0.0881
     39 N           0.5325    5.7850   34.1775 N.1     1  UNL1       -0.1950
@<TRIPOS>BOND
     1    16    17    1
     2    17    18    1
     3    18    19    1
     4    19    20    1
     5    20    21   am
     6    21    22    2
     7    21    10    1
     8    10    11   ar
     9    11    12   ar
    10    12    13   ar
    11    13     1    1
    12     1     2   ar
    13     2     3   ar
    14     3     4   ar
    15     4     5   ar
    16     5     6   ar
    17     6    25    1
    18    25    38    1
    19    38    39    3
    20    25    26    1
    21    26    27    2
    22    26    28   am
    23    28    30    1
    24    30    31    1
    25    31    32    2
    26    31    33   am
    27    33    35    1
    28    35    36    1
    29    36    37    1
    30     6     7   ar
    31     7     8   ar
    32     8     9   ar
    33    13    14   ar
    34    14    15   ar
    35    20    23    1
    36    23    24    1
    37    24    17    1
    38    15    10   ar
    39     9     1   ar
    40     8     4   ar
    41    37    35    1
    42    28    29    1
    43    33    34    1
@<TRIPOS>MOLECULE
*****
 39 43 0 0 0
SMALL
GASTEIGER

@<TRIPOS>ATOM
      1 C          -1.5759    2.9753   26.0785 C.ar    1  UNL1        0.0006
      2 C          -0.8681    3.1322   24.7654 C.ar    1  UNL1        0.0016
      3 C          -1.6353    3.5450   23.5444 C.ar    1  UNL1        0.0196
      4 C          -3.1105    3.8009   23.6365 C.ar    1  UNL1        0.0875
      5 N          -4.1230    4.2167   22.6108 N.ar    1  UNL1       -0.2412
      6 C          -5.4566    4.3167   23.2900 C.ar    1  UNL1        0.1110
      7 S          -5.2683    3.9628   24.7355 S.2     1  UNL1       -0.0693
      8 C          -3.8183    3.6441   24.9496 C.ar    1  UNL1        0.0482
      9 C          -3.0511    3.2313   26.1706 C.ar    1  UNL1        0.0080
     10 C           0.7258    1.7368   29.7416 C.ar    1  UNL1        0.0536
     11 C          -0.3107    0.8205   29.1616 C.ar    1  UNL1        0.0045
     12 C          -1.0779    1.2334   27.9406 C.ar    1  UNL1        0.0001
     13 C          -0.8087    2.5625   27.2995 C.ar    1  UNL1        0.0000
     14 C           0.2277    3.4787   27.8795 C.ar    1  UNL1        0.0001
     15 C           0.9949    3.0659   29.1005 C.ar    1  UNL1        0.0045
     16 C           6.3774   -2.1173   30.4153 C.3     1  UNL1        0.0897
     17 N           5.1563   -1.2570   30.5521 N.3     1  UNL1       -0.2686
     18 C           4.3891   -0.8441   29.3311 C.3     1  UNL1        0.0939
     19 C           3.1680    0.0162   29.4679 C.3     1  UNL1        0.1110
     20 N           2.7141    0.4636   30.8258 N.am    1  UNL1       -0.2732
     21 C           1.4930    1.3239   30.9626 C.2     1  UNL1        0.2491
     22 O           1.0390    1.7713   32.3205 O.2     1  UNL1       -0.2699
     23 C           3.4813    0.0507   32.0469 C.3     1  UNL1        0.1110
     24 C           4.7024   -0.8096   31.9100 C.3     1  UNL1        0.0939
     25 C          -6.7513    4.7028   22.6382 C.3     1  UNL1        0.2129
     26 C          -6.8483    4.7669   21.1428 C.2     1  UNL1        0.2430
     27 O          -7.7981    5.7293   20.4933 O.2     1  UNL1       -0.2735
     28 N          -5.9956    3.8686   20.2968 N.am    1  UNL1       -0.2955
     29 H          -5.3722    3.2370   20.7230 H       1  UNL1        0.1499
     30 C          -6.0926    3.9326   18.8012 C.3     1  UNL1        0.1757
     31 C          -4.8555    4.1351   17.9774 C.2     1  UNL1        0.2425
     32 O          -4.9691    4.5971   16.5548 O.2     1  UNL1       -0.2733
     33 N          -3.5050    3.8756   18.5762 N.am    1  UNL1       -0.3046
     34 H          -3.4305    3.5724   19.5098 H       1  UNL1        0.1494
     35 C          -2.2678    4.0781   17.7524 C.3     1  UNL1        0.0717
     36 C          -0.8568    3.6991   17.4128 C.3     1  UNL1        0.0213
     37 C          -1.5362    4.8078   16.6651 C.3     1  UNL1        0.0213
     38 C          -7.9490    5.0249   23.4820 C.1     1  UNL1        0.0881
     39 N          -9.1466    5.3469   24.3258 N.1     1  UNL1       -0.1950
@<TRIPOS>BOND
     1    16    17    1
     2    17    18    1
     3    18    19    1
     4    19    20    1
     5    20    21   am
     6    21    22    2
     7    21    10    1
     8    10    11   ar
     9    11    12   ar
    10    12    13   ar
    11    13     1    1
    12     1     2   ar
    13     2     3   ar
    14     3     4   ar
    15     4     5   ar
    16     5     6   ar
    17     6    25    1
    18    25    38    1
    19    38    39    3
    20    25    26    1
    21    26    27    2
    22    26    28   am
    23    28    30    1
    24    30    31    1
    25    31    32    2
    26    31    33   am
    27    33    35    1
    28    35    36    1
    29    36    37    1
    30     6     7   ar
    31     7     8   ar
    32     8     9   ar
    33    13    14   ar
    34    14    15   ar
    35    20    23    1
    36    23    24    1
    37    24    17    1
    38    15    10   ar
    39     9     1   ar
    40     8     4   ar
    41    37    35    1
    42    28    29    1
    43    33    34    1
