@<TRIPOS>MOLECULE
*****
 28 31 0 0 0
SMALL
GASTEIGER

@<TRIPOS>ATOM
      1 C          -6.0703  -19.2463   20.2253 C.ar    1  UNL1        0.2261
      2 N          -6.9349  -20.2978   19.5952 N.ar    1  UNL1       -0.1114
      3 N          -8.3583  -20.0171   19.9763 N.ar    1  UNL1       -0.1056
      4 C          -8.3734  -18.7922   20.8419 C.ar    1  UNL1        0.2673
      5 O          -6.9594  -18.3158   20.9958 O.2     1  UNL1       -0.4182
      6 C          -9.5892  -18.1554   21.4473 C.ar    1  UNL1        0.1376
      7 C         -10.9313  -18.3384   20.8030 C.ar    1  UNL1        0.0240
      8 C         -12.1470  -17.7016   21.4084 C.ar    1  UNL1        0.0032
      9 C         -12.0205  -16.8817   22.6582 C.ar    1  UNL1        0.0192
     10 C         -10.6784  -16.6986   23.3024 C.ar    1  UNL1        0.0842
     11 C         -10.2476  -15.9511   24.5295 C.ar    1  UNL1        0.0356
     12 C          -8.7657  -16.1260   24.6824 C.ar    1  UNL1        0.0801
     13 N          -8.2805  -16.9815   23.5499 N.ar    1  UNL1       -0.1694
     14 N          -9.4627  -17.3354   22.6970 N.ar    1  UNL1       -0.2253
     15 C          -7.9177  -15.5468   25.7759 C.3     1  UNL1        0.0421
     16 C          -8.4969  -15.3392   27.1439 C.3     1  UNL1        0.0064
     17 C          -6.4906  -15.1754   25.5014 C.3     1  UNL1        0.0064
     18 N          -1.5953  -18.9378   19.8671 N.3     1  UNL1       -0.2726
     19 C          -2.4759  -18.3131   18.8257 C.3     1  UNL1        0.0726
     20 C          -3.9675  -18.4160   18.9451 C.3     1  UNL1        0.0266
     21 C          -4.5786  -19.1435   20.1059 C.3     1  UNL1        0.0810
     22 C          -3.6981  -19.7681   21.1472 C.3     1  UNL1        0.0266
     23 C          -2.2064  -19.6653   21.0278 C.3     1  UNL1        0.0726
     24 C          -0.1036  -18.8349   19.7476 C.3     1  UNL1        0.0747
     25 C           0.5889  -17.5480   20.0858 C.3     1  UNL1        0.0494
     26 C          -0.2145  -16.3480   20.4912 C.3     1  UNL1        0.1437
     27 C          -2.4768  -16.0449   21.7323 C.3     1  UNL1        0.1741
     28 O          -1.0137  -16.3743   21.7604 O.3     1  UNL1       -0.3511
@<TRIPOS>BOND
     1    27    28    1
     2    28    26    1
     3    26    25    1
     4    25    24    1
     5    24    18    1
     6    18    19    1
     7    19    20    1
     8    20    21    1
     9    21     1    1
    10     1     2   ar
    11     2     3   ar
    12     3     4   ar
    13     4     6    1
    14     6     7   ar
    15     7     8   ar
    16     8     9   ar
    17     9    10   ar
    18    10    11   ar
    19    11    12   ar
    20    12    15    1
    21    15    16    1
    22    15    17    1
    23    12    13   ar
    24    13    14   ar
    25     4     5   ar
    26    21    22    1
    27    22    23    1
    28    23    18    1
    29     5     1   ar
    30    14     6   ar
    31    14    10   ar
@<TRIPOS>MOLECULE
*****
 28 31 0 0 0
SMALL
GASTEIGER

@<TRIPOS>ATOM
      1 C           0.1276    2.1349   19.7548 C.ar    1  UNL1        0.2261
      2 N           0.3290    3.6123   19.5915 N.ar    1  UNL1       -0.1114
      3 N          -0.9636    4.2961   19.9254 N.ar    1  UNL1       -0.1056
      4 C          -1.9639    3.2413   20.2952 C.ar    1  UNL1        0.2673
      5 O          -1.2895    1.9056   20.1897 O.2     1  UNL1       -0.4182
      6 C          -3.3886    3.4803   20.6994 C.ar    1  UNL1        0.1376
      7 C          -4.4575    3.5866   19.6524 C.ar    1  UNL1        0.0240
      8 C          -5.8820    3.8256   20.0567 C.ar    1  UNL1        0.0032
      9 C          -6.2377    3.9581   21.5079 C.ar    1  UNL1        0.0192
     10 C          -5.1689    3.8517   22.5548 C.ar    1  UNL1        0.0842
     11 C          -5.2174    3.9399   24.0514 C.ar    1  UNL1        0.0356
     12 C          -3.8228    3.7554   24.5722 C.ar    1  UNL1        0.0801
     13 N          -2.9123    3.5533   23.3974 N.ar    1  UNL1       -0.1694
     14 N          -3.7443    3.6128   22.1506 N.ar    1  UNL1       -0.2253
     15 C          -3.4111    3.7705   26.0145 C.3     1  UNL1        0.0421
     16 C          -2.0764    3.2185   26.4192 C.3     1  UNL1        0.0064
     17 C          -4.3340    4.3376   27.0520 C.3     1  UNL1        0.0064
     18 N           3.2300   -1.0502   19.0619 N.3     1  UNL1       -0.2726
     19 C           2.1245   -1.2821   20.0489 C.3     1  UNL1        0.0726
     20 C           1.0904   -0.2204   20.2799 C.3     1  UNL1        0.0266
     21 C           1.1617    1.0732   19.5239 C.3     1  UNL1        0.0810
     22 C           2.2672    1.3051   18.5369 C.3     1  UNL1        0.0266
     23 C           3.3013    0.2434   18.3059 C.3     1  UNL1        0.0726
     24 C           4.2641   -2.1119   18.8309 C.3     1  UNL1        0.0747
     25 C           3.9129   -3.5567   19.0291 C.3     1  UNL1        0.0494
     26 C           4.9381   -4.5109   19.5663 C.3     1  UNL1        0.1437
     27 C           4.6606   -3.8032   22.0507 C.3     1  UNL1        0.1741
     28 O           5.5278   -4.2899   20.9277 O.3     1  UNL1       -0.3511
@<TRIPOS>BOND
     1    27    28    1
     2    28    26    1
     3    26    25    1
     4    25    24    1
     5    24    18    1
     6    18    19    1
     7    19    20    1
     8    20    21    1
     9    21     1    1
    10     1     2   ar
    11     2     3   ar
    12     3     4   ar
    13     4     6    1
    14     6     7   ar
    15     7     8   ar
    16     8     9   ar
    17     9    10   ar
    18    10    11   ar
    19    11    12   ar
    20    12    15    1
    21    15    16    1
    22    15    17    1
    23    12    13   ar
    24    13    14   ar
    25     4     5   ar
    26    21    22    1
    27    22    23    1
    28    23    18    1
    29     5     1   ar
    30    14     6   ar
    31    14    10   ar
@<TRIPOS>MOLECULE
*****
 28 31 0 0 0
SMALL
GASTEIGER

@<TRIPOS>ATOM
      1 C           0.5525    1.7252   19.6433 C.ar    1  UNL1        0.2261
      2 N           0.6252    3.1380   19.1447 N.ar    1  UNL1       -0.1114
      3 N          -0.5681    3.8779   19.6726 N.ar    1  UNL1       -0.1056
      4 C          -1.3782    2.9223   20.4975 C.ar    1  UNL1        0.2673
      5 O          -0.6857    1.5919   20.4794 O.2     1  UNL1       -0.4182
      6 C          -2.6566    3.2412   21.2147 C.ar    1  UNL1        0.1376
      7 C          -3.9280    3.4175   20.4386 C.ar    1  UNL1        0.0240
      8 C          -5.2063    3.7364   21.1558 C.ar    1  UNL1        0.0032
      9 C          -5.2131    3.8789   22.6490 C.ar    1  UNL1        0.0192
     10 C          -3.9416    3.7025   23.4251 C.ar    1  UNL1        0.0842
     11 C          -3.6422    3.7824   24.8927 C.ar    1  UNL1        0.0356
     12 C          -2.1788    3.5129   25.0826 C.ar    1  UNL1        0.0801
     13 N          -1.5739    3.2665   23.7323 N.ar    1  UNL1       -0.1694
     14 N          -2.6634    3.3837   22.7079 N.ar    1  UNL1       -0.2253
     15 C          -1.4487    3.4934   26.3928 C.3     1  UNL1        0.0421
     16 C          -1.0209    2.1873   26.9935 C.3     1  UNL1        0.0064
     17 C          -1.1463    4.7800   27.1021 C.3     1  UNL1        0.0064
     18 N           3.5268   -1.5400   18.7820 N.3     1  UNL1       -0.2726
     19 C           3.3898   -0.3823   17.8382 C.3     1  UNL1        0.0726
     20 C           2.3984    0.7061   18.1253 C.3     1  UNL1        0.0266
     21 C           1.5439    0.6368   19.3562 C.3     1  UNL1        0.0810
     22 C           1.6809   -0.5210   20.3000 C.3     1  UNL1        0.0266
     23 C           2.6724   -1.6094   20.0130 C.3     1  UNL1        0.0726
     24 C           4.5182   -2.6284   18.4949 C.3     1  UNL1        0.0747
     25 C           5.8861   -2.5778   19.1083 C.3     1  UNL1        0.0494
     26 C           7.0128   -1.9124   18.3749 C.3     1  UNL1        0.1437
     27 C           6.9087    0.3859   17.1678 C.3     1  UNL1        0.1741
     28 O           6.7318   -1.1034   17.1433 O.3     1  UNL1       -0.3511
@<TRIPOS>BOND
     1    27    28    1
     2    28    26    1
     3    26    25    1
     4    25    24    1
     5    24    18    1
     6    18    19    1
     7    19    20    1
     8    20    21    1
     9    21     1    1
    10     1     2   ar
    11     2     3   ar
    12     3     4   ar
    13     4     6    1
    14     6     7   ar
    15     7     8   ar
    16     8     9   ar
    17     9    10   ar
    18    10    11   ar
    19    11    12   ar
    20    12    15    1
    21    15    16    1
    22    15    17    1
    23    12    13   ar
    24    13    14   ar
    25     4     5   ar
    26    21    22    1
    27    22    23    1
    28    23    18    1
    29     5     1   ar
    30    14     6   ar
    31    14    10   ar
@<TRIPOS>MOLECULE
*****
 28 31 0 0 0
SMALL
GASTEIGER

@<TRIPOS>ATOM
      1 C           3.1582    0.0976   31.8239 C.ar    1  UNL1        0.2261
      2 N           1.9389    0.1732   30.9535 N.ar    1  UNL1       -0.1114
      3 N           1.1496    1.3805   31.3651 N.ar    1  UNL1       -0.1056
      4 C           1.8810    2.0511   32.4899 C.ar    1  UNL1        0.2673
      5 O           3.1224    1.2582   32.7735 O.2     1  UNL1       -0.4182
      6 C           1.4473    3.2960   33.2056 C.ar    1  UNL1        0.1376
      7 C           0.7535    4.3914   32.4516 C.ar    1  UNL1        0.0240
      8 C           0.3197    5.6363   33.1672 C.ar    1  UNL1        0.0032
      9 C           0.5798    5.7857   34.6369 C.ar    1  UNL1        0.0192
     10 C           1.2736    4.6902   35.3910 C.ar    1  UNL1        0.0842
     11 C           1.6634    4.5554   36.8332 C.ar    1  UNL1        0.0356
     12 C           2.3380    3.2272   37.0088 C.ar    1  UNL1        0.0801
     13 N           2.3652    2.5412   35.6752 N.ar    1  UNL1       -0.1694
     14 N           1.7073    3.4454   34.6753 N.ar    1  UNL1       -0.2253
     15 C           2.8887    2.6810   38.2928 C.3     1  UNL1        0.0421
     16 C           3.5032    3.6076   39.2996 C.3     1  UNL1        0.0064
     17 C           2.8249    1.2082   38.5698 C.3     1  UNL1        0.0064
     18 N           6.3610   -3.0569   31.6220 N.3     1  UNL1       -0.2726
     19 C           6.2223   -2.0568   30.5127 C.3     1  UNL1        0.0726
     20 C           5.1547   -1.0053   30.5800 C.3     1  UNL1        0.0266
     21 C           4.2258   -0.9539   31.7566 C.3     1  UNL1        0.0810
     22 C           4.3645   -1.9539   32.8660 C.3     1  UNL1        0.0266
     23 C           5.4320   -3.0055   32.7986 C.3     1  UNL1        0.0726
     24 C           7.4286   -4.1084   31.5547 C.3     1  UNL1        0.0747
     25 C           7.0808   -5.5041   31.1292 C.3     1  UNL1        0.0494
     26 C           7.0453   -5.8570   29.6717 C.3     1  UNL1        0.1437
     27 C           6.7224   -4.7675   27.3353 C.3     1  UNL1        0.1741
     28 O           6.2200   -5.0401   28.7221 O.3     1  UNL1       -0.3511
@<TRIPOS>BOND
     1    27    28    1
     2    28    26    1
     3    26    25    1
     4    25    24    1
     5    24    18    1
     6    18    19    1
     7    19    20    1
     8    20    21    1
     9    21     1    1
    10     1     2   ar
    11     2     3   ar
    12     3     4   ar
    13     4     6    1
    14     6     7   ar
    15     7     8   ar
    16     8     9   ar
    17     9    10   ar
    18    10    11   ar
    19    11    12   ar
    20    12    15    1
    21    15    16    1
    22    15    17    1
    23    12    13   ar
    24    13    14   ar
    25     4     5   ar
    26    21    22    1
    27    22    23    1
    28    23    18    1
    29     5     1   ar
    30    14     6   ar
    31    14    10   ar
@<TRIPOS>MOLECULE
*****
 28 31 0 0 0
SMALL
GASTEIGER

@<TRIPOS>ATOM
      1 C           5.3929   -2.4414   23.1356 C.ar    1  UNL1        0.2261
      2 N           6.4849   -1.6460   23.7875 N.ar    1  UNL1       -0.1114
      3 N           7.3668   -2.5985   24.5391 N.ar    1  UNL1       -0.1056
      4 C           6.8199   -3.9826   24.3518 C.ar    1  UNL1        0.2673
      5 O           5.5999   -3.8855   23.4844 O.2     1  UNL1       -0.4182
      6 C           7.3924   -5.2427   24.9303 C.ar    1  UNL1        0.1376
      7 C           7.9428   -6.3023   24.0224 C.ar    1  UNL1        0.0240
      8 C           8.5153   -7.5622   24.6009 C.ar    1  UNL1        0.0032
      9 C           8.5373   -7.7626   26.0873 C.ar    1  UNL1        0.0192
     10 C           7.9868   -6.7031   26.9952 C.ar    1  UNL1        0.0842
     11 C           7.8735   -6.6207   28.4886 C.ar    1  UNL1        0.0356
     12 C           7.2310   -5.3097   28.8331 C.ar    1  UNL1        0.0801
     13 N           6.9472   -4.5819   27.5526 N.ar    1  UNL1       -0.1694
     14 N           7.4143   -5.4431   26.4167 N.ar    1  UNL1       -0.2253
     15 C           6.9258   -4.8137   30.2155 C.3     1  UNL1        0.0421
     16 C           7.0072   -5.7511   31.3837 C.3     1  UNL1        0.0064
     17 C           6.5393   -3.3802   30.4297 C.3     1  UNL1        0.0064
     18 N           2.0779   -0.7860   20.5822 N.3     1  UNL1       -0.2726
     19 C           2.3137   -0.2329   21.9564 C.3     1  UNL1        0.0726
     20 C           3.4186   -0.7847   22.8075 C.3     1  UNL1        0.0266
     21 C           4.2879   -1.8896   22.2845 C.3     1  UNL1        0.0810
     22 C           4.0522   -2.4427   20.9102 C.3     1  UNL1        0.0266
     23 C           2.9472   -1.8909   20.0591 C.3     1  UNL1        0.0726
     24 C           0.9729   -0.2342   19.7310 C.3     1  UNL1        0.0747
     25 C           1.2971    0.6319   18.5500 C.3     1  UNL1        0.0494
     26 C           2.5237    1.4951   18.5671 C.3     1  UNL1        0.1437
     27 C           5.0424    0.9752   18.9360 C.3     1  UNL1        0.1741
     28 O           3.8272    0.9561   18.0568 O.3     1  UNL1       -0.3511
@<TRIPOS>BOND
     1    27    28    1
     2    28    26    1
     3    26    25    1
     4    25    24    1
     5    24    18    1
     6    18    19    1
     7    19    20    1
     8    20    21    1
     9    21     1    1
    10     1     2   ar
    11     2     3   ar
    12     3     4   ar
    13     4     6    1
    14     6     7   ar
    15     7     8   ar
    16     8     9   ar
    17     9    10   ar
    18    10    11   ar
    19    11    12   ar
    20    12    15    1
    21    15    16    1
    22    15    17    1
    23    12    13   ar
    24    13    14   ar
    25     4     5   ar
    26    21    22    1
    27    22    23    1
    28    23    18    1
    29     5     1   ar
    30    14     6   ar
    31    14    10   ar
@<TRIPOS>MOLECULE
*****
 28 31 0 0 0
SMALL
GASTEIGER

@<TRIPOS>ATOM
      1 C           5.2311   -2.3209   25.0900 C.ar    1  UNL1        0.2261
      2 N           6.3628   -3.0557   25.7453 N.ar    1  UNL1       -0.1114
      3 N           6.3487   -2.7200   27.2072 N.ar    1  UNL1       -0.1056
      4 C           5.2083   -1.7777   27.4554 C.ar    1  UNL1        0.2673
      5 O           4.5176   -1.5311   26.1469 O.2     1  UNL1       -0.4182
      6 C           4.8258   -1.1860   28.7797 C.ar    1  UNL1        0.1376
      7 C           5.8362   -1.1058   29.8853 C.ar    1  UNL1        0.0240
      8 C           5.4536   -0.5141   31.2095 C.ar    1  UNL1        0.0032
      9 C           4.0606   -0.0025   31.4280 C.ar    1  UNL1        0.0192
     10 C           3.0501   -0.0827   30.3223 C.ar    1  UNL1        0.0842
     11 C           1.6122    0.3371   30.2443 C.ar    1  UNL1        0.0356
     12 C           1.1061    0.0048   28.8719 C.ar    1  UNL1        0.0801
     13 N           2.2312   -0.6204   28.1017 N.ar    1  UNL1       -0.1694
     14 N           3.4327   -0.6744   28.9982 N.ar    1  UNL1       -0.2253
     15 C          -0.2817    0.2539   28.3597 C.3     1  UNL1        0.0421
     16 C          -0.5188    1.3062   27.3175 C.3     1  UNL1        0.0064
     17 C          -1.4322   -0.5494   28.8898 C.3     1  UNL1        0.0064
     18 N           4.1640   -2.4613   20.7207 N.3     1  UNL1       -0.2726
     19 C           4.5615   -3.7182   21.4363 C.3     1  UNL1        0.0726
     20 C           4.9172   -3.6713   22.8928 C.3     1  UNL1        0.0266
     21 C           4.8754   -2.3677   23.6336 C.3     1  UNL1        0.0810
     22 C           4.4778   -1.1108   22.9179 C.3     1  UNL1        0.0266
     23 C           4.1221   -1.1576   21.4614 C.3     1  UNL1        0.0726
     24 C           3.8083   -2.5081   19.2642 C.3     1  UNL1        0.0747
     25 C           4.8243   -2.9617   18.2582 C.3     1  UNL1        0.0494
     26 C           6.2276   -2.4358   18.3201 C.3     1  UNL1        0.1437
     27 C           6.5546   -0.0593   17.3224 C.3     1  UNL1        0.1741
     28 O           6.7433   -1.5444   17.2294 O.3     1  UNL1       -0.3511
@<TRIPOS>BOND
     1    27    28    1
     2    28    26    1
     3    26    25    1
     4    25    24    1
     5    24    18    1
     6    18    19    1
     7    19    20    1
     8    20    21    1
     9    21     1    1
    10     1     2   ar
    11     2     3   ar
    12     3     4   ar
    13     4     6    1
    14     6     7   ar
    15     7     8   ar
    16     8     9   ar
    17     9    10   ar
    18    10    11   ar
    19    11    12   ar
    20    12    15    1
    21    15    16    1
    22    15    17    1
    23    12    13   ar
    24    13    14   ar
    25     4     5   ar
    26    21    22    1
    27    22    23    1
    28    23    18    1
    29     5     1   ar
    30    14     6   ar
    31    14    10   ar
@<TRIPOS>MOLECULE
*****
 28 31 0 0 0
SMALL
GASTEIGER

@<TRIPOS>ATOM
      1 C           7.0242   -4.5023   24.8327 C.ar    1  UNL1        0.2261
      2 N           7.8191   -5.1688   23.7492 N.ar    1  UNL1       -0.1114
      3 N           7.1996   -4.8088   22.4314 N.ar    1  UNL1       -0.1056
      4 C           6.0218   -3.9198   22.7003 C.ar    1  UNL1        0.2673
      5 O           5.9134   -3.7303   24.1844 O.2     1  UNL1       -0.4182
      6 C           5.1121   -3.3247   21.6667 C.ar    1  UNL1        0.1376
      7 C           5.1608   -3.8184   20.2512 C.ar    1  UNL1        0.0240
      8 C           4.2511   -3.2233   19.2176 C.ar    1  UNL1        0.0032
      9 C           3.2926   -2.1345   19.5997 C.ar    1  UNL1        0.0192
     10 C           3.2439   -1.6408   21.0152 C.ar    1  UNL1        0.0842
     11 C           2.4098   -0.5880   21.6829 C.ar    1  UNL1        0.0356
     12 C           2.8040   -0.5324   23.1292 C.ar    1  UNL1        0.0801
     13 N           3.8818   -1.5509   23.3553 N.ar    1  UNL1       -0.1694
     14 N           4.1536   -2.2359   22.0488 N.ar    1  UNL1       -0.2253
     15 C           2.2225    0.3813   24.1670 C.3     1  UNL1        0.0421
     16 C           0.9819    1.1679   23.8634 C.3     1  UNL1        0.0064
     17 C           2.8816    0.5083   25.5084 C.3     1  UNL1        0.0064
     18 N           7.8302   -4.7712   29.2516 N.3     1  UNL1       -0.2726
     19 C           8.6009   -3.8008   28.4064 C.3     1  UNL1        0.0726
     20 C           8.3322   -3.7112   26.9334 C.3     1  UNL1        0.0266
     21 C           7.2929   -4.5919   26.3056 C.3     1  UNL1        0.0810
     22 C           6.5221   -5.5622   27.1509 C.3     1  UNL1        0.0266
     23 C           6.7908   -5.6519   28.6239 C.3     1  UNL1        0.0726
     24 C           8.0989   -4.8608   30.7246 C.3     1  UNL1        0.0747
     25 C           7.0135   -4.5320   31.7064 C.3     1  UNL1        0.0494
     26 C           6.2699   -3.2341   31.5955 C.3     1  UNL1        0.1437
     27 C           4.4567   -2.5123   33.3105 C.3     1  UNL1        0.1741
     28 O           5.8791   -2.4853   32.8351 O.3     1  UNL1       -0.3511
@<TRIPOS>BOND
     1    27    28    1
     2    28    26    1
     3    26    25    1
     4    25    24    1
     5    24    18    1
     6    18    19    1
     7    19    20    1
     8    20    21    1
     9    21     1    1
    10     1     2   ar
    11     2     3   ar
    12     3     4   ar
    13     4     6    1
    14     6     7   ar
    15     7     8   ar
    16     8     9   ar
    17     9    10   ar
    18    10    11   ar
    19    11    12   ar
    20    12    15    1
    21    15    16    1
    22    15    17    1
    23    12    13   ar
    24    13    14   ar
    25     4     5   ar
    26    21    22    1
    27    22    23    1
    28    23    18    1
    29     5     1   ar
    30    14     6   ar
    31    14    10   ar
@<TRIPOS>MOLECULE
*****
 28 31 0 0 0
SMALL
GASTEIGER

@<TRIPOS>ATOM
      1 C          -6.5101  -19.9494   22.2290 C.ar    1  UNL1        0.2261
      2 N          -6.9023  -21.2010   22.9568 N.ar    1  UNL1       -0.1114
      3 N          -8.3070  -21.0275   23.4535 N.ar    1  UNL1       -0.1056
      4 C          -8.7830  -19.6688   23.0326 C.ar    1  UNL1        0.2673
      5 O          -7.6725  -19.0024   22.2758 O.2     1  UNL1       -0.4182
      6 C         -10.1326  -19.0796   23.3184 C.ar    1  UNL1        0.1376
      7 C         -10.9611  -19.6159   24.4479 C.ar    1  UNL1        0.0240
      8 C         -12.3107  -19.0268   24.7336 C.ar    1  UNL1        0.0032
      9 C         -12.8317  -17.9014   23.8898 C.ar    1  UNL1        0.0192
     10 C         -12.0031  -17.3651   22.7603 C.ar    1  UNL1        0.0842
     11 C         -12.2513  -16.2707   21.7650 C.ar    1  UNL1        0.0356
     12 C         -11.0551  -16.1834   20.8642 C.ar    1  UNL1        0.0801
     13 N         -10.0676  -17.2239   21.3027 N.ar    1  UNL1       -0.1694
     14 N         -10.6536  -17.9542   22.4746 N.ar    1  UNL1       -0.2253
     15 C         -10.8775  -15.2239   19.7248 C.3     1  UNL1        0.0421
     16 C         -11.8632  -15.2115   18.5943 C.3     1  UNL1        0.0064
     17 C          -9.7142  -14.2770   19.7161 C.3     1  UNL1        0.0064
     18 N          -2.5431  -19.1721   20.2520 N.3     1  UNL1       -0.2726
     19 C          -3.8165  -18.9515   19.4906 C.3     1  UNL1        0.0726
     20 C          -5.1389  -19.2106   20.1496 C.3     1  UNL1        0.0266
     21 C          -5.1878  -19.6903   21.5700 C.3     1  UNL1        0.0810
     22 C          -3.9144  -19.9109   22.3314 C.3     1  UNL1        0.0266
     23 C          -2.5921  -19.6518   21.6724 C.3     1  UNL1        0.0726
     24 C          -1.2208  -18.9130   19.5930 C.3     1  UNL1        0.0747
     25 C          -0.3194  -17.8353   20.1184 C.3     1  UNL1        0.0494
     26 C          -0.8667  -16.4650   20.3881 C.3     1  UNL1        0.1437
     27 C          -2.5640  -16.2998   22.3482 C.3     1  UNL1        0.1741
     28 O          -2.2758  -16.3029   20.8761 O.3     1  UNL1       -0.3511
@<TRIPOS>BOND
     1    27    28    1
     2    28    26    1
     3    26    25    1
     4    25    24    1
     5    24    18    1
     6    18    19    1
     7    19    20    1
     8    20    21    1
     9    21     1    1
    10     1     2   ar
    11     2     3   ar
    12     3     4   ar
    13     4     6    1
    14     6     7   ar
    15     7     8   ar
    16     8     9   ar
    17     9    10   ar
    18    10    11   ar
    19    11    12   ar
    20    12    15    1
    21    15    16    1
    22    15    17    1
    23    12    13   ar
    24    13    14   ar
    25     4     5   ar
    26    21    22    1
    27    22    23    1
    28    23    18    1
    29     5     1   ar
    30    14     6   ar
    31    14    10   ar
@<TRIPOS>MOLECULE
*****
 28 31 0 0 0
SMALL
GASTEIGER

@<TRIPOS>ATOM
      1 C           1.3552    0.0976   28.7438 C.ar    1  UNL1        0.2261
      2 N          -0.0343   -0.3144   29.1307 N.ar    1  UNL1       -0.1114
      3 N          -0.9996    0.4425   28.2674 N.ar    1  UNL1       -0.1056
      4 C          -0.2067    1.3224   27.3470 C.ar    1  UNL1        0.2673
      5 O           1.2486    1.1092   27.6414 O.2     1  UNL1       -0.4182
      6 C          -0.7702    2.2522   26.3135 C.ar    1  UNL1        0.1376
      7 C          -1.7360    3.3263   26.7178 C.ar    1  UNL1        0.0240
      8 C          -2.2994    4.2560   25.6844 C.ar    1  UNL1        0.0032
      9 C          -1.8970    4.1116   24.2466 C.ar    1  UNL1        0.0192
     10 C          -0.9313    3.0375   23.8422 C.ar    1  UNL1        0.0842
     11 C          -0.3541    2.6557   22.5114 C.ar    1  UNL1        0.0356
     12 C           0.5660    1.4900   22.7223 C.ar    1  UNL1        0.0801
     13 N           0.5576    1.1514   24.1836 N.ar    1  UNL1       -0.1694
     14 N          -0.3678    2.1078   24.8757 N.ar    1  UNL1       -0.2253
     15 C           1.3559    0.7865   21.6587 C.3     1  UNL1        0.0421
     16 C           2.8537    0.8670   21.6601 C.3     1  UNL1        0.0064
     17 C           0.6479    0.0026   20.5937 C.3     1  UNL1        0.0064
     18 N           5.1729   -1.4324   30.5698 N.3     1  UNL1       -0.2726
     19 C           4.0235   -1.0426   31.4513 C.3     1  UNL1        0.0726
     20 C           2.7509   -0.5326   30.8426 C.3     1  UNL1        0.0266
     21 C           2.6278   -0.4124   29.3525 C.3     1  UNL1        0.0810
     22 C           3.7771   -0.8021   28.4710 C.3     1  UNL1        0.0266
     23 C           5.0497   -1.3121   29.0797 C.3     1  UNL1        0.0726
     24 C           6.4454   -1.9424   31.1784 C.3     1  UNL1        0.0747
     25 C           7.1623   -3.1032   30.5552 C.3     1  UNL1        0.0494
     26 C           6.8042   -4.5054   30.9498 C.3     1  UNL1        0.1437
     27 C           6.3495   -5.2652   28.5073 C.3     1  UNL1        0.1741
     28 O           6.7611   -5.5885   29.9130 O.3     1  UNL1       -0.3511
@<TRIPOS>BOND
     1    27    28    1
     2    28    26    1
     3    26    25    1
     4    25    24    1
     5    24    18    1
     6    18    19    1
     7    19    20    1
     8    20    21    1
     9    21     1    1
    10     1     2   ar
    11     2     3   ar
    12     3     4   ar
    13     4     6    1
    14     6     7   ar
    15     7     8   ar
    16     8     9   ar
    17     9    10   ar
    18    10    11   ar
    19    11    12   ar
    20    12    15    1
    21    15    16    1
    22    15    17    1
    23    12    13   ar
    24    13    14   ar
    25     4     5   ar
    26    21    22    1
    27    22    23    1
    28    23    18    1
    29     5     1   ar
    30    14     6   ar
    31    14    10   ar
