@<TRIPOS>MOLECULE
*****
 34 38 0 0 0
SMALL
GASTEIGER

@<TRIPOS>ATOM
      1 C          -7.5260  -15.8721   23.0345 C.ar    1  UNL1        0.1581
      2 N          -6.1350  -16.3640   22.7640 N.ar    1  UNL1       -0.1641
      3 N          -5.4181  -16.4721   24.0772 N.ar    1  UNL1       -0.2463
      4 C          -6.3660  -16.0469   25.1592 C.ar    1  UNL1        0.0799
      5 C          -6.2112  -15.9495   26.6480 C.ar    1  UNL1        0.0188
      6 C          -7.3591  -15.4813   27.4923 C.ar    1  UNL1        0.0015
      7 C          -8.6619  -15.1105   26.8479 C.ar    1  UNL1        0.0001
      8 C          -8.8167  -15.2079   25.3591 C.ar    1  UNL1        0.0032
      9 C          -7.6687  -15.6761   24.5148 C.ar    1  UNL1        0.0413
     10 C         -10.6199  -15.8083   20.6915 C.ar    1  UNL1        0.2007
     11 N          -9.8237  -14.6573   20.1517 N.ar    1  UNL1       -0.0584
     12 O          -8.5678  -14.5411   20.9637 O.2     1  UNL1       -0.3310
     13 C          -8.5878  -15.6203   22.0053 C.ar    1  UNL1        0.2792
     14 N          -9.8560  -16.4034   21.8371 N.ar    1  UNL1       -0.1880
     15 C         -11.9468  -16.2811   20.1763 C.3     1  UNL1        0.1621
     16 C         -13.1295  -17.2775   22.2640 C.2     1  UNL1        0.4017
     17 O         -12.9062  -15.9920   23.0040 O.2     1  UNL1       -0.2264
     18 N         -12.6498  -17.4220   20.8501 N.am    1  UNL1       -0.2634
     19 H         -12.7963  -18.2657   20.3644 H       1  UNL1        0.1532
     20 O         -13.8324  -18.4185   22.9378 O.3     1  UNL1       -0.4419
     21 C         -15.4280  -18.3823   24.3354 C.3     1  UNL1        0.0437
     22 C         -13.9331  -18.4590   24.4339 C.3     1  UNL1        0.1378
     23 C         -12.4383  -18.5357   24.5324 C.3     1  UNL1        0.0437
     24 C         -14.0338  -18.4995   25.9299 C.3     1  UNL1        0.0437
     25 C          -4.0019  -16.9257   24.2738 C.3     1  UNL1        0.1539
     26 C          -3.2433  -17.5330   23.1310 C.ar    1  UNL1        0.0053
     27 C          -3.4323  -18.9817   22.7911 C.ar    1  UNL1        0.0010
     28 C          -2.6738  -19.5891   21.6484 C.ar    1  UNL1        0.0399
     29 C          -1.7263  -18.7477   20.8457 C.ar    1  UNL1        0.1764
     30 C          -1.5374  -17.2990   21.1857 C.ar    1  UNL1        0.1762
     31 C          -2.2958  -16.6917   22.3283 C.ar    1  UNL1        0.0379
     32 O          -0.5422  -16.7228   20.2225 O.3     1  UNL1       -0.4346
     33 C          -0.1161  -17.8155   19.2872 C.3     1  UNL1        0.4294
     34 O          -0.8480  -19.0669   19.6724 O.3     1  UNL1       -0.4346
@<TRIPOS>BOND
     1    21    22    1
     2    22    23    1
     3    22    24    1
     4    22    20    1
     5    20    16    1
     6    16    17    2
     7    16    18   am
     8    18    15    1
     9    15    10    1
    10    10    11   ar
    11    11    12   ar
    12    12    13   ar
    13    13     1    1
    14     1     2   ar
    15     2     3   ar
    16     3    25    1
    17    25    26    1
    18    26    27   ar
    19    27    28   ar
    20    28    29   ar
    21    29    30   ar
    22    30    31   ar
    23    30    32    1
    24    32    33    1
    25    33    34    1
    26     3     4   ar
    27     4     5   ar
    28     5     6   ar
    29     6     7   ar
    30     7     8   ar
    31     8     9   ar
    32    13    14   ar
    33    14    10   ar
    34     9     1   ar
    35    31    26   ar
    36     9     4   ar
    37    34    29    1
    38    18    19    1
@<TRIPOS>MOLECULE
*****
 34 38 0 0 0
SMALL
GASTEIGER

@<TRIPOS>ATOM
      1 C          -8.1350  -16.3033   23.8251 C.ar    1  UNL1        0.1581
      2 N          -6.8683  -16.1729   23.0323 N.ar    1  UNL1       -0.1641
      3 N          -5.8043  -15.6366   23.9436 N.ar    1  UNL1       -0.2463
      4 C          -6.4135  -15.4355   25.2995 C.ar    1  UNL1        0.0799
      5 C          -5.8426  -14.9304   26.5914 C.ar    1  UNL1        0.0188
      6 C          -6.7122  -14.8374   27.8100 C.ar    1  UNL1        0.0015
      7 C          -8.1526  -15.2495   27.7368 C.ar    1  UNL1        0.0001
      8 C          -8.7235  -15.7546   26.4449 C.ar    1  UNL1        0.0032
      9 C          -7.8539  -15.8476   25.2263 C.ar    1  UNL1        0.0413
     10 C         -11.1403  -18.1837   22.2447 C.ar    1  UNL1        0.2007
     11 N         -11.8152  -16.9547   22.7777 N.ar    1  UNL1       -0.0584
     12 O         -10.7715  -16.1007   23.4346 O.2     1  UNL1       -0.3310
     13 C          -9.4516  -16.8019   23.3076 C.ar    1  UNL1        0.2792
     14 N          -9.6796  -18.0892   22.5722 N.ar    1  UNL1       -0.1880
     15 C         -11.8088  -19.3094   21.5127 C.3     1  UNL1        0.1621
     16 C         -10.3310  -19.3463   19.3761 C.2     1  UNL1        0.4017
     17 O         -10.3617  -17.8474   19.3289 O.2     1  UNL1       -0.2264
     18 N         -11.0546  -20.0773   20.4680 N.am    1  UNL1       -0.2634
     19 H         -11.0344  -21.0611   20.4990 H       1  UNL1        0.1532
     20 O          -9.5768  -20.1143   18.3315 O.3     1  UNL1       -0.4419
     21 C          -7.8978  -19.6968   19.5590 C.3     1  UNL1        0.0437
     22 C          -8.3235  -20.8511   18.7009 C.3     1  UNL1        0.1378
     23 C          -8.7493  -22.0054   17.8427 C.3     1  UNL1        0.0437
     24 C          -7.0704  -21.5879   19.0703 C.3     1  UNL1        0.0437
     25 C          -4.3811  -15.3514   23.5653 C.3     1  UNL1        0.1539
     26 C          -3.5835  -16.3785   22.8177 C.ar    1  UNL1        0.0053
     27 C          -3.8900  -17.8368   22.9894 C.ar    1  UNL1        0.0010
     28 C          -3.0924  -18.8639   22.2419 C.ar    1  UNL1        0.0399
     29 C          -1.9884  -18.4328   21.3226 C.ar    1  UNL1        0.1764
     30 C          -1.6819  -16.9745   21.1508 C.ar    1  UNL1        0.1762
     31 C          -2.4794  -15.9473   21.8984 C.ar    1  UNL1        0.0379
     32 O          -0.5430  -16.8511   20.1825 O.3     1  UNL1       -0.4346
     33 C          -0.1456  -18.2331   19.7557 C.3     1  UNL1        0.4294
     34 O          -1.0389  -19.2106   20.4604 O.3     1  UNL1       -0.4346
@<TRIPOS>BOND
     1    21    22    1
     2    22    23    1
     3    22    24    1
     4    22    20    1
     5    20    16    1
     6    16    17    2
     7    16    18   am
     8    18    15    1
     9    15    10    1
    10    10    11   ar
    11    11    12   ar
    12    12    13   ar
    13    13     1    1
    14     1     2   ar
    15     2     3   ar
    16     3    25    1
    17    25    26    1
    18    26    27   ar
    19    27    28   ar
    20    28    29   ar
    21    29    30   ar
    22    30    31   ar
    23    30    32    1
    24    32    33    1
    25    33    34    1
    26     3     4   ar
    27     4     5   ar
    28     5     6   ar
    29     6     7   ar
    30     7     8   ar
    31     8     9   ar
    32    13    14   ar
    33    14    10   ar
    34     9     1   ar
    35    31    26   ar
    36     9     4   ar
    37    34    29    1
    38    18    19    1
@<TRIPOS>MOLECULE
*****
 34 38 0 0 0
SMALL
GASTEIGER

@<TRIPOS>ATOM
      1 C           8.2407   -6.3415   25.4251 C.ar    1  UNL1        0.1581
      2 N           8.0835   -6.3721   23.9336 N.ar    1  UNL1       -0.1641
      3 N           8.0283   -4.9553   23.4442 N.ar    1  UNL1       -0.2463
      4 C           8.1514   -4.0490   24.6332 C.ar    1  UNL1        0.0799
      5 C           8.1608   -2.5544   24.7592 C.ar    1  UNL1        0.0188
      6 C           8.3016   -1.9165   26.1094 C.ar    1  UNL1        0.0015
      7 C           8.4328   -2.7732   27.3337 C.ar    1  UNL1        0.0001
      8 C           8.4233   -4.2679   27.2077 C.ar    1  UNL1        0.0032
      9 C           8.2826   -4.9058   25.8574 C.ar    1  UNL1        0.0413
     10 C           7.8131   -9.6047   27.4829 C.ar    1  UNL1        0.2007
     11 N           9.1659   -9.1475   27.9421 N.ar    1  UNL1       -0.0584
     12 O           9.4907   -7.8695   27.2272 O.2     1  UNL1       -0.3310
     13 C           8.3387   -7.5368   26.3260 C.ar    1  UNL1        0.2792
     14 N           7.3019   -8.6092   26.4841 N.ar    1  UNL1       -0.1880
     15 C           7.0973  -10.8404   27.9418 C.3     1  UNL1        0.1621
     16 C           4.7971  -11.9228   28.4778 C.2     1  UNL1        0.4017
     17 O           5.4042  -12.6315   29.6521 O.2     1  UNL1       -0.2264
     18 N           5.6436  -11.0272   27.6226 N.am    1  UNL1       -0.2634
     19 H           5.2452  -10.5621   26.8518 H       1  UNL1        0.1532
     20 O           3.3434  -12.1097   28.1586 O.3     1  UNL1       -0.4419
     21 C           3.4540  -13.8784   26.9926 C.3     1  UNL1        0.0437
     22 C           2.7268  -13.4746   28.2409 C.3     1  UNL1        0.1378
     23 C           1.9997  -13.0708   29.4892 C.3     1  UNL1        0.0437
     24 C           2.1102  -14.8395   28.3233 C.3     1  UNL1        0.0437
     25 C           7.8767   -4.5209   22.0165 C.3     1  UNL1        0.1539
     26 C           6.6376   -3.7967   21.5805 C.ar    1  UNL1        0.0053
     27 C           5.4457   -3.7354   22.4891 C.ar    1  UNL1        0.0010
     28 C           4.2066   -3.0112   22.0531 C.ar    1  UNL1        0.0399
     29 C           4.1594   -2.3482   20.7084 C.ar    1  UNL1        0.1764
     30 C           5.3513   -2.4095   19.7998 C.ar    1  UNL1        0.1762
     31 C           6.5904   -3.1337   20.2357 C.ar    1  UNL1        0.0379
     32 O           5.0133   -1.6667   18.5411 O.3     1  UNL1       -0.4346
     33 C           3.6125   -1.1464   18.6720 C.3     1  UNL1        0.4294
     34 O           3.0848   -1.5676   20.0114 O.3     1  UNL1       -0.4346
@<TRIPOS>BOND
     1    21    22    1
     2    22    23    1
     3    22    24    1
     4    22    20    1
     5    20    16    1
     6    16    17    2
     7    16    18   am
     8    18    15    1
     9    15    10    1
    10    10    11   ar
    11    11    12   ar
    12    12    13   ar
    13    13     1    1
    14     1     2   ar
    15     2     3   ar
    16     3    25    1
    17    25    26    1
    18    26    27   ar
    19    27    28   ar
    20    28    29   ar
    21    29    30   ar
    22    30    31   ar
    23    30    32    1
    24    32    33    1
    25    33    34    1
    26     3     4   ar
    27     4     5   ar
    28     5     6   ar
    29     6     7   ar
    30     7     8   ar
    31     8     9   ar
    32    13    14   ar
    33    14    10   ar
    34     9     1   ar
    35    31    26   ar
    36     9     4   ar
    37    34    29    1
    38    18    19    1
@<TRIPOS>MOLECULE
*****
 34 38 0 0 0
SMALL
GASTEIGER

@<TRIPOS>ATOM
      1 C           8.2189   -6.1692   25.9776 C.ar    1  UNL1        0.1581
      2 N           7.8801   -4.8360   26.5757 N.ar    1  UNL1       -0.1641
      3 N           7.8452   -3.8261   25.4672 N.ar    1  UNL1       -0.2463
      4 C           8.1623   -4.5352   24.1839 C.ar    1  UNL1        0.0799
      5 C           8.2707   -4.0493   22.7690 C.ar    1  UNL1        0.0188
      6 C           8.6099   -5.0115   21.6695 C.ar    1  UNL1        0.0015
      7 C           8.8409   -6.4597   21.9850 C.ar    1  UNL1        0.0001
      8 C           8.7326   -6.9456   23.3999 C.ar    1  UNL1        0.0032
      9 C           8.3933   -5.9833   24.4994 C.ar    1  UNL1        0.0413
     10 C           7.8971   -9.6639   27.6358 C.ar    1  UNL1        0.2007
     11 N           9.2507   -9.2365   28.1207 N.ar    1  UNL1       -0.0584
     12 O           9.5360   -7.8753   27.5585 O.2     1  UNL1       -0.3310
     13 C           8.3587   -7.4615   26.7262 C.ar    1  UNL1        0.2792
     14 N           7.3459   -8.5669   26.7739 N.ar    1  UNL1       -0.1880
     15 C           7.2146  -10.9605   27.9564 C.3     1  UNL1        0.1621
     16 C           4.9190  -12.0445   28.5087 C.2     1  UNL1        0.4017
     17 O           5.5437  -12.7835   29.6548 O.2     1  UNL1       -0.2264
     18 N           5.7545  -11.1330   27.6595 N.am    1  UNL1       -0.2634
     19 H           5.3444  -10.6480   26.9072 H       1  UNL1        0.1532
     20 O           3.4589  -12.2170   28.2118 O.3     1  UNL1       -0.4419
     21 C           3.6016  -14.0174   27.0990 C.3     1  UNL1        0.0437
     22 C           2.8295  -13.5753   28.3067 C.3     1  UNL1        0.1378
     23 C           2.0573  -13.1331   29.5143 C.3     1  UNL1        0.0437
     24 C           2.2001  -14.9335   28.4016 C.3     1  UNL1        0.0437
     25 C           7.5457   -2.3639   25.6157 C.3     1  UNL1        0.1539
     26 C           6.2248   -1.9216   26.1726 C.ar    1  UNL1        0.0053
     27 C           5.0662   -1.6783   25.2515 C.ar    1  UNL1        0.0010
     28 C           3.7455   -1.2361   25.8083 C.ar    1  UNL1        0.0399
     29 C           3.5834   -1.0371   27.2862 C.ar    1  UNL1        0.1764
     30 C           4.7420   -1.2804   28.2072 C.ar    1  UNL1        0.1762
     31 C           6.0627   -1.7227   27.6505 C.ar    1  UNL1        0.0379
     32 O           4.2858   -1.0036   29.6092 O.3     1  UNL1       -0.4346
     33 C           2.8453   -0.5891   29.5544 C.3     1  UNL1        0.4294
     34 O           2.4111   -0.6099   28.1188 O.3     1  UNL1       -0.4346
@<TRIPOS>BOND
     1    21    22    1
     2    22    23    1
     3    22    24    1
     4    22    20    1
     5    20    16    1
     6    16    17    2
     7    16    18   am
     8    18    15    1
     9    15    10    1
    10    10    11   ar
    11    11    12   ar
    12    12    13   ar
    13    13     1    1
    14     1     2   ar
    15     2     3   ar
    16     3    25    1
    17    25    26    1
    18    26    27   ar
    19    27    28   ar
    20    28    29   ar
    21    29    30   ar
    22    30    31   ar
    23    30    32    1
    24    32    33    1
    25    33    34    1
    26     3     4   ar
    27     4     5   ar
    28     5     6   ar
    29     6     7   ar
    30     7     8   ar
    31     8     9   ar
    32    13    14   ar
    33    14    10   ar
    34     9     1   ar
    35    31    26   ar
    36     9     4   ar
    37    34    29    1
    38    18    19    1
@<TRIPOS>MOLECULE
*****
 34 38 0 0 0
SMALL
GASTEIGER

@<TRIPOS>ATOM
      1 C           7.6541   -6.3222   25.5960 C.ar    1  UNL1        0.1581
      2 N           6.9969   -5.0577   26.0640 N.ar    1  UNL1       -0.1641
      3 N           7.0008   -4.0837   24.9232 N.ar    1  UNL1       -0.2463
      4 C           7.6604   -4.7463   23.7502 C.ar    1  UNL1        0.0799
      5 C           7.9455   -4.2686   22.3572 C.ar    1  UNL1        0.0188
      6 C           8.6344   -5.1744   21.3800 C.ar    1  UNL1        0.0015
      7 C           9.0381   -6.5579   21.7958 C.ar    1  UNL1        0.0001
      8 C           8.7530   -7.0356   23.1888 C.ar    1  UNL1        0.0032
      9 C           8.0641   -6.1298   24.1660 C.ar    1  UNL1        0.0413
     10 C           7.5011   -9.7073   27.4890 C.ar    1  UNL1        0.2007
     11 N           8.8746   -9.2305   27.8581 N.ar    1  UNL1       -0.0584
     12 O           9.0991   -7.9045   27.1939 O.2     1  UNL1       -0.3310
     13 C           7.8643   -7.5617   26.4143 C.ar    1  UNL1        0.2792
     14 N           6.8768   -8.6758   26.5966 N.ar    1  UNL1       -0.1880
     15 C           6.8639  -10.9902   27.9340 C.3     1  UNL1        0.1621
     16 C           4.5792  -12.0522   28.5680 C.2     1  UNL1        0.4017
     17 O           5.1729  -12.5668   29.8458 O.2     1  UNL1       -0.2264
     18 N           5.4247  -11.2639   27.6121 N.am    1  UNL1       -0.2634
     19 H           5.0350  -10.9262   26.7735 H       1  UNL1        0.1532
     20 O           3.1399  -12.3260   28.2462 O.3     1  UNL1       -0.4419
     21 C           3.3861  -14.1549   27.2000 C.3     1  UNL1        0.0437
     22 C           2.5895  -13.7137   28.3920 C.3     1  UNL1        0.1378
     23 C           1.7930  -13.2724   29.5839 C.3     1  UNL1        0.0437
     24 C           2.0391  -15.1013   28.5378 C.3     1  UNL1        0.0437
     25 C           6.4430   -2.6915   24.9506 C.3     1  UNL1        0.1539
     26 C           5.8132   -2.1115   23.7189 C.ar    1  UNL1        0.0053
     27 C           4.4915   -2.6315   23.2364 C.ar    1  UNL1        0.0010
     28 C           3.8617   -2.0516   22.0048 C.ar    1  UNL1        0.0399
     29 C           4.5536   -0.9516   21.2556 C.ar    1  UNL1        0.1764
     30 C           5.8752   -0.4315   21.7381 C.ar    1  UNL1        0.1762
     31 C           6.5051   -1.0115   22.9697 C.ar    1  UNL1        0.0379
     32 O           6.3178    0.6517   20.7995 O.3     1  UNL1       -0.4346
     33 C           5.2696    0.8011   19.7370 C.3     1  UNL1        0.4294
     34 O           4.1793   -0.1898   20.0189 O.3     1  UNL1       -0.4346
@<TRIPOS>BOND
     1    21    22    1
     2    22    23    1
     3    22    24    1
     4    22    20    1
     5    20    16    1
     6    16    17    2
     7    16    18   am
     8    18    15    1
     9    15    10    1
    10    10    11   ar
    11    11    12   ar
    12    12    13   ar
    13    13     1    1
    14     1     2   ar
    15     2     3   ar
    16     3    25    1
    17    25    26    1
    18    26    27   ar
    19    27    28   ar
    20    28    29   ar
    21    29    30   ar
    22    30    31   ar
    23    30    32    1
    24    32    33    1
    25    33    34    1
    26     3     4   ar
    27     4     5   ar
    28     5     6   ar
    29     6     7   ar
    30     7     8   ar
    31     8     9   ar
    32    13    14   ar
    33    14    10   ar
    34     9     1   ar
    35    31    26   ar
    36     9     4   ar
    37    34    29    1
    38    18    19    1
@<TRIPOS>MOLECULE
*****
 34 38 0 0 0
SMALL
GASTEIGER

@<TRIPOS>ATOM
      1 C           7.4670   -4.6808   26.9748 C.ar    1  UNL1        0.1581
      2 N           7.2179   -3.3920   26.2489 N.ar    1  UNL1       -0.1641
      3 N           7.5459   -3.6049   24.8008 N.ar    1  UNL1       -0.2463
      4 C           7.9976   -5.0252   24.6316 C.ar    1  UNL1        0.0799
      5 C           8.4471   -5.7988   23.4277 C.ar    1  UNL1        0.0188
      6 C           8.8478   -7.2375   23.5675 C.ar    1  UNL1        0.0015
      7 C           8.7991   -7.9025   24.9111 C.ar    1  UNL1        0.0001
      8 C           8.3497   -7.1289   26.1150 C.ar    1  UNL1        0.0032
      9 C           7.9489   -5.6902   25.9753 C.ar    1  UNL1        0.0413
     10 C           6.9504   -4.5440   30.8193 C.ar    1  UNL1        0.2007
     11 N           6.9783   -6.0251   30.5830 N.ar    1  UNL1       -0.0584
     12 O           7.1752   -6.2566   29.1141 O.2     1  UNL1       -0.3310
     13 C           7.2690   -4.9186   28.4425 C.ar    1  UNL1        0.2792
     14 N           7.1301   -3.8603   29.4963 N.ar    1  UNL1       -0.1880
     15 C           6.7739   -3.8659   32.1455 C.3     1  UNL1        0.1621
     16 C           5.0293   -1.9422   32.0702 C.2     1  UNL1        0.4017
     17 O           5.9625   -1.1291   31.2227 O.2     1  UNL1       -0.2264
     18 N           5.4351   -3.3106   32.5316 N.am    1  UNL1       -0.2634
     19 H           4.8226   -3.8442   33.0878 H       1  UNL1        0.1532
     20 O           3.6905   -1.3868   32.4563 O.3     1  UNL1       -0.4419
     21 C           4.3319   -0.5391   34.2921 C.3     1  UNL1        0.0437
     22 C           3.5953   -0.0299   33.0886 C.3     1  UNL1        0.1378
     23 C           2.8588    0.4792   31.8851 C.3     1  UNL1        0.0437
     24 C           3.5001    1.3269   33.7209 C.3     1  UNL1        0.0437
     25 C           7.4405   -2.5777   23.7127 C.3     1  UNL1        0.1539
     26 C           6.4075   -2.7293   22.6356 C.ar    1  UNL1        0.0053
     27 C           5.2356   -3.6422   22.8435 C.ar    1  UNL1        0.0010
     28 C           4.2027   -3.7939   21.7665 C.ar    1  UNL1        0.0399
     29 C           4.3417   -3.0326   20.4815 C.ar    1  UNL1        0.1764
     30 C           5.5136   -2.1197   20.2736 C.ar    1  UNL1        0.1762
     31 C           6.5465   -1.9680   21.3506 C.ar    1  UNL1        0.0379
     32 O           5.3849   -1.5028   18.9124 O.3     1  UNL1       -0.4346
     33 C           4.1334   -2.0345   18.2790 C.3     1  UNL1        0.4294
     34 O           3.4887   -2.9799   19.2488 O.3     1  UNL1       -0.4346
@<TRIPOS>BOND
     1    21    22    1
     2    22    23    1
     3    22    24    1
     4    22    20    1
     5    20    16    1
     6    16    17    2
     7    16    18   am
     8    18    15    1
     9    15    10    1
    10    10    11   ar
    11    11    12   ar
    12    12    13   ar
    13    13     1    1
    14     1     2   ar
    15     2     3   ar
    16     3    25    1
    17    25    26    1
    18    26    27   ar
    19    27    28   ar
    20    28    29   ar
    21    29    30   ar
    22    30    31   ar
    23    30    32    1
    24    32    33    1
    25    33    34    1
    26     3     4   ar
    27     4     5   ar
    28     5     6   ar
    29     6     7   ar
    30     7     8   ar
    31     8     9   ar
    32    13    14   ar
    33    14    10   ar
    34     9     1   ar
    35    31    26   ar
    36     9     4   ar
    37    34    29    1
    38    18    19    1
@<TRIPOS>MOLECULE
*****
 34 38 0 0 0
SMALL
GASTEIGER

@<TRIPOS>ATOM
      1 C         -15.9094   -2.5984   19.2157 C.ar    1  UNL1        0.1581
      2 N         -17.0157   -1.6197   19.4767 N.ar    1  UNL1       -0.1641
      3 N         -16.4682   -0.2375   19.2777 N.ar    1  UNL1       -0.2463
      4 C         -15.0235   -0.3619   18.8937 C.ar    1  UNL1        0.0799
      5 C         -13.9779    0.6650   18.5740 C.ar    1  UNL1        0.0188
      6 C         -12.5870    0.2326   18.2160 C.ar    1  UNL1        0.0015
      7 C         -12.2416   -1.2266   18.1776 C.ar    1  UNL1        0.0001
      8 C         -13.2872   -2.2534   18.4973 C.ar    1  UNL1        0.0032
      9 C         -14.6781   -1.8211   18.8554 C.ar    1  UNL1        0.0413
     10 C         -15.4736   -6.4552   19.1836 C.ar    1  UNL1        0.2007
     11 N         -16.8845   -6.3270   19.6766 N.ar    1  UNL1       -0.0584
     12 O         -17.2195   -4.8666   19.7486 O.2     1  UNL1       -0.3310
     13 C         -16.0156   -4.0923   19.3001 C.ar    1  UNL1        0.2792
     14 N         -14.9367   -5.0741   18.9509 N.ar    1  UNL1       -0.1880
     15 C         -14.7304   -7.7391   18.9621 C.3     1  UNL1        0.1621
     16 C         -12.5614   -7.6498   17.5347 C.2     1  UNL1        0.4017
     17 O         -13.3871   -7.5725   16.2848 O.2     1  UNL1       -0.2264
     18 N         -13.2330   -7.7331   18.8733 N.am    1  UNL1       -0.2634
     19 H         -12.6911   -7.7839   19.6937 H       1  UNL1        0.1532
     20 O         -11.0640   -7.6439   17.4459 O.3     1  UNL1       -0.4419
     21 C          -9.5680   -7.6522   18.9500 C.3     1  UNL1        0.0437
     22 C         -10.2743   -6.5888   18.1623 C.3     1  UNL1        0.1378
     23 C         -10.9807   -5.5254   17.3747 C.3     1  UNL1        0.0437
     24 C          -9.4847   -5.5338   18.8787 C.3     1  UNL1        0.0437
     25 C         -17.2314    1.0443   19.4351 C.3     1  UNL1        0.1539
     26 C         -16.8332    2.0290   20.4943 C.ar    1  UNL1        0.0053
     27 C         -17.4253    1.9322   21.8691 C.ar    1  UNL1        0.0010
     28 C         -17.0272    2.9169   22.9283 C.ar    1  UNL1        0.0399
     29 C         -16.0369    3.9985   22.6126 C.ar    1  UNL1        0.1764
     30 C         -15.4449    4.0953   21.2378 C.ar    1  UNL1        0.1762
     31 C         -15.8430    3.1106   20.1786 C.ar    1  UNL1        0.0379
     32 O         -14.4996    5.2599   21.2211 O.3     1  UNL1       -0.4346
     33 C         -14.5074    5.8827   22.5857 C.3     1  UNL1        0.4294
     34 O         -15.4576    5.1031   23.4456 O.3     1  UNL1       -0.4346
@<TRIPOS>BOND
     1    21    22    1
     2    22    23    1
     3    22    24    1
     4    22    20    1
     5    20    16    1
     6    16    17    2
     7    16    18   am
     8    18    15    1
     9    15    10    1
    10    10    11   ar
    11    11    12   ar
    12    12    13   ar
    13    13     1    1
    14     1     2   ar
    15     2     3   ar
    16     3    25    1
    17    25    26    1
    18    26    27   ar
    19    27    28   ar
    20    28    29   ar
    21    29    30   ar
    22    30    31   ar
    23    30    32    1
    24    32    33    1
    25    33    34    1
    26     3     4   ar
    27     4     5   ar
    28     5     6   ar
    29     6     7   ar
    30     7     8   ar
    31     8     9   ar
    32    13    14   ar
    33    14    10   ar
    34     9     1   ar
    35    31    26   ar
    36     9     4   ar
    37    34    29    1
    38    18    19    1
@<TRIPOS>MOLECULE
*****
 34 38 0 0 0
SMALL
GASTEIGER

@<TRIPOS>ATOM
      1 C           7.3591   -4.4944   25.4257 C.ar    1  UNL1        0.1581
      2 N           7.6488   -3.3740   26.3800 N.ar    1  UNL1       -0.1641
      3 N           8.1242   -3.9747   27.6696 N.ar    1  UNL1       -0.2463
      4 C           8.1283   -5.4665   27.5123 C.ar    1  UNL1        0.0799
      5 C           8.5015   -6.5738   28.4528 C.ar    1  UNL1        0.0188
      6 C           8.4018   -8.0024   28.0064 C.ar    1  UNL1        0.0015
      7 C           7.9290   -8.3236   26.6196 C.ar    1  UNL1        0.0001
      8 C           7.5558   -7.2162   25.6792 C.ar    1  UNL1        0.0032
      9 C           7.6554   -5.7877   26.1255 C.ar    1  UNL1        0.0413
     10 C           5.5295   -3.6918   22.0979 C.ar    1  UNL1        0.2007
     11 N           6.6575   -4.5511   21.6087 N.ar    1  UNL1       -0.0584
     12 O           7.4802   -4.9563   22.7957 O.2     1  UNL1       -0.3310
     13 C           6.8606   -4.3475   24.0186 C.ar    1  UNL1        0.2792
     14 N           5.6551   -3.5661   23.5874 N.ar    1  UNL1       -0.1880
     15 C           4.4633   -3.0679   21.2472 C.3     1  UNL1        0.1621
     16 C           4.9569   -3.0121   18.6971 C.2     1  UNL1        0.4017
     17 O           4.6965   -4.4869   18.6143 O.2     1  UNL1       -0.2264
     18 N           4.8403   -2.3026   20.0135 N.am    1  UNL1       -0.2634
     19 H           5.0113   -1.3345   20.0679 H       1  UNL1        0.1532
     20 O           5.3340   -2.2467   17.4634 O.3     1  UNL1       -0.4419
     21 C           6.7078   -0.6779   17.8532 C.3     1  UNL1        0.0437
     22 C           5.2622   -0.7484   17.4590 C.3     1  UNL1        0.1378
     23 C           3.8166   -0.8189   17.0648 C.3     1  UNL1        0.0437
     24 C           5.1903    0.7498   17.4546 C.3     1  UNL1        0.0437
     25 C           8.5251   -3.2168   28.9004 C.3     1  UNL1        0.1539
     26 C           7.5616   -3.0757   30.0414 C.ar    1  UNL1        0.0053
     27 C           7.4939   -4.1350   31.1013 C.ar    1  UNL1        0.0010
     28 C           6.5304   -3.9939   32.2422 C.ar    1  UNL1        0.0399
     29 C           5.6346   -2.7935   32.3233 C.ar    1  UNL1        0.1764
     30 C           5.7023   -1.7342   31.2634 C.ar    1  UNL1        0.1762
     31 C           6.6658   -1.8753   30.1224 C.ar    1  UNL1        0.0379
     32 O           4.7023   -0.6702   31.6068 O.3     1  UNL1       -0.4346
     33 C           4.0166   -1.0720   32.8790 C.3     1  UNL1        0.4294
     34 O           4.5928   -2.3842   33.3218 O.3     1  UNL1       -0.4346
@<TRIPOS>BOND
     1    21    22    1
     2    22    23    1
     3    22    24    1
     4    22    20    1
     5    20    16    1
     6    16    17    2
     7    16    18   am
     8    18    15    1
     9    15    10    1
    10    10    11   ar
    11    11    12   ar
    12    12    13   ar
    13    13     1    1
    14     1     2   ar
    15     2     3   ar
    16     3    25    1
    17    25    26    1
    18    26    27   ar
    19    27    28   ar
    20    28    29   ar
    21    29    30   ar
    22    30    31   ar
    23    30    32    1
    24    32    33    1
    25    33    34    1
    26     3     4   ar
    27     4     5   ar
    28     5     6   ar
    29     6     7   ar
    30     7     8   ar
    31     8     9   ar
    32    13    14   ar
    33    14    10   ar
    34     9     1   ar
    35    31    26   ar
    36     9     4   ar
    37    34    29    1
    38    18    19    1
@<TRIPOS>MOLECULE
*****
 34 38 0 0 0
SMALL
GASTEIGER

@<TRIPOS>ATOM
      1 C           1.2867    0.6186   20.5108 C.ar    1  UNL1        0.1581
      2 N           1.7498   -0.3570   19.4698 N.ar    1  UNL1       -0.1641
      3 N           2.6946   -1.3203   20.1251 N.ar    1  UNL1       -0.2463
      4 C           2.8154   -0.9400   21.5711 C.ar    1  UNL1        0.0799
      5 C           3.6054   -1.5300   22.7015 C.ar    1  UNL1        0.0188
      6 C           3.5252   -0.9217   24.0702 C.ar    1  UNL1        0.0015
      7 C           2.6550    0.2767   24.3086 C.ar    1  UNL1        0.0001
      8 C           1.8651    0.8667   23.1782 C.ar    1  UNL1        0.0032
      9 C           1.9453    0.2584   21.8094 C.ar    1  UNL1        0.0413
     10 C          -1.6427    3.1621   20.3888 C.ar    1  UNL1        0.2007
     11 N          -0.6289    3.8457   19.5198 N.ar    1  UNL1       -0.0584
     12 O           0.5918    2.9761   19.4598 O.2     1  UNL1       -0.3310
     13 C           0.3325    1.7551   20.2916 C.ar    1  UNL1        0.2792
     14 N          -1.0484    1.8701   20.8657 N.ar    1  UNL1       -0.1880
     15 C          -3.0105    3.6797   20.7222 C.3     1  UNL1        0.1621
     16 C          -3.7579    3.8467   23.2049 C.2     1  UNL1        0.4017
     17 O          -3.0062    5.1373   23.3444 O.2     1  UNL1       -0.2264
     18 N          -3.7600    3.1179   21.8938 N.am    1  UNL1       -0.2634
     19 H          -4.2533    2.2709   21.8022 H       1  UNL1        0.1532
     20 O          -4.5074    3.2849   24.3764 O.3     1  UNL1       -0.4419
     21 C          -3.5509    3.7154   26.2203 C.3     1  UNL1        0.0437
     22 C          -4.8205    4.1581   25.5552 C.3     1  UNL1        0.1378
     23 C          -6.0900    4.6008   24.8901 C.3     1  UNL1        0.0437
     24 C          -5.1336    5.0313   26.7339 C.3     1  UNL1        0.0437
     25 C           3.3956   -2.4632   19.4526 C.3     1  UNL1        0.1539
     26 C           4.8766   -2.6359   19.6169 C.ar    1  UNL1        0.0053
     27 C           5.8189   -1.6268   19.0307 C.ar    1  UNL1        0.0010
     28 C           7.2999   -1.7994   19.1949 C.ar    1  UNL1        0.0399
     29 C           7.8385   -2.9812   19.9453 C.ar    1  UNL1        0.1764
     30 C           6.8961   -3.9904   20.5315 C.ar    1  UNL1        0.1762
     31 C           5.4152   -3.8178   20.3673 C.ar    1  UNL1        0.0379
     32 O           7.7139   -5.0461   21.2149 O.3     1  UNL1       -0.4346
     33 C           9.1616   -4.6893   21.0511 C.3     1  UNL1        0.4294
     34 O           9.2386   -3.4131   20.2664 O.3     1  UNL1       -0.4346
@<TRIPOS>BOND
     1    21    22    1
     2    22    23    1
     3    22    24    1
     4    22    20    1
     5    20    16    1
     6    16    17    2
     7    16    18   am
     8    18    15    1
     9    15    10    1
    10    10    11   ar
    11    11    12   ar
    12    12    13   ar
    13    13     1    1
    14     1     2   ar
    15     2     3   ar
    16     3    25    1
    17    25    26    1
    18    26    27   ar
    19    27    28   ar
    20    28    29   ar
    21    29    30   ar
    22    30    31   ar
    23    30    32    1
    24    32    33    1
    25    33    34    1
    26     3     4   ar
    27     4     5   ar
    28     5     6   ar
    29     6     7   ar
    30     7     8   ar
    31     8     9   ar
    32    13    14   ar
    33    14    10   ar
    34     9     1   ar
    35    31    26   ar
    36     9     4   ar
    37    34    29    1
    38    18    19    1
