@<TRIPOS>MOLECULE
*****
 31 34 0 0 0
SMALL
GASTEIGER

@<TRIPOS>ATOM
      1 C         -11.7885  -17.8218   20.2160 C.3     1  UNL1        0.2068
      2 C         -11.7081  -16.5309   20.9757 C.3     1  UNL1        0.0646
      3 C         -11.4299  -16.5442   22.4496 C.3     1  UNL1        0.0759
      4 C          -7.2609  -15.7762   23.9594 C.3     1  UNL1        0.0087
      5 C          -7.5861  -15.5583   22.5114 C.3     1  UNL1        0.0178
      6 C          -8.9758  -15.8143   22.0082 C.3     1  UNL1        0.0721
      7 N         -10.0402  -16.2882   22.9529 N.3     1  UNL1       -0.2726
      8 C          -9.7149  -16.5061   24.4009 C.3     1  UNL1        0.0721
      9 C          -8.3252  -16.2501   24.9041 C.3     1  UNL1        0.0178
     10 C          -5.8712  -15.5202   24.4627 C.3     1  UNL1        0.0475
     11 C          -2.7749  -16.1568   22.2104 C.ar    1  UNL1        0.1747
     12 N          -3.8401  -15.2469   22.7467 N.ar    1  UNL1       -0.2285
     13 C          -4.6892  -16.0373   23.6976 C.ar    1  UNL1        0.0776
     14 C          -4.1489  -17.4357   23.7489 C.ar    1  UNL1        0.0885
     15 N          -2.9658  -17.5096   22.8298 N.ar    1  UNL1       -0.3340
     16 H          -2.4118  -18.3060   22.6625 H       1  UNL1        0.1675
     17 O         -11.3011  -19.0936   20.8444 O.3     1  UNL1       -0.4754
     18 C          -9.8310  -19.3172   21.0415 C.ar    1  UNL1        0.1385
     19 C          -9.2912  -19.5887   22.4145 C.ar    1  UNL1        0.0366
     20 C          -7.8211  -19.8124   22.6117 C.ar    1  UNL1       -0.0011
     21 C          -6.8909  -19.7644   21.4360 C.ar    1  UNL1       -0.0206
     22 C          -7.4306  -19.4929   20.0631 C.ar    1  UNL1       -0.0011
     23 C          -8.9007  -19.2692   19.8658 C.ar    1  UNL1        0.0366
     24 C          -5.4208  -19.9880   21.6331 C.3     1  UNL1        0.0437
     25 C          -4.5535  -20.3487   20.4636 C.3     1  UNL1        0.0768
     26 N          -3.4323  -19.4408   20.0531 N.3     1  UNL1       -0.2724
     27 C          -3.6907  -18.3156   19.0954 C.3     1  UNL1        0.0721
     28 C          -2.5695  -17.4077   18.6849 C.3     1  UNL1        0.0174
     29 C          -1.1899  -17.6249   19.2321 C.3     1  UNL1        0.0029
     30 C          -0.9315  -18.7500   20.1898 C.3     1  UNL1        0.0174
     31 C          -2.0527  -19.6580   20.6003 C.3     1  UNL1        0.0721
@<TRIPOS>BOND
     1    11    12   ar
     2    12    13   ar
     3    13    10    1
     4    10     4    1
     5     4     5    1
     6     5     6    1
     7     6     7    1
     8     7     3    1
     9     3     2    1
    10     2     1    1
    11     1    17    1
    12    17    18    1
    13    18    19   ar
    14    19    20   ar
    15    20    21   ar
    16    21    24    1
    17    24    25    1
    18    25    26    1
    19    26    27    1
    20    27    28    1
    21    28    29    1
    22    29    30    1
    23    30    31    1
    24    21    22   ar
    25    22    23   ar
    26     7     8    1
    27     8     9    1
    28    13    14   ar
    29    14    15   ar
    30    15    11   ar
    31     9     4    1
    32    23    18   ar
    33    31    26    1
    34    15    16    1
@<TRIPOS>MOLECULE
*****
 31 34 0 0 0
SMALL
GASTEIGER

@<TRIPOS>ATOM
      1 C          -5.3825  -14.9002   26.0920 C.3     1  UNL1        0.2068
      2 C          -6.3353  -15.7329   26.8976 C.3     1  UNL1        0.0646
      3 C          -7.8075  -15.4504   26.8450 C.3     1  UNL1        0.0759
      4 C         -10.4712  -17.8853   24.1569 C.3     1  UNL1        0.0087
      5 C         -10.1612  -16.4586   23.8129 C.3     1  UNL1        0.0178
      6 C          -9.2733  -15.6470   24.7089 C.3     1  UNL1        0.0721
      7 N          -8.6954  -16.2621   25.9489 N.3     1  UNL1       -0.2726
      8 C          -9.0053  -17.6888   26.2929 C.3     1  UNL1        0.0721
      9 C          -9.8932  -18.5004   25.3969 C.3     1  UNL1        0.0178
     10 C         -11.3591  -18.6970   23.2608 C.3     1  UNL1        0.0475
     11 C         -10.5323  -19.0235   19.4826 C.ar    1  UNL1        0.1747
     12 N         -10.3796  -19.4846   20.9018 N.ar    1  UNL1       -0.2285
     13 C         -11.2169  -18.5941   21.7712 C.ar    1  UNL1        0.0776
     14 C         -11.8871  -17.5826   20.8893 C.ar    1  UNL1        0.0885
     15 N         -11.4640  -17.8479   19.4749 N.ar    1  UNL1       -0.3340
     16 H         -11.7479  -17.3398   18.6809 H       1  UNL1        0.1675
     17 O          -5.4510  -14.9203   24.5937 O.3     1  UNL1       -0.4754
     18 C          -5.4396  -16.2285   23.8599 C.ar    1  UNL1        0.1385
     19 C          -4.1883  -17.0549   23.8195 C.ar    1  UNL1        0.0366
     20 C          -4.1770  -18.3631   23.0857 C.ar    1  UNL1       -0.0011
     21 C          -5.4167  -18.8450   22.3924 C.ar    1  UNL1       -0.0206
     22 C          -6.6679  -18.0187   22.4328 C.ar    1  UNL1       -0.0011
     23 C          -6.6794  -16.7104   23.1666 C.ar    1  UNL1        0.0366
     24 C          -5.4054  -20.1532   21.6586 C.3     1  UNL1        0.0437
     25 C          -4.7297  -20.2584   20.3235 C.3     1  UNL1        0.0768
     26 N          -3.5363  -19.4029   20.0174 N.3     1  UNL1       -0.2724
     27 C          -2.2257  -19.6736   20.6951 C.3     1  UNL1        0.0721
     28 C          -1.0323  -18.8181   20.3890 C.3     1  UNL1        0.0174
     29 C          -1.1493  -17.6919   19.4051 C.3     1  UNL1        0.0029
     30 C          -2.4597  -17.4212   18.7274 C.3     1  UNL1        0.0174
     31 C          -3.6533  -18.2767   19.0335 C.3     1  UNL1        0.0721
@<TRIPOS>BOND
     1    11    12   ar
     2    12    13   ar
     3    13    10    1
     4    10     4    1
     5     4     5    1
     6     5     6    1
     7     6     7    1
     8     7     3    1
     9     3     2    1
    10     2     1    1
    11     1    17    1
    12    17    18    1
    13    18    19   ar
    14    19    20   ar
    15    20    21   ar
    16    21    24    1
    17    24    25    1
    18    25    26    1
    19    26    27    1
    20    27    28    1
    21    28    29    1
    22    29    30    1
    23    30    31    1
    24    21    22   ar
    25    22    23   ar
    26     7     8    1
    27     8     9    1
    28    13    14   ar
    29    14    15   ar
    30    15    11   ar
    31     9     4    1
    32    23    18   ar
    33    31    26    1
    34    15    16    1
@<TRIPOS>MOLECULE
*****
 31 34 0 0 0
SMALL
GASTEIGER

@<TRIPOS>ATOM
      1 C         -11.1567  -17.9083   19.6801 C.3     1  UNL1        0.2068
      2 C         -12.2624  -17.3678   20.5378 C.3     1  UNL1        0.0646
      3 C         -12.4693  -17.9067   21.9222 C.3     1  UNL1        0.0759
      4 C          -9.4544  -17.0391   25.1483 C.3     1  UNL1        0.0087
      5 C         -10.2491  -18.3107   25.1868 C.3     1  UNL1        0.0178
      6 C         -11.2541  -18.5998   24.1115 C.3     1  UNL1        0.0721
      7 N         -11.4643  -17.6174   22.9976 N.3     1  UNL1       -0.2726
      8 C         -10.6696  -16.3459   22.9591 C.3     1  UNL1        0.0721
      9 C          -9.6647  -16.0567   24.0345 C.3     1  UNL1        0.0178
     10 C          -8.4494  -16.7499   26.2237 C.3     1  UNL1        0.0475
     11 C          -5.1977  -15.3429   24.6390 C.ar    1  UNL1        0.1747
     12 N          -6.4714  -16.1284   24.5367 N.ar    1  UNL1       -0.2285
     13 C          -7.1466  -16.0931   25.8757 C.ar    1  UNL1        0.0776
     14 C          -6.2901  -15.2857   26.8055 C.ar    1  UNL1        0.0885
     15 N          -5.0856  -14.8220   26.0412 N.ar    1  UNL1       -0.3340
     16 H          -4.3506  -14.2724   26.3973 H       1  UNL1        0.1675
     17 O         -10.6098  -19.2809   19.9383 O.3     1  UNL1       -0.4754
     18 C          -9.2205  -19.4451   20.4794 C.ar    1  UNL1        0.1385
     19 C          -8.0501  -19.4831   19.5420 C.ar    1  UNL1        0.0366
     20 C          -6.6608  -19.6473   20.0831 C.ar    1  UNL1       -0.0011
     21 C          -6.4419  -19.7735   21.5617 C.ar    1  UNL1       -0.0206
     22 C          -7.6122  -19.7356   22.4991 C.ar    1  UNL1       -0.0011
     23 C          -9.0016  -19.5714   21.9580 C.ar    1  UNL1        0.0366
     24 C          -5.0526  -19.9377   22.1028 C.3     1  UNL1        0.0437
     25 C          -4.2989  -18.7437   22.6092 C.3     1  UNL1        0.0768
     26 N          -3.1516  -18.1898   21.8173 N.3     1  UNL1       -0.2724
     27 C          -2.6340  -16.8126   22.1098 C.3     1  UNL1        0.0721
     28 C          -1.4868  -16.2588   21.3179 C.3     1  UNL1        0.0174
     29 C          -0.8571  -17.0821   20.2336 C.3     1  UNL1        0.0029
     30 C          -1.3747  -18.4592   19.9412 C.3     1  UNL1        0.0174
     31 C          -2.5220  -19.0131   20.7330 C.3     1  UNL1        0.0721
@<TRIPOS>BOND
     1    11    12   ar
     2    12    13   ar
     3    13    10    1
     4    10     4    1
     5     4     5    1
     6     5     6    1
     7     6     7    1
     8     7     3    1
     9     3     2    1
    10     2     1    1
    11     1    17    1
    12    17    18    1
    13    18    19   ar
    14    19    20   ar
    15    20    21   ar
    16    21    24    1
    17    24    25    1
    18    25    26    1
    19    26    27    1
    20    27    28    1
    21    28    29    1
    22    29    30    1
    23    30    31    1
    24    21    22   ar
    25    22    23   ar
    26     7     8    1
    27     8     9    1
    28    13    14   ar
    29    14    15   ar
    30    15    11   ar
    31     9     4    1
    32    23    18   ar
    33    31    26    1
    34    15    16    1
@<TRIPOS>MOLECULE
*****
 31 34 0 0 0
SMALL
GASTEIGER

@<TRIPOS>ATOM
      1 C          -7.7038  -15.6367   26.8067 C.3     1  UNL1        0.2068
      2 C          -6.3690  -15.4186   26.1579 C.3     1  UNL1        0.0646
      3 C          -6.2770  -15.2479   24.6705 C.3     1  UNL1        0.0759
      4 C          -3.9628  -18.2160   22.2039 C.3     1  UNL1        0.0087
      5 C          -5.4021  -18.4771   22.5359 C.3     1  UNL1        0.0178
      6 C          -6.1735  -17.4878   23.3581 C.3     1  UNL1        0.0721
      7 N          -5.5056  -16.2373   23.8483 N.3     1  UNL1       -0.2726
      8 C          -4.0663  -15.9762   23.5162 C.3     1  UNL1        0.0721
      9 C          -3.2949  -16.9656   22.6940 C.3     1  UNL1        0.0178
     10 C          -3.1914  -19.2055   21.3816 C.3     1  UNL1        0.0475
     11 C           0.0619  -18.0873   19.5842 C.ar    1  UNL1        0.1747
     12 N          -0.6554  -18.5921   20.8010 N.ar    1  UNL1       -0.2285
     13 C          -2.1090  -18.7309   20.4580 C.ar    1  UNL1        0.0776
     14 C          -2.2901  -18.3120   19.0291 C.ar    1  UNL1        0.0885
     15 N          -0.9484  -17.9142   18.4890 N.ar    1  UNL1       -0.3340
     16 H          -0.7635  -17.5954   17.5761 H       1  UNL1        0.1675
     17 O          -8.3756  -16.9743   26.7090 O.3     1  UNL1       -0.4754
     18 C          -9.2870  -17.2733   25.5558 C.ar    1  UNL1        0.1385
     19 C          -9.9199  -18.6276   25.4317 C.ar    1  UNL1        0.0366
     20 C         -10.8313  -18.9267   24.2785 C.ar    1  UNL1       -0.0011
     21 C         -11.1099  -17.8714   23.2494 C.ar    1  UNL1       -0.0206
     22 C         -10.4770  -16.5172   23.3736 C.ar    1  UNL1       -0.0011
     23 C          -9.5655  -16.2181   24.5268 C.ar    1  UNL1        0.0366
     24 C         -12.0213  -18.1705   22.0963 C.3     1  UNL1        0.0437
     25 C         -11.5393  -17.9755   20.6892 C.3     1  UNL1        0.0768
     26 N         -10.3183  -18.7012   20.2073 N.3     1  UNL1       -0.2724
     27 C          -8.9982  -18.4802   20.8847 C.3     1  UNL1        0.0721
     28 C          -7.7772  -19.2059   20.4028 C.3     1  UNL1        0.0174
     29 C          -7.8760  -20.1526   19.2435 C.3     1  UNL1        0.0029
     30 C          -9.1959  -20.3736   18.5661 C.3     1  UNL1        0.0174
     31 C         -10.4171  -19.6479   19.0480 C.3     1  UNL1        0.0721
@<TRIPOS>BOND
     1    11    12   ar
     2    12    13   ar
     3    13    10    1
     4    10     4    1
     5     4     5    1
     6     5     6    1
     7     6     7    1
     8     7     3    1
     9     3     2    1
    10     2     1    1
    11     1    17    1
    12    17    18    1
    13    18    19   ar
    14    19    20   ar
    15    20    21   ar
    16    21    24    1
    17    24    25    1
    18    25    26    1
    19    26    27    1
    20    27    28    1
    21    28    29    1
    22    29    30    1
    23    30    31    1
    24    21    22   ar
    25    22    23   ar
    26     7     8    1
    27     8     9    1
    28    13    14   ar
    29    14    15   ar
    30    15    11   ar
    31     9     4    1
    32    23    18   ar
    33    31    26    1
    34    15    16    1
@<TRIPOS>MOLECULE
*****
 31 34 0 0 0
SMALL
GASTEIGER

@<TRIPOS>ATOM
      1 C          -7.3346  -15.3066   27.0709 C.3     1  UNL1        0.2068
      2 C          -6.1727  -14.9860   26.1779 C.3     1  UNL1        0.0646
      3 C          -4.9627  -15.8724   26.1742 C.3     1  UNL1        0.0759
      4 C          -3.9133  -18.2324   22.4893 C.3     1  UNL1        0.0087
      5 C          -3.0567  -18.3372   23.7162 C.3     1  UNL1        0.0178
      6 C          -3.4065  -17.5505   24.9444 C.3     1  UNL1        0.0721
      7 N          -4.6129  -16.6591   24.9459 N.3     1  UNL1       -0.2726
      8 C          -5.4695  -16.5544   23.7190 C.3     1  UNL1        0.0721
      9 C          -5.1197  -17.3410   22.4907 C.3     1  UNL1        0.0178
     10 C          -3.5635  -19.0192   21.2609 C.3     1  UNL1        0.0475
     11 C          -0.1497  -18.0813   19.6699 C.ar    1  UNL1        0.1747
     12 N          -0.9657  -18.5548   20.8361 N.ar    1  UNL1       -0.2285
     13 C          -2.4026  -18.6013   20.4080 C.ar    1  UNL1        0.0776
     14 C          -2.4746  -18.1565   18.9773 C.ar    1  UNL1        0.0885
     15 N          -1.0823  -17.8351   18.5211 N.ar    1  UNL1       -0.3340
     16 H          -0.8256  -17.5183   17.6250 H       1  UNL1        0.1675
     17 O          -8.7059  -15.4741   26.4865 O.3     1  UNL1       -0.4754
     18 C          -8.9941  -16.6239   25.5673 C.ar    1  UNL1        0.1385
     19 C          -8.7098  -16.5004   24.0996 C.ar    1  UNL1        0.0366
     20 C          -8.9980  -17.6502   23.1805 C.ar    1  UNL1       -0.0011
     21 C          -9.5705  -18.9236   23.7290 C.ar    1  UNL1       -0.0206
     22 C          -9.8548  -19.0471   25.1966 C.ar    1  UNL1       -0.0011
     23 C          -9.5665  -17.8973   26.1158 C.ar    1  UNL1        0.0366
     24 C          -9.8587  -20.0734   22.8099 C.3     1  UNL1        0.0437
     25 C         -11.0293  -20.0103   21.8740 C.3     1  UNL1        0.0768
     26 N         -11.4521  -18.6952   21.2894 N.3     1  UNL1       -0.2724
     27 C         -10.8461  -18.2166   20.0033 C.3     1  UNL1        0.0721
     28 C         -11.2689  -16.9015   19.4187 C.3     1  UNL1        0.0174
     29 C         -12.2976  -16.0650   20.1201 C.3     1  UNL1        0.0029
     30 C         -12.9036  -16.5435   21.4061 C.3     1  UNL1        0.0174
     31 C         -12.4808  -17.8587   21.9907 C.3     1  UNL1        0.0721
@<TRIPOS>BOND
     1    11    12   ar
     2    12    13   ar
     3    13    10    1
     4    10     4    1
     5     4     5    1
     6     5     6    1
     7     6     7    1
     8     7     3    1
     9     3     2    1
    10     2     1    1
    11     1    17    1
    12    17    18    1
    13    18    19   ar
    14    19    20   ar
    15    20    21   ar
    16    21    24    1
    17    24    25    1
    18    25    26    1
    19    26    27    1
    20    27    28    1
    21    28    29    1
    22    29    30    1
    23    30    31    1
    24    21    22   ar
    25    22    23   ar
    26     7     8    1
    27     8     9    1
    28    13    14   ar
    29    14    15   ar
    30    15    11   ar
    31     9     4    1
    32    23    18   ar
    33    31    26    1
    34    15    16    1
@<TRIPOS>MOLECULE
*****
 31 34 0 0 0
SMALL
GASTEIGER

@<TRIPOS>ATOM
      1 C          -5.4724  -15.9575   26.3917 C.3     1  UNL1        0.2068
      2 C          -6.5199  -15.4354   27.3300 C.3     1  UNL1        0.0646
      3 C          -7.8858  -15.0927   26.8134 C.3     1  UNL1        0.0759
      4 C         -10.1115  -18.0220   24.2220 C.3     1  UNL1        0.0087
      5 C          -9.7446  -18.3928   25.6283 C.3     1  UNL1        0.0178
      6 C          -9.0027  -17.4164   26.4921 C.3     1  UNL1        0.0721
      7 N          -8.6277  -16.0692   25.9496 N.3     1  UNL1       -0.2726
      8 C          -8.9946  -15.6984   24.5432 C.3     1  UNL1        0.0721
      9 C          -9.7365  -16.6748   23.6795 C.3     1  UNL1        0.0178
     10 C         -10.8534  -18.9985   23.3581 C.3     1  UNL1        0.0475
     11 C         -10.4123  -18.9319   19.5025 C.ar    1  UNL1        0.1747
     12 N          -9.9925  -19.4092   20.8612 N.ar    1  UNL1       -0.2285
     13 C         -10.9118  -18.7927   21.8735 C.ar    1  UNL1        0.0776
     14 C         -11.8998  -17.9345   21.1405 C.ar    1  UNL1        0.0885
     15 N         -11.5912  -18.0205   19.6751 N.ar    1  UNL1       -0.3340
     16 H         -12.0769  -17.5597   18.9534 H       1  UNL1        0.1675
     17 O          -5.4308  -15.4767   24.9715 O.3     1  UNL1       -0.4754
     18 C          -4.5377  -16.1555   23.9758 C.ar    1  UNL1        0.1385
     19 C          -4.3540  -17.6434   24.0251 C.ar    1  UNL1        0.0366
     20 C          -3.4609  -18.3223   23.0294 C.ar    1  UNL1       -0.0011
     21 C          -2.7514  -17.5132   21.9843 C.ar    1  UNL1       -0.0206
     22 C          -2.9351  -16.0254   21.9350 C.ar    1  UNL1       -0.0011
     23 C          -3.8282  -15.3465   22.9308 C.ar    1  UNL1        0.0366
     24 C          -1.8583  -18.1920   20.9886 C.3     1  UNL1        0.0437
     25 C          -2.4541  -18.9128   19.8157 C.3     1  UNL1        0.0768
     26 N          -3.8492  -19.4574   19.8998 N.3     1  UNL1       -0.2724
     27 C          -4.0696  -20.9191   20.1548 C.3     1  UNL1        0.0721
     28 C          -5.4646  -21.4638   20.2390 C.3     1  UNL1        0.0174
     29 C          -6.6394  -20.5468   20.0682 C.3     1  UNL1        0.0029
     30 C          -6.4190  -19.0852   19.8132 C.3     1  UNL1        0.0174
     31 C          -5.0239  -18.5404   19.7290 C.3     1  UNL1        0.0721
@<TRIPOS>BOND
     1    11    12   ar
     2    12    13   ar
     3    13    10    1
     4    10     4    1
     5     4     5    1
     6     5     6    1
     7     6     7    1
     8     7     3    1
     9     3     2    1
    10     2     1    1
    11     1    17    1
    12    17    18    1
    13    18    19   ar
    14    19    20   ar
    15    20    21   ar
    16    21    24    1
    17    24    25    1
    18    25    26    1
    19    26    27    1
    20    27    28    1
    21    28    29    1
    22    29    30    1
    23    30    31    1
    24    21    22   ar
    25    22    23   ar
    26     7     8    1
    27     8     9    1
    28    13    14   ar
    29    14    15   ar
    30    15    11   ar
    31     9     4    1
    32    23    18   ar
    33    31    26    1
    34    15    16    1
@<TRIPOS>MOLECULE
*****
 31 34 0 0 0
SMALL
GASTEIGER

@<TRIPOS>ATOM
      1 C          -8.5305  -15.8678   26.8764 C.3     1  UNL1        0.2068
      2 C          -7.1234  -15.8449   27.3959 C.3     1  UNL1        0.0646
      3 C          -6.0505  -15.1353   26.6245 C.3     1  UNL1        0.0759
      4 C          -3.5435  -17.4007   23.6525 C.3     1  UNL1        0.0087
      5 C          -3.5218  -17.7879   25.1014 C.3     1  UNL1        0.0178
      6 C          -4.3575  -17.0328   26.0921 C.3     1  UNL1        0.0721
      7 N          -5.2148  -15.8904   25.6337 N.3     1  UNL1       -0.2726
      8 C          -5.2365  -15.5032   24.1848 C.3     1  UNL1        0.0721
      9 C          -4.4009  -16.2584   23.1941 C.3     1  UNL1        0.0178
     10 C          -2.7078  -18.1558   22.6617 C.3     1  UNL1        0.0475
     11 C          -2.9051  -17.3526   18.8695 C.ar    1  UNL1        0.1747
     12 N          -2.2945  -17.1420   20.2233 N.ar    1  UNL1       -0.2285
     13 C          -2.9985  -18.0425   21.1946 C.ar    1  UNL1        0.0776
     14 C          -4.0443  -18.8097   20.4411 C.ar    1  UNL1        0.0885
     15 N          -3.9866  -18.3834   19.0041 N.ar    1  UNL1       -0.3340
     16 H          -4.5582  -18.7208   18.2770 H       1  UNL1        0.1675
     17 O          -9.2011  -17.1774   26.5850 O.3     1  UNL1       -0.4754
     18 C          -9.0721  -17.8001   25.2265 C.ar    1  UNL1        0.1385
     19 C          -8.4399  -17.0298   24.1053 C.ar    1  UNL1        0.0366
     20 C          -8.3109  -17.6524   22.7468 C.ar    1  UNL1       -0.0011
     21 C          -8.8140  -19.0455   22.5094 C.ar    1  UNL1       -0.0206
     22 C          -9.4462  -19.8158   23.6305 C.ar    1  UNL1       -0.0011
     23 C          -9.5752  -19.1931   24.9891 C.ar    1  UNL1        0.0366
     24 C          -8.6850  -19.6681   21.1509 C.3     1  UNL1        0.0437
     25 C          -9.6890  -19.3516   20.0823 C.3     1  UNL1        0.0768
     26 N         -10.7505  -18.3216   20.3319 N.3     1  UNL1       -0.2724
     27 C         -10.7083  -17.0098   19.6054 C.3     1  UNL1        0.0721
     28 C         -11.7698  -15.9798   19.8550 C.3     1  UNL1        0.0174
     29 C         -12.8734  -16.2615   20.8311 C.3     1  UNL1        0.0029
     30 C         -12.9156  -17.5731   21.5576 C.3     1  UNL1        0.0174
     31 C         -11.8541  -18.6032   21.3080 C.3     1  UNL1        0.0721
@<TRIPOS>BOND
     1    11    12   ar
     2    12    13   ar
     3    13    10    1
     4    10     4    1
     5     4     5    1
     6     5     6    1
     7     6     7    1
     8     7     3    1
     9     3     2    1
    10     2     1    1
    11     1    17    1
    12    17    18    1
    13    18    19   ar
    14    19    20   ar
    15    20    21   ar
    16    21    24    1
    17    24    25    1
    18    25    26    1
    19    26    27    1
    20    27    28    1
    21    28    29    1
    22    29    30    1
    23    30    31    1
    24    21    22   ar
    25    22    23   ar
    26     7     8    1
    27     8     9    1
    28    13    14   ar
    29    14    15   ar
    30    15    11   ar
    31     9     4    1
    32    23    18   ar
    33    31    26    1
    34    15    16    1
@<TRIPOS>MOLECULE
*****
 31 34 0 0 0
SMALL
GASTEIGER

@<TRIPOS>ATOM
      1 C           4.1456   -0.4530   17.1034 C.3     1  UNL1        0.2068
      2 C           4.0372    0.4066   18.3280 C.3     1  UNL1        0.0646
      3 C           3.2185   -0.0538   19.4975 C.3     1  UNL1        0.0759
      4 C           5.2544   -1.4037   23.2768 C.3     1  UNL1        0.0087
      5 C           5.9829   -0.5223   22.3061 C.3     1  UNL1        0.0178
      6 C           5.3043   -0.0723   21.0464 C.3     1  UNL1        0.0721
      7 N           3.8971   -0.5038   20.7573 N.3     1  UNL1       -0.2726
      8 C           3.1685   -1.3853   21.7279 C.3     1  UNL1        0.0721
      9 C           3.8472   -1.8352   22.9876 C.3     1  UNL1        0.0178
     10 C           5.9330   -1.8537   24.5366 C.3     1  UNL1        0.0475
     11 C           4.5062   -0.7380   27.9694 C.ar    1  UNL1        0.1747
     12 N           4.5061   -1.6632   26.7888 N.ar    1  UNL1       -0.2285
     13 C           5.5831   -1.2130   25.8469 C.ar    1  UNL1        0.0776
     14 C           6.2490   -0.0094   26.4454 C.ar    1  UNL1        0.0885
     15 N           5.5834    0.2842   27.7572 N.ar    1  UNL1       -0.3340
     16 H           5.8132    1.0187   28.3711 H       1  UNL1        0.1675
     17 O           4.4208   -1.9212   17.2397 O.3     1  UNL1       -0.4754
     18 C           5.4583   -2.4028   18.2101 C.ar    1  UNL1        0.1385
     19 C           6.8611   -1.8774   18.1305 C.ar    1  UNL1        0.0366
     20 C           7.8985   -2.3590   19.1009 C.ar    1  UNL1       -0.0011
     21 C           7.5333   -3.3660   20.1509 C.ar    1  UNL1       -0.0206
     22 C           6.1306   -3.8914   20.2306 C.ar    1  UNL1       -0.0011
     23 C           5.0930   -3.4098   19.2601 C.ar    1  UNL1        0.0366
     24 C           8.5707   -3.8476   21.1213 C.3     1  UNL1        0.0437
     25 C           8.6766   -5.3091   21.4421 C.3     1  UNL1        0.0768
     26 N           8.3553   -5.7990   22.8230 N.3     1  UNL1       -0.2724
     27 C           8.7866   -7.1703   23.2515 C.3     1  UNL1        0.0721
     28 C           8.4654   -7.6602   24.6324 C.3     1  UNL1        0.0174
     29 C           7.7128   -6.7789   25.5847 C.3     1  UNL1        0.0029
     30 C           7.2815   -5.4077   25.1562 C.3     1  UNL1        0.0174
     31 C           7.6028   -4.9177   23.7753 C.3     1  UNL1        0.0721
@<TRIPOS>BOND
     1    11    12   ar
     2    12    13   ar
     3    13    10    1
     4    10     4    1
     5     4     5    1
     6     5     6    1
     7     6     7    1
     8     7     3    1
     9     3     2    1
    10     2     1    1
    11     1    17    1
    12    17    18    1
    13    18    19   ar
    14    19    20   ar
    15    20    21   ar
    16    21    24    1
    17    24    25    1
    18    25    26    1
    19    26    27    1
    20    27    28    1
    21    28    29    1
    22    29    30    1
    23    30    31    1
    24    21    22   ar
    25    22    23   ar
    26     7     8    1
    27     8     9    1
    28    13    14   ar
    29    14    15   ar
    30    15    11   ar
    31     9     4    1
    32    23    18   ar
    33    31    26    1
    34    15    16    1
@<TRIPOS>MOLECULE
*****
 31 34 0 0 0
SMALL
GASTEIGER

@<TRIPOS>ATOM
      1 C           7.6395   -5.8654   24.8502 C.3     1  UNL1        0.2068
      2 C           7.2120   -6.1795   26.2533 C.3     1  UNL1        0.0646
      3 C           8.1529   -5.9373   27.3960 C.3     1  UNL1        0.0759
      4 C           6.6470   -4.0364   31.1866 C.3     1  UNL1        0.0087
      5 C           7.1574   -5.4467   31.2063 C.3     1  UNL1        0.0178
      6 C           7.6594   -6.0803   29.9428 C.3     1  UNL1        0.0721
      7 N           7.6509   -5.3036   28.6596 N.3     1  UNL1       -0.2726
      8 C           7.1404   -3.8933   28.6398 C.3     1  UNL1        0.0721
      9 C           6.6385   -3.2597   29.9034 C.3     1  UNL1        0.0178
     10 C           6.1450   -3.4027   32.4502 C.3     1  UNL1        0.0475
     11 C           3.6029   -0.4739   32.2919 C.ar    1  UNL1        0.1747
     12 N           3.9095   -1.9414   32.3400 N.ar    1  UNL1       -0.2285
     13 C           5.3999   -2.1021   32.3923 C.ar    1  UNL1        0.0776
     14 C           6.0145   -0.7338   32.3764 C.ar    1  UNL1        0.0885
     15 N           4.9038    0.2725   32.3144 N.ar    1  UNL1       -0.3340
     16 H           5.0101    1.2510   32.2924 H       1  UNL1        0.1675
     17 O           7.6079   -4.4497   24.3556 O.3     1  UNL1       -0.4754
     18 C           6.8033   -4.0979   23.1396 C.ar    1  UNL1        0.1385
     19 C           7.4081   -4.2370   21.7740 C.ar    1  UNL1        0.0366
     20 C           6.6035   -3.8852   20.5579 C.ar    1  UNL1       -0.0011
     21 C           5.1940   -3.3943   20.7074 C.ar    1  UNL1       -0.0206
     22 C           4.5892   -3.2552   22.0729 C.ar    1  UNL1       -0.0011
     23 C           5.3938   -3.6070   23.2891 C.ar    1  UNL1        0.0366
     24 C           4.3894   -3.0425   19.4914 C.3     1  UNL1        0.0437
     25 C           4.3204   -1.6189   19.0237 C.3     1  UNL1        0.0768
     26 N           3.0559   -0.8318   19.2008 N.3     1  UNL1       -0.2724
     27 C           2.1703   -1.0912   20.3834 C.3     1  UNL1        0.0721
     28 C           0.9058   -0.3041   20.5605 C.3     1  UNL1        0.0174
     29 C           0.5268    0.7425   19.5550 C.3     1  UNL1        0.0029
     30 C           1.4124    1.0020   18.3724 C.3     1  UNL1        0.0174
     31 C           2.6769    0.2149   18.1953 C.3     1  UNL1        0.0721
@<TRIPOS>BOND
     1    11    12   ar
     2    12    13   ar
     3    13    10    1
     4    10     4    1
     5     4     5    1
     6     5     6    1
     7     6     7    1
     8     7     3    1
     9     3     2    1
    10     2     1    1
    11     1    17    1
    12    17    18    1
    13    18    19   ar
    14    19    20   ar
    15    20    21   ar
    16    21    24    1
    17    24    25    1
    18    25    26    1
    19    26    27    1
    20    27    28    1
    21    28    29    1
    22    29    30    1
    23    30    31    1
    24    21    22   ar
    25    22    23   ar
    26     7     8    1
    27     8     9    1
    28    13    14   ar
    29    14    15   ar
    30    15    11   ar
    31     9     4    1
    32    23    18   ar
    33    31    26    1
    34    15    16    1
