@<TRIPOS>MOLECULE
*****
 19 22 0 0 0
SMALL
GASTEIGER

@<TRIPOS>ATOM
      1 O          -8.7249  -19.1148   19.2261 O.2     1  UNL1       -0.2258
      2 C          -7.5350  -19.1846   20.1367 C.2     1  UNL1        0.4090
      3 O          -6.0967  -19.1506   19.7122 O.3     1  UNL1       -0.4384
      4 C          -5.2472  -19.2457   20.9448 C.3     1  UNL1        0.1706
      5 C          -4.4633  -19.1462   19.6698 C.3     1  UNL1        0.1145
      6 N          -2.9639  -19.1482   19.7092 N.3     1  UNL1       -0.2697
      7 C          -2.2482  -19.2497   21.0235 C.3     1  UNL1        0.0723
      8 C          -3.0321  -19.3492   22.2985 C.3     1  UNL1        0.0209
      9 C          -4.5316  -19.3472   22.2591 C.3     1  UNL1        0.0427
     10 C          -4.5474  -19.2466   20.9632 C.3     1  UNL1        0.0209
     11 C          -4.1294  -19.1936   20.2832 C.3     1  UNL1        0.0723
     12 C          -6.1605  -19.3384   22.1311 C.3     1  UNL1        0.1433
     13 N          -7.5744  -19.3007   21.6317 N.am    1  UNL1       -0.2159
     14 C          -8.8106  -19.3673   22.4786 C.ar    1  UNL1        0.0874
     15 C          -9.0834  -20.3666   23.5635 C.ar    1  UNL1        0.0227
     16 C         -10.4325  -20.0632   24.1448 C.ar    1  UNL1        0.0151
     17 C         -10.9935  -18.8764   23.4191 C.ar    1  UNL1        0.0650
     18 BR        -12.3235  -18.2327   23.6777 Br      1  UNL1       -0.0419
     19 S          -9.9912  -18.4463   22.3894 S.2     1  UNL1       -0.0651
@<TRIPOS>BOND
     1     1     2    2
     2     2     3    1
     3     3     4    1
     4     4     5    1
     5     5     6    1
     6     6     7    1
     7     7     8    1
     8     8     9    1
     9     9    10    1
    10    10    11    1
    11     4    12    1
    12    12    13    1
    13    13    14    1
    14    14    15   ar
    15    15    16   ar
    16    16    17   ar
    17    17    18    1
    18    17    19   ar
    19    13     2   am
    20    19    14   ar
    21     9     4    1
    22    11     6    1
@<TRIPOS>MOLECULE
*****
 19 22 0 0 0
SMALL
GASTEIGER

@<TRIPOS>ATOM
      1 O          -7.5435  -15.9500   24.1157 O.2     1  UNL1       -0.2258
      2 C          -6.7472  -16.9898   23.3844 C.2     1  UNL1        0.4090
      3 O          -5.2508  -17.0620   23.3080 O.3     1  UNL1       -0.4384
      4 C          -4.8862  -18.2567   22.4775 C.3     1  UNL1        0.1706
      5 C          -3.7054  -17.4855   22.9884 C.3     1  UNL1        0.1145
      6 N          -2.3141  -17.9351   22.6536 N.3     1  UNL1       -0.2697
      7 C          -2.1036  -19.1558   21.8078 C.3     1  UNL1        0.0723
      8 C          -3.2843  -19.9270   21.2968 C.3     1  UNL1        0.0209
      9 C          -4.6756  -19.4774   21.6317 C.3     1  UNL1        0.0427
     10 C          -4.2369  -18.4665   22.3212 C.3     1  UNL1        0.0209
     11 C          -3.6072  -18.0552   22.5937 C.3     1  UNL1        0.0723
     12 C          -6.1572  -18.9228   22.0406 C.3     1  UNL1        0.1433
     13 N          -7.3073  -18.1398   22.6011 N.am    1  UNL1       -0.2159
     14 C          -8.7621  -18.4521   22.4115 C.ar    1  UNL1        0.0874
     15 C          -9.4260  -19.7668   22.6956 C.ar    1  UNL1        0.0227
     16 C         -10.8827  -19.6318   22.3643 C.ar    1  UNL1        0.0151
     17 C         -11.1191  -18.2336   21.8753 C.ar    1  UNL1        0.0650
     18 BR        -12.4351  -17.6644   21.4346 Br      1  UNL1       -0.0419
     19 S          -9.8086  -17.5045   21.9045 S.2     1  UNL1       -0.0651
@<TRIPOS>BOND
     1     1     2    2
     2     2     3    1
     3     3     4    1
     4     4     5    1
     5     5     6    1
     6     6     7    1
     7     7     8    1
     8     8     9    1
     9     9    10    1
    10    10    11    1
    11     4    12    1
    12    12    13    1
    13    13    14    1
    14    14    15   ar
    15    15    16   ar
    16    16    17   ar
    17    17    18    1
    18    17    19   ar
    19    13     2   am
    20    19    14   ar
    21     9     4    1
    22    11     6    1
@<TRIPOS>MOLECULE
*****
 19 22 0 0 0
SMALL
GASTEIGER

@<TRIPOS>ATOM
      1 O          -8.4312  -19.2807   18.7335 O.2     1  UNL1       -0.2258
      2 C          -8.6685  -19.2789   20.2146 C.2     1  UNL1        0.4090
      3 O          -9.9816  -19.0335   20.8969 O.3     1  UNL1       -0.4384
      4 C          -9.7590  -19.1251   22.3774 C.3     1  UNL1        0.1706
      5 C         -11.1769  -18.8249   21.9912 C.3     1  UNL1        0.1145
      6 N         -12.2216  -18.6458   23.0526 N.3     1  UNL1       -0.2697
      7 C         -11.8483  -18.7671   24.5003 C.3     1  UNL1        0.0723
      8 C         -10.4304  -19.0674   24.8866 C.3     1  UNL1        0.0209
      9 C          -9.3857  -19.2464   23.8252 C.3     1  UNL1        0.0427
     10 C         -10.2465  -19.0416   22.8728 C.3     1  UNL1        0.0209
     11 C         -11.0027  -18.8814   22.6668 C.3     1  UNL1        0.0723
     12 C          -8.3083  -19.4272   22.6102 C.3     1  UNL1        0.1433
     13 N          -7.6343  -19.5223   21.2735 N.am    1  UNL1       -0.2159
     14 C          -6.1813  -19.8102   21.0372 C.ar    1  UNL1        0.0874
     15 C          -5.6277  -20.8297   20.0864 C.ar    1  UNL1        0.0227
     16 C          -4.1310  -20.7787   20.1718 C.ar    1  UNL1        0.0151
     17 C          -3.7596  -19.7277   21.1755 C.ar    1  UNL1        0.0650
     18 BR         -2.3657  -19.3428   21.5743 Br      1  UNL1       -0.0419
     19 S          -5.0267  -19.1291   21.7103 S.2     1  UNL1       -0.0651
@<TRIPOS>BOND
     1     1     2    2
     2     2     3    1
     3     3     4    1
     4     4     5    1
     5     5     6    1
     6     6     7    1
     7     7     8    1
     8     8     9    1
     9     9    10    1
    10    10    11    1
    11     4    12    1
    12    12    13    1
    13    13    14    1
    14    14    15   ar
    15    15    16   ar
    16    16    17   ar
    17    17    18    1
    18    17    19   ar
    19    13     2   am
    20    19    14   ar
    21     9     4    1
    22    11     6    1
@<TRIPOS>MOLECULE
*****
 19 22 0 0 0
SMALL
GASTEIGER

@<TRIPOS>ATOM
      1 O          -7.8363  -16.2956   23.7879 O.2     1  UNL1       -0.2258
      2 C          -7.4309  -17.4050   22.8632 C.2     1  UNL1        0.4090
      3 O          -6.0267  -17.8555   22.5891 O.3     1  UNL1       -0.4384
      4 C          -6.0865  -18.9876   21.6068 C.3     1  UNL1        0.1706
      5 C          -4.6956  -18.6239   22.0345 C.3     1  UNL1        0.1145
      6 N          -3.5205  -19.3750   21.4822 N.3     1  UNL1       -0.2697
      7 C          -3.7364  -20.4898   20.5021 C.3     1  UNL1        0.0723
      8 C          -5.1273  -20.8535   20.0744 C.3     1  UNL1        0.0209
      9 C          -6.3024  -20.1024   20.6268 C.3     1  UNL1        0.0427
     10 C          -5.5382  -19.3381   21.3491 C.3     1  UNL1        0.0209
     11 C          -4.7963  -19.1441   21.5772 C.3     1  UNL1        0.0723
     12 C          -7.5277  -19.2367   21.2739 C.3     1  UNL1        0.1433
     13 N          -8.3586  -18.2586   22.0504 N.am    1  UNL1       -0.2159
     14 C          -9.8546  -18.1528   22.0195 C.ar    1  UNL1        0.0874
     15 C         -10.7092  -18.0966   20.7881 C.ar    1  UNL1        0.0227
     16 C         -12.1414  -17.9936   21.2220 C.ar    1  UNL1        0.0151
     17 C         -12.1718  -17.9862   22.7217 C.ar    1  UNL1        0.0650
     18 BR        -13.4000  -17.8962   23.5782 Br      1  UNL1       -0.0419
     19 S         -10.7585  -18.0846   23.2146 S.2     1  UNL1       -0.0651
@<TRIPOS>BOND
     1     1     2    2
     2     2     3    1
     3     3     4    1
     4     4     5    1
     5     5     6    1
     6     6     7    1
     7     7     8    1
     8     8     9    1
     9     9    10    1
    10    10    11    1
    11     4    12    1
    12    12    13    1
    13    13    14    1
    14    14    15   ar
    15    15    16   ar
    16    16    17   ar
    17    17    18    1
    18    17    19   ar
    19    13     2   am
    20    19    14   ar
    21     9     4    1
    22    11     6    1
@<TRIPOS>MOLECULE
*****
 19 22 0 0 0
SMALL
GASTEIGER

@<TRIPOS>ATOM
      1 O          -7.7724  -14.8968   21.2434 O.2     1  UNL1       -0.2258
      2 C          -8.5285  -15.9427   22.0078 C.2     1  UNL1        0.4090
      3 O         -10.0181  -16.0112   22.1708 O.3     1  UNL1       -0.4384
      4 C         -10.3381  -17.2146   23.0071 C.3     1  UNL1        0.1706
      5 C         -11.5437  -16.4337   22.5753 C.3     1  UNL1        0.1145
      6 N         -12.9148  -16.8829   22.9857 N.3     1  UNL1       -0.2697
      7 C         -13.0801  -18.1131   23.8279 C.3     1  UNL1        0.0723
      8 C         -11.8745  -18.8940   24.2597 C.3     1  UNL1        0.0209
      9 C         -10.5034  -18.4447   23.8493 C.3     1  UNL1        0.0427
     10 C         -10.9779  -17.4242   23.1986 C.3     1  UNL1        0.0209
     11 C         -11.6209  -17.0077   22.9683 C.3     1  UNL1        0.0723
     12 C          -9.0463  -17.8899   23.3609 C.3     1  UNL1        0.1433
     13 N          -7.9279  -17.1038   22.7433 N.am    1  UNL1       -0.2159
     14 C          -6.4657  -17.4229   22.8436 C.ar    1  UNL1        0.0874
     15 C          -5.4496  -16.6605   23.6413 C.ar    1  UNL1        0.0227
     16 C          -4.1187  -17.3267   23.4546 C.ar    1  UNL1        0.0151
     17 C          -4.3123  -18.5010   22.5415 C.ar    1  UNL1        0.0650
     18 BR         -3.2431  -19.4493   22.0860 Br      1  UNL1       -0.0419
     19 S          -5.7628  -18.5604   22.1639 S.2     1  UNL1       -0.0651
@<TRIPOS>BOND
     1     1     2    2
     2     2     3    1
     3     3     4    1
     4     4     5    1
     5     5     6    1
     6     6     7    1
     7     7     8    1
     8     8     9    1
     9     9    10    1
    10    10    11    1
    11     4    12    1
    12    12    13    1
    13    13    14    1
    14    14    15   ar
    15    15    16   ar
    16    16    17   ar
    17    17    18    1
    18    17    19   ar
    19    13     2   am
    20    19    14   ar
    21     9     4    1
    22    11     6    1
@<TRIPOS>MOLECULE
*****
 19 22 0 0 0
SMALL
GASTEIGER

@<TRIPOS>ATOM
      1 O          -6.3241  -16.3081   23.3546 O.2     1  UNL1       -0.2258
      2 C          -7.4964  -17.0172   22.7441 C.2     1  UNL1        0.4090
      3 O          -8.9390  -16.6428   22.9131 O.3     1  UNL1       -0.4384
      4 C          -9.7662  -17.6194   22.1308 C.3     1  UNL1        0.1706
      5 C         -10.5700  -16.5726   22.8436 C.3     1  UNL1        0.1145
      6 N         -12.0659  -16.5714   22.7332 N.3     1  UNL1       -0.2697
      7 C         -12.7581  -17.6170   21.9101 C.3     1  UNL1        0.0723
      8 C         -11.9543  -18.6638   21.1973 C.3     1  UNL1        0.0209
      9 C         -10.4583  -18.6650   21.3077 C.3     1  UNL1        0.0427
     10 C         -10.4643  -17.6189   22.0793 C.3     1  UNL1        0.0209
     11 C         -10.8930  -17.0606   22.4595 C.3     1  UNL1        0.0723
     12 C          -8.8347  -18.5974   21.4783 C.3     1  UNL1        0.1433
     13 N          -7.4319  -18.2253   21.8573 N.am    1  UNL1       -0.2159
     14 C          -6.1838  -18.9363   21.4253 C.ar    1  UNL1        0.0874
     15 C          -6.0913  -19.9843   20.3561 C.ar    1  UNL1        0.0227
     16 C          -4.6594  -20.4200   20.2566 C.ar    1  UNL1        0.0151
     17 C          -3.8670  -19.6412   21.2644 C.ar    1  UNL1        0.0650
     18 BR         -2.3914  -19.7588   21.5073 Br      1  UNL1       -0.0419
     19 S          -4.8091  -18.7243   21.9867 S.2     1  UNL1       -0.0651
@<TRIPOS>BOND
     1     1     2    2
     2     2     3    1
     3     3     4    1
     4     4     5    1
     5     5     6    1
     6     6     7    1
     7     7     8    1
     8     8     9    1
     9     9    10    1
    10    10    11    1
    11     4    12    1
    12    12    13    1
    13    13    14    1
    14    14    15   ar
    15    15    16   ar
    16    16    17   ar
    17    17    18    1
    18    17    19   ar
    19    13     2   am
    20    19    14   ar
    21     9     4    1
    22    11     6    1
@<TRIPOS>MOLECULE
*****
 19 22 0 0 0
SMALL
GASTEIGER

@<TRIPOS>ATOM
      1 O         -11.3024  -18.1249   24.3187 O.2     1  UNL1       -0.2258
      2 C          -9.9376  -17.5208   24.1693 C.2     1  UNL1        0.4090
      3 O          -9.1633  -16.8152   25.2429 O.3     1  UNL1       -0.4384
      4 C          -7.8546  -16.3746   24.6572 C.3     1  UNL1        0.1706
      5 C          -8.0316  -16.0069   26.1006 C.3     1  UNL1        0.1145
      6 N          -6.9477  -15.2636   26.8236 N.3     1  UNL1       -0.2697
      7 C          -5.6869  -14.8879   26.1032 C.3     1  UNL1        0.0723
      8 C          -5.5098  -15.2556   24.6598 C.3     1  UNL1        0.0209
      9 C          -6.5937  -15.9989   23.9368 C.3     1  UNL1        0.0427
     10 C          -7.3488  -16.0277   24.9946 C.3     1  UNL1        0.0209
     11 C          -7.4432  -15.8316   25.7644 C.3     1  UNL1        0.0723
     12 C          -7.8200  -16.8078   23.2215 C.3     1  UNL1        0.1433
     13 N          -9.1074  -17.5162   22.9200 N.am    1  UNL1       -0.2159
     14 C          -9.4962  -18.1148   21.6007 C.ar    1  UNL1        0.0874
     15 C         -10.7451  -17.8097   20.8279 C.ar    1  UNL1        0.0227
     16 C         -10.7253  -18.6299   19.5722 C.ar    1  UNL1        0.0151
     17 C          -9.4641  -19.4421   19.5690 C.ar    1  UNL1        0.0650
     18 BR         -9.0375  -20.4037   18.4998 Br      1  UNL1       -0.0419
     19 S          -8.7045  -19.1237   20.8227 S.2     1  UNL1       -0.0651
@<TRIPOS>BOND
     1     1     2    2
     2     2     3    1
     3     3     4    1
     4     4     5    1
     5     5     6    1
     6     6     7    1
     7     7     8    1
     8     8     9    1
     9     9    10    1
    10    10    11    1
    11     4    12    1
    12    12    13    1
    13    13    14    1
    14    14    15   ar
    15    15    16   ar
    16    16    17   ar
    17    17    18    1
    18    17    19   ar
    19    13     2   am
    20    19    14   ar
    21     9     4    1
    22    11     6    1
@<TRIPOS>MOLECULE
*****
 19 22 0 0 0
SMALL
GASTEIGER

@<TRIPOS>ATOM
      1 O          -5.9477  -21.3742   20.1331 O.2     1  UNL1       -0.2258
      2 C          -5.0936  -20.2132   20.5482 C.2     1  UNL1        0.4090
      3 O          -3.6775  -19.9632   20.1213 O.3     1  UNL1       -0.4384
      4 C          -3.2142  -18.6937   20.7723 C.3     1  UNL1        0.1706
      5 C          -2.1800  -19.3467   19.9041 C.3     1  UNL1        0.1145
      6 N          -0.8249  -18.7216   19.7525 N.3     1  UNL1       -0.2697
      7 C          -0.5041  -17.4435   20.4690 C.3     1  UNL1        0.0723
      8 C          -1.5383  -16.7905   21.3372 C.3     1  UNL1        0.0209
      9 C          -2.8934  -17.4156   21.4889 C.3     1  UNL1        0.0427
     10 C          -2.5819  -18.4020   20.7016 C.3     1  UNL1        0.0209
     11 C          -2.0302  -18.7503   20.2385 C.3     1  UNL1        0.0723
     12 C          -4.3440  -18.1592   21.6017 C.3     1  UNL1        0.1433
     13 N          -5.5055  -19.0982   21.4632 N.am    1  UNL1       -0.2159
     14 C          -6.8439  -18.9486   22.1237 C.ar    1  UNL1        0.0874
     15 C          -7.7571  -20.0674   22.5290 C.ar    1  UNL1        0.0227
     16 C          -8.9817  -19.4642   23.1507 C.ar    1  UNL1        0.0151
     17 C          -8.8253  -17.9725   23.1297 C.ar    1  UNL1        0.0650
     18 BR         -9.8161  -16.9746   23.6517 Br      1  UNL1       -0.0419
     19 S          -7.5040  -17.6538   22.4950 S.2     1  UNL1       -0.0651
@<TRIPOS>BOND
     1     1     2    2
     2     2     3    1
     3     3     4    1
     4     4     5    1
     5     5     6    1
     6     6     7    1
     7     7     8    1
     8     8     9    1
     9     9    10    1
    10    10    11    1
    11     4    12    1
    12    12    13    1
    13    13    14    1
    14    14    15   ar
    15    15    16   ar
    16    16    17   ar
    17    17    18    1
    18    17    19   ar
    19    13     2   am
    20    19    14   ar
    21     9     4    1
    22    11     6    1
@<TRIPOS>MOLECULE
*****
 19 22 0 0 0
SMALL
GASTEIGER

@<TRIPOS>ATOM
      1 O          -5.9564  -21.3261   20.8988 O.2     1  UNL1       -0.2258
      2 C          -6.5901  -20.1394   21.5622 C.2     1  UNL1        0.4090
      3 O          -8.0449  -19.9874   21.8943 O.3     1  UNL1       -0.4384
      4 C          -8.2342  -18.6504   22.5473 C.3     1  UNL1        0.1706
      5 C          -9.4985  -19.4452   22.4068 C.3     1  UNL1        0.1145
      6 N         -10.7976  -18.8815   22.9015 N.3     1  UNL1       -0.2697
      7 C         -10.8324  -17.5231   23.5366 C.3     1  UNL1        0.0723
      8 C          -9.5680  -16.7283   23.6771 C.3     1  UNL1        0.0209
      9 C          -8.2690  -17.2920   23.1824 C.3     1  UNL1        0.0427
     10 C          -8.8405  -18.3874   22.7782 C.3     1  UNL1        0.0209
     11 C          -9.5148  -18.8112   22.7032 C.3     1  UNL1        0.0723
     12 C          -6.8963  -17.9760   22.6188 C.3     1  UNL1        0.1433
     13 N          -5.8802  -18.8962   22.0100 N.am    1  UNL1       -0.2159
     14 C          -4.4119  -18.6215   21.8730 C.ar    1  UNL1        0.0874
     15 C          -3.4869  -18.2012   22.9766 C.ar    1  UNL1        0.0227
     16 C          -2.1142  -18.0388   22.3941 C.ar    1  UNL1        0.0151
     17 C          -2.1908  -18.3586   20.9306 C.ar    1  UNL1        0.0650
     18 BR         -1.0480  -18.3243   19.9596 Br      1  UNL1       -0.0419
     19 S          -3.6109  -18.7187   20.6086 S.2     1  UNL1       -0.0651
@<TRIPOS>BOND
     1     1     2    2
     2     2     3    1
     3     3     4    1
     4     4     5    1
     5     5     6    1
     6     6     7    1
     7     7     8    1
     8     8     9    1
     9     9    10    1
    10    10    11    1
    11     4    12    1
    12    12    13    1
    13    13    14    1
    14    14    15   ar
    15    15    16   ar
    16    16    17   ar
    17    17    18    1
    18    17    19   ar
    19    13     2   am
    20    19    14   ar
    21     9     4    1
    22    11     6    1
