@<TRIPOS>MOLECULE
*****
 29 31 0 0 0
SMALL
GASTEIGER

@<TRIPOS>ATOM
      1 C           0.5565    0.9803   21.7292 C.ar    1  UNL1        0.1719
      2 C           1.1066    0.0801   20.6628 C.ar    1  UNL1        0.0359
      3 C           2.2775   -0.8084   20.9619 C.ar    1  UNL1       -0.0157
      4 C           2.8983   -0.7968   22.3274 C.ar    1  UNL1        0.0152
      5 C           2.3482    0.1033   23.3937 C.ar    1  UNL1        0.0412
      6 C           1.1772    0.9918   23.0946 C.ar    1  UNL1        0.1724
      7 C           4.0692   -1.6853   22.6265 C.ar    1  UNL1        0.0628
      8 C           4.6900   -1.6737   23.9919 C.ar    1  UNL1        0.0593
      9 C           5.8609   -2.5622   24.2910 C.ar    1  UNL1        0.1996
     10 O           6.4817   -2.5506   25.6565 O.2     1  UNL1       -0.2864
     11 C           6.4111   -3.4623   23.2247 C.ar    1  UNL1        0.0701
     12 C           5.7903   -3.4739   21.8593 C.ar    1  UNL1        0.0801
     13 N           4.6194   -2.5854   21.5602 N.ar    1  UNL1       -0.3274
     14 C           3.9986   -2.5970   20.1946 C.3     1  UNL1        0.0898
     15 C           2.8277   -1.7085   19.8955 C.3     1  UNL1        0.0490
     16 C           7.5820   -4.3508   23.5238 C.2     1  UNL1        0.0774
     17 O           8.9412   -3.7537   23.7381 O.co2   1  UNL1       -0.5444
     18 O           7.3938   -5.8365   23.6086 O.co2   1  UNL1       -0.5444
     19 C           4.5488   -3.4971   19.1283 C.3     1  UNL1        0.0211
     20 C           5.5721   -2.9774   18.1625 C.3     1  UNL1        0.0019
     21 C           4.0756   -4.9170   19.0277 C.3     1  UNL1        0.0019
     22 O           0.6271    1.8920   24.1610 O.3     1  UNL1       -0.4684
     23 C          -0.0625    1.3041   25.3564 C.3     1  UNL1        0.2526
     24 O          -0.6145    1.8688   21.4300 O.3     1  UNL1       -0.4723
     25 C          -0.5728    2.7921   20.2487 C.3     1  UNL1        0.2082
     26 C          -1.5696    3.9070   20.1327 C.3     1  UNL1        0.0794
     27 C          -3.0274    3.5954   19.9662 C.3     1  UNL1        0.1461
     28 C          -4.6062    3.3451   22.0143 C.3     1  UNL1        0.1741
     29 O          -3.7277    2.7259   20.9680 O.3     1  UNL1       -0.3510
@<TRIPOS>UNITY_ATOM_ATTR
17 1
charge -1
@<TRIPOS>BOND
     1    28    29    1
     2    29    27    1
     3    27    26    1
     4    26    25    1
     5    25    24    1
     6    24     1    1
     7     1     2   ar
     8     2     3   ar
     9     3     4   ar
    10     4     5   ar
    11     5     6   ar
    12     6    22    1
    13    22    23    1
    14     4     7    1
    15     7     8   ar
    16     8     9   ar
    17     9    10    2
    18     9    11   ar
    19    11    16    1
    20    16    17   ar
    21    16    18   ar
    22    11    12   ar
    23    12    13   ar
    24    13    14    1
    25    14    19    1
    26    19    20    1
    27    19    21    1
    28    14    15    1
    29     6     1   ar
    30    13     7   ar
    31    15     3    1
@<TRIPOS>MOLECULE
*****
 29 31 0 0 0
SMALL
GASTEIGER

@<TRIPOS>ATOM
      1 C           5.4120   -3.6156   22.6468 C.ar    1  UNL1        0.1719
      2 C           4.8485   -2.6750   23.6704 C.ar    1  UNL1        0.0359
      3 C           3.8544   -1.6290   23.2609 C.ar    1  UNL1       -0.0157
      4 C           3.4237   -1.5237   21.8280 C.ar    1  UNL1        0.0152
      5 C           3.9872   -2.4644   20.8045 C.ar    1  UNL1        0.0412
      6 C           4.9813   -3.5103   21.2139 C.ar    1  UNL1        0.1724
      7 C           2.4295   -0.4778   21.4186 C.ar    1  UNL1        0.0628
      8 C           1.9989   -0.3724   19.9856 C.ar    1  UNL1        0.0593
      9 C           1.0047    0.6735   19.5762 C.ar    1  UNL1        0.1996
     10 O           0.5740    0.7788   18.1432 O.2     1  UNL1       -0.2864
     11 C           0.4412    1.6142   20.5997 C.ar    1  UNL1        0.0701
     12 C           0.8719    1.5088   22.0327 C.ar    1  UNL1        0.0801
     13 N           1.8660    0.4629   22.4421 N.ar    1  UNL1       -0.3274
     14 C           2.2967    0.3576   23.8751 C.3     1  UNL1        0.0898
     15 C           3.2909   -0.6884   24.2845 C.3     1  UNL1        0.0490
     16 C          -0.5529    2.6601   20.1903 C.2     1  UNL1        0.0774
     17 O          -0.1205    3.8096   19.3291 O.co2   1  UNL1       -0.5444
     18 O          -1.9795    2.5566   20.6421 O.co2   1  UNL1       -0.5444
     19 C           1.7332    1.2982   24.8986 C.3     1  UNL1        0.0211
     20 C           2.5533    2.4562   25.3851 C.3     1  UNL1        0.0019
     21 C           0.3497    1.0809   25.4358 C.3     1  UNL1        0.0019
     22 O           5.5448   -4.4510   20.1903 O.3     1  UNL1       -0.4684
     23 C           4.7541   -4.7808   18.9590 C.3     1  UNL1        0.2526
     24 O           6.4061   -4.6616   23.0563 O.3     1  UNL1       -0.4723
     25 C           6.9955   -4.6371   24.4354 C.3     1  UNL1        0.2082
     26 C           7.7307   -5.8356   24.9582 C.3     1  UNL1        0.0794
     27 C           7.2504   -6.5275   26.1994 C.3     1  UNL1        0.1461
     28 C           6.6185   -5.3748   28.4404 C.3     1  UNL1        0.1741
     29 O           6.2293   -5.8679   27.0783 O.3     1  UNL1       -0.3510
@<TRIPOS>UNITY_ATOM_ATTR
17 1
charge -1
@<TRIPOS>BOND
     1    28    29    1
     2    29    27    1
     3    27    26    1
     4    26    25    1
     5    25    24    1
     6    24     1    1
     7     1     2   ar
     8     2     3   ar
     9     3     4   ar
    10     4     5   ar
    11     5     6   ar
    12     6    22    1
    13    22    23    1
    14     4     7    1
    15     7     8   ar
    16     8     9   ar
    17     9    10    2
    18     9    11   ar
    19    11    16    1
    20    16    17   ar
    21    16    18   ar
    22    11    12   ar
    23    12    13   ar
    24    13    14    1
    25    14    19    1
    26    19    20    1
    27    19    21    1
    28    14    15    1
    29     6     1   ar
    30    13     7   ar
    31    15     3    1
@<TRIPOS>MOLECULE
*****
 29 31 0 0 0
SMALL
GASTEIGER

@<TRIPOS>ATOM
      1 C           6.7218   -3.6020   25.5640 C.ar    1  UNL1        0.1719
      2 C           6.5679   -4.0857   24.1526 C.ar    1  UNL1        0.0359
      3 C           5.5982   -3.4093   23.2294 C.ar    1  UNL1       -0.0157
      4 C           4.7824   -2.2492   23.7178 C.ar    1  UNL1        0.0152
      5 C           4.9363   -1.7655   25.1292 C.ar    1  UNL1        0.0412
      6 C           5.9060   -2.4419   26.0524 C.ar    1  UNL1        0.1724
      7 C           3.8127   -1.5728   22.7947 C.ar    1  UNL1        0.0628
      8 C           2.9969   -0.4127   23.2830 C.ar    1  UNL1        0.0593
      9 C           2.0272    0.2637   22.3599 C.ar    1  UNL1        0.1996
     10 O           1.2114    1.4239   22.8483 O.2     1  UNL1       -0.2864
     11 C           1.8733   -0.2200   20.9484 C.ar    1  UNL1        0.0701
     12 C           2.6891   -1.3802   20.4601 C.ar    1  UNL1        0.0801
     13 N           3.6588   -2.0566   21.3832 N.ar    1  UNL1       -0.3274
     14 C           4.4746   -3.2167   20.8948 C.3     1  UNL1        0.0898
     15 C           5.4443   -3.8931   21.8179 C.3     1  UNL1        0.0490
     16 C           0.9036    0.4564   20.0253 C.2     1  UNL1        0.0774
     17 O           1.3298    0.8384   18.6389 O.co2   1  UNL1       -0.5444
     18 O          -0.4923    0.7507   20.4887 O.co2   1  UNL1       -0.5444
     19 C           4.3207   -3.7005   19.4833 C.3     1  UNL1        0.0211
     20 C           3.2839   -4.7331   19.1532 C.3     1  UNL1        0.0019
     21 C           5.2035   -3.1517   18.4019 C.3     1  UNL1        0.0019
     22 O           6.0599   -1.9581   27.4639 O.3     1  UNL1       -0.4684
     23 C           4.8904   -1.3506   28.1802 C.3     1  UNL1        0.2526
     24 O           7.6916   -4.2784   26.4871 O.3     1  UNL1       -0.4723
     25 C           7.2662   -5.4869   27.2672 C.3     1  UNL1        0.2082
     26 C           6.3024   -5.3425   28.4075 C.3     1  UNL1        0.0794
     27 C           6.8159   -5.1849   29.8081 C.3     1  UNL1        0.1461
     28 C           6.4939   -3.7682   31.9620 C.3     1  UNL1        0.1741
     29 O           6.7478   -3.8485   30.4859 O.3     1  UNL1       -0.3510
@<TRIPOS>UNITY_ATOM_ATTR
17 1
charge -1
@<TRIPOS>BOND
     1    28    29    1
     2    29    27    1
     3    27    26    1
     4    26    25    1
     5    25    24    1
     6    24     1    1
     7     1     2   ar
     8     2     3   ar
     9     3     4   ar
    10     4     5   ar
    11     5     6   ar
    12     6    22    1
    13    22    23    1
    14     4     7    1
    15     7     8   ar
    16     8     9   ar
    17     9    10    2
    18     9    11   ar
    19    11    16    1
    20    16    17   ar
    21    16    18   ar
    22    11    12   ar
    23    12    13   ar
    24    13    14    1
    25    14    19    1
    26    19    20    1
    27    19    21    1
    28    14    15    1
    29     6     1   ar
    30    13     7   ar
    31    15     3    1
@<TRIPOS>MOLECULE
*****
 29 31 0 0 0
SMALL
GASTEIGER

@<TRIPOS>ATOM
      1 C           6.7179   -3.6153   25.4862 C.ar    1  UNL1        0.1719
      2 C           6.5485   -4.0943   24.0749 C.ar    1  UNL1        0.0359
      3 C           5.5795   -3.4054   23.1602 C.ar    1  UNL1       -0.0157
      4 C           4.7800   -2.2375   23.6569 C.ar    1  UNL1        0.0152
      5 C           4.9494   -1.7585   25.0682 C.ar    1  UNL1        0.0412
      6 C           5.9184   -2.4474   25.9828 C.ar    1  UNL1        0.1724
      7 C           3.8111   -1.5486   22.7422 C.ar    1  UNL1        0.0628
      8 C           3.0116   -0.3807   23.2389 C.ar    1  UNL1        0.0593
      9 C           2.0426    0.3082   22.3242 C.ar    1  UNL1        0.1996
     10 O           1.2431    1.4762   22.8209 O.2     1  UNL1       -0.2864
     11 C           1.8732   -0.1708   20.9129 C.ar    1  UNL1        0.0701
     12 C           2.6727   -1.3387   20.4163 C.ar    1  UNL1        0.0801
     13 N           3.6416   -2.0276   21.3309 N.ar    1  UNL1       -0.3274
     14 C           4.4412   -3.1956   20.8342 C.3     1  UNL1        0.0898
     15 C           5.4101   -3.8845   21.7489 C.3     1  UNL1        0.0490
     16 C           0.9043    0.5181   19.9983 C.2     1  UNL1        0.0774
     17 O           1.3665    1.0356   18.6685 O.co2   1  UNL1       -0.5444
     18 O          -0.5269    0.6895   20.4135 O.co2   1  UNL1       -0.5444
     19 C           4.2717   -3.6746   19.4229 C.3     1  UNL1        0.0211
     20 C           3.2294   -4.7040   19.1003 C.3     1  UNL1        0.0019
     21 C           5.1446   -3.1243   18.3342 C.3     1  UNL1        0.0019
     22 O           6.0878   -1.9683   27.3942 O.3     1  UNL1       -0.4684
     23 C           4.8892   -1.5494   28.1930 C.3     1  UNL1        0.2526
     24 O           7.6868   -4.3042   26.4008 O.3     1  UNL1       -0.4723
     25 C           7.2327   -5.4612   27.2405 C.3     1  UNL1        0.2082
     26 C           7.0128   -6.8046   26.6104 C.3     1  UNL1        0.0794
     27 C           8.1071   -7.4451   25.8089 C.3     1  UNL1        0.1461
     28 C           8.9951   -7.0699   23.3963 C.3     1  UNL1        0.1741
     29 O           7.9511   -7.6129   24.3264 O.3     1  UNL1       -0.3510
@<TRIPOS>UNITY_ATOM_ATTR
17 1
charge -1
@<TRIPOS>BOND
     1    28    29    1
     2    29    27    1
     3    27    26    1
     4    26    25    1
     5    25    24    1
     6    24     1    1
     7     1     2   ar
     8     2     3   ar
     9     3     4   ar
    10     4     5   ar
    11     5     6   ar
    12     6    22    1
    13    22    23    1
    14     4     7    1
    15     7     8   ar
    16     8     9   ar
    17     9    10    2
    18     9    11   ar
    19    11    16    1
    20    16    17   ar
    21    16    18   ar
    22    11    12   ar
    23    12    13   ar
    24    13    14    1
    25    14    19    1
    26    19    20    1
    27    19    21    1
    28    14    15    1
    29     6     1   ar
    30    13     7   ar
    31    15     3    1
@<TRIPOS>MOLECULE
*****
 29 31 0 0 0
SMALL
GASTEIGER

@<TRIPOS>ATOM
      1 C           3.0684   -0.0427   26.8758 C.ar    1  UNL1        0.1719
      2 C           2.4207    0.5283   25.6494 C.ar    1  UNL1        0.0359
      3 C           2.7465   -0.0348   24.2978 C.ar    1  UNL1       -0.0157
      4 C           3.7201   -1.1690   24.1727 C.ar    1  UNL1        0.0152
      5 C           4.3679   -1.7401   25.3992 C.ar    1  UNL1        0.0412
      6 C           4.0420   -1.1769   26.7508 C.ar    1  UNL1        0.1724
      7 C           4.0460   -1.7322   22.8212 C.ar    1  UNL1        0.0628
      8 C           5.0196   -2.8664   22.6961 C.ar    1  UNL1        0.0593
      9 C           5.3454   -3.4295   21.3446 C.ar    1  UNL1        0.1996
     10 O           6.3191   -4.5638   21.2195 O.2     1  UNL1       -0.2864
     11 C           4.6977   -2.8585   20.1181 C.ar    1  UNL1        0.0701
     12 C           3.7241   -1.7243   20.2432 C.ar    1  UNL1        0.0801
     13 N           3.3982   -1.1612   21.5947 N.ar    1  UNL1       -0.3274
     14 C           2.4245   -0.0269   21.7198 C.3     1  UNL1        0.0898
     15 C           2.0987    0.5362   23.0713 C.3     1  UNL1        0.0490
     16 C           5.0235   -3.4216   18.7666 C.2     1  UNL1        0.0774
     17 O           5.7234   -2.5710   17.7485 O.co2   1  UNL1       -0.5444
     18 O           4.6495   -4.8354   18.4331 O.co2   1  UNL1       -0.5444
     19 C           1.7768    0.5441   20.4933 C.3     1  UNL1        0.0211
     20 C           2.4861    1.5939   19.6901 C.3     1  UNL1        0.0019
     21 C           0.4197    0.0654   20.0699 C.3     1  UNL1        0.0019
     22 O           4.6899   -1.7480   27.9773 O.3     1  UNL1       -0.4684
     23 C           5.8157   -2.7300   27.8426 C.3     1  UNL1        0.2526
     24 O           2.7426    0.5204   28.2274 O.3     1  UNL1       -0.4723
     25 C           1.8199   -0.2230   29.1471 C.3     1  UNL1        0.2082
     26 C           0.3349   -0.1262   28.9587 C.3     1  UNL1        0.0794
     27 C          -0.2735    1.1401   28.4329 C.3     1  UNL1        0.1461
     28 C          -1.1603    2.5386   26.4310 C.3     1  UNL1        0.1741
     29 O          -0.6956    1.2293   26.9963 O.3     1  UNL1       -0.3510
@<TRIPOS>UNITY_ATOM_ATTR
17 1
charge -1
@<TRIPOS>BOND
     1    28    29    1
     2    29    27    1
     3    27    26    1
     4    26    25    1
     5    25    24    1
     6    24     1    1
     7     1     2   ar
     8     2     3   ar
     9     3     4   ar
    10     4     5   ar
    11     5     6   ar
    12     6    22    1
    13    22    23    1
    14     4     7    1
    15     7     8   ar
    16     8     9   ar
    17     9    10    2
    18     9    11   ar
    19    11    16    1
    20    16    17   ar
    21    16    18   ar
    22    11    12   ar
    23    12    13   ar
    24    13    14    1
    25    14    19    1
    26    19    20    1
    27    19    21    1
    28    14    15    1
    29     6     1   ar
    30    13     7   ar
    31    15     3    1
@<TRIPOS>MOLECULE
*****
 29 31 0 0 0
SMALL
GASTEIGER

@<TRIPOS>ATOM
      1 C           0.4641    0.8722   21.3216 C.ar    1  UNL1        0.1719
      2 C           1.1176   -0.0166   20.3053 C.ar    1  UNL1        0.0359
      3 C           2.2838   -0.8743   20.6983 C.ar    1  UNL1       -0.0157
      4 C           2.7965   -0.8431   22.1076 C.ar    1  UNL1        0.0152
      5 C           2.1430    0.0457   23.1239 C.ar    1  UNL1        0.0412
      6 C           0.9768    0.9034   22.7309 C.ar    1  UNL1        0.1724
      7 C           3.9627   -1.7008   22.5006 C.ar    1  UNL1        0.0628
      8 C           4.4754   -1.6696   23.9099 C.ar    1  UNL1        0.0593
      9 C           5.6416   -2.5272   24.3028 C.ar    1  UNL1        0.1996
     10 O           6.1543   -2.4960   25.7122 O.2     1  UNL1       -0.2864
     11 C           6.2950   -3.4161   23.2866 C.ar    1  UNL1        0.0701
     12 C           5.7823   -3.4472   21.8773 C.ar    1  UNL1        0.0801
     13 N           4.6161   -2.5896   21.4843 N.ar    1  UNL1       -0.3274
     14 C           4.1034   -2.6208   20.0749 C.3     1  UNL1        0.0898
     15 C           2.9372   -1.7632   19.6819 C.3     1  UNL1        0.0490
     16 C           7.4612   -4.2737   23.6796 C.2     1  UNL1        0.0774
     17 O           7.3481   -5.7681   23.6168 O.co2   1  UNL1       -0.5444
     18 O           8.7406   -3.6370   24.1353 O.co2   1  UNL1       -0.5444
     19 C           4.7569   -3.5096   19.0586 C.3     1  UNL1        0.0211
     20 C           5.8426   -2.9684   18.1764 C.3     1  UNL1        0.0019
     21 C           4.3247   -4.9398   18.9245 C.3     1  UNL1        0.0019
     22 O           0.3233    1.7923   23.7473 O.3     1  UNL1       -0.4684
     23 C           0.0967    1.2943   25.1439 C.3     1  UNL1        0.2526
     24 O          -0.7021    1.7298   20.9286 O.3     1  UNL1       -0.4723
     25 C          -0.4706    3.1156   20.4031 C.3     1  UNL1        0.2082
     26 C           0.0544    3.3121   19.0119 C.3     1  UNL1        0.0794
     27 C           1.5254    3.4988   18.7848 C.3     1  UNL1        0.1461
     28 C           3.7826    2.2144   18.7106 C.3     1  UNL1        0.1741
     29 O           2.3556    2.3596   18.2718 O.3     1  UNL1       -0.3510
@<TRIPOS>UNITY_ATOM_ATTR
17 1
charge -1
@<TRIPOS>BOND
     1    28    29    1
     2    29    27    1
     3    27    26    1
     4    26    25    1
     5    25    24    1
     6    24     1    1
     7     1     2   ar
     8     2     3   ar
     9     3     4   ar
    10     4     5   ar
    11     5     6   ar
    12     6    22    1
    13    22    23    1
    14     4     7    1
    15     7     8   ar
    16     8     9   ar
    17     9    10    2
    18     9    11   ar
    19    11    16    1
    20    16    17   ar
    21    16    18   ar
    22    11    12   ar
    23    12    13   ar
    24    13    14    1
    25    14    19    1
    26    19    20    1
    27    19    21    1
    28    14    15    1
    29     6     1   ar
    30    13     7   ar
    31    15     3    1
@<TRIPOS>MOLECULE
*****
 29 31 0 0 0
SMALL
GASTEIGER

@<TRIPOS>ATOM
      1 C           2.1812    1.4924   25.6162 C.ar    1  UNL1        0.1719
      2 C           1.9139    1.9512   24.2133 C.ar    1  UNL1        0.0359
      3 C           2.3879    1.1286   23.0520 C.ar    1  UNL1       -0.0157
      4 C           3.1292   -0.1529   23.2936 C.ar    1  UNL1        0.0152
      5 C           3.3964   -0.6117   24.6964 C.ar    1  UNL1        0.0412
      6 C           2.9224    0.2110   25.8577 C.ar    1  UNL1        0.1724
      7 C           3.6032   -0.9755   22.1323 C.ar    1  UNL1        0.0628
      8 C           4.3444   -2.2569   22.3739 C.ar    1  UNL1        0.0593
      9 C           4.8184   -3.0796   21.2126 C.ar    1  UNL1        0.1996
     10 O           5.5597   -4.3611   21.4542 O.2     1  UNL1       -0.2864
     11 C           4.5512   -2.6208   19.8097 C.ar    1  UNL1        0.0701
     12 C           3.8099   -1.3394   19.5682 C.ar    1  UNL1        0.0801
     13 N           3.3359   -0.5167   20.7295 N.ar    1  UNL1       -0.3274
     14 C           2.5946    0.7648   20.4878 C.3     1  UNL1        0.0898
     15 C           2.1206    1.5874   21.6491 C.3     1  UNL1        0.0490
     16 C           5.0252   -3.4434   18.6484 C.2     1  UNL1        0.0774
     17 O           4.5427   -4.8539   18.4819 O.co2   1  UNL1       -0.5444
     18 O           5.9817   -2.8556   17.6537 O.co2   1  UNL1       -0.5444
     19 C           2.3274    1.2236   19.0850 C.3     1  UNL1        0.0211
     20 C           1.0903    0.7676   18.3696 C.3     1  UNL1        0.0019
     21 C           3.2971    2.1384   18.3975 C.3     1  UNL1        0.0019
     22 O           3.1897   -0.2479   27.2606 O.3     1  UNL1       -0.4684
     23 C           3.9843   -1.4969   27.5026 C.3     1  UNL1        0.2526
     24 O           1.7071    2.3150   26.7774 O.3     1  UNL1       -0.4723
     25 C           0.3133    2.1381   27.3026 C.3     1  UNL1        0.2082
     26 C          -0.0475    0.9011   28.0705 C.3     1  UNL1        0.0794
     27 C          -0.5422    1.0124   29.4822 C.3     1  UNL1        0.1461
     28 C           1.8760    0.7349   30.3906 C.3     1  UNL1        0.1741
     29 O           0.4368    1.0925   30.6159 O.3     1  UNL1       -0.3510
@<TRIPOS>UNITY_ATOM_ATTR
17 1
charge -1
@<TRIPOS>BOND
     1    28    29    1
     2    29    27    1
     3    27    26    1
     4    26    25    1
     5    25    24    1
     6    24     1    1
     7     1     2   ar
     8     2     3   ar
     9     3     4   ar
    10     4     5   ar
    11     5     6   ar
    12     6    22    1
    13    22    23    1
    14     4     7    1
    15     7     8   ar
    16     8     9   ar
    17     9    10    2
    18     9    11   ar
    19    11    16    1
    20    16    17   ar
    21    16    18   ar
    22    11    12   ar
    23    12    13   ar
    24    13    14    1
    25    14    19    1
    26    19    20    1
    27    19    21    1
    28    14    15    1
    29     6     1   ar
    30    13     7   ar
    31    15     3    1
@<TRIPOS>MOLECULE
*****
 29 31 0 0 0
SMALL
GASTEIGER

@<TRIPOS>ATOM
      1 C           2.7408   -1.3937   20.6189 C.ar    1  UNL1        0.1719
      2 C           2.5967   -0.6731   21.9265 C.ar    1  UNL1        0.0359
      3 C           3.4020   -1.1077   23.1151 C.ar    1  UNL1       -0.0157
      4 C           4.3513   -2.2629   22.9961 C.ar    1  UNL1        0.0152
      5 C           4.4953   -2.9835   21.6884 C.ar    1  UNL1        0.0412
      6 C           3.6901   -2.5489   20.4999 C.ar    1  UNL1        0.1724
      7 C           5.1565   -2.6975   24.1846 C.ar    1  UNL1        0.0628
      8 C           6.1058   -3.8527   24.0656 C.ar    1  UNL1        0.0593
      9 C           6.9111   -4.2874   25.2541 C.ar    1  UNL1        0.1996
     10 O           7.8604   -5.4427   25.1350 O.2     1  UNL1       -0.2864
     11 C           6.7670   -3.5667   26.5618 C.ar    1  UNL1        0.0701
     12 C           5.8177   -2.4115   26.6808 C.ar    1  UNL1        0.0801
     13 N           5.0125   -1.9769   25.4922 N.ar    1  UNL1       -0.3274
     14 C           4.0631   -0.8216   25.6113 C.3     1  UNL1        0.0898
     15 C           3.2579   -0.3870   24.4228 C.3     1  UNL1        0.0490
     16 C           7.5723   -4.0013   27.7503 C.2     1  UNL1        0.0774
     17 O           6.9110   -4.7438   28.8734 O.co2   1  UNL1       -0.5444
     18 O           9.0388   -3.6934   27.8158 O.co2   1  UNL1       -0.5444
     19 C           3.9191   -0.1009   26.9189 C.3     1  UNL1        0.0211
     20 C           4.7422    1.1222   27.1959 C.3     1  UNL1        0.0019
     21 C           2.9520   -0.6033   27.9496 C.3     1  UNL1        0.0019
     22 O           3.8342   -3.2696   19.1922 O.3     1  UNL1       -0.4684
     23 C           3.8381   -4.7693   19.1588 C.3     1  UNL1        0.2526
     24 O           1.9355   -0.9591   19.4304 O.3     1  UNL1       -0.4723
     25 C           2.2265    0.3543   18.7669 C.3     1  UNL1        0.2082
     26 C           3.3816    0.4755   17.8176 C.3     1  UNL1        0.0794
     27 C           3.8238   -0.7147   17.0187 C.3     1  UNL1        0.1461
     28 C           6.1272   -0.7905   18.2180 C.3     1  UNL1        0.1741
     29 O           5.2607   -1.1443   17.0459 O.3     1  UNL1       -0.3510
@<TRIPOS>UNITY_ATOM_ATTR
17 1
charge -1
@<TRIPOS>BOND
     1    28    29    1
     2    29    27    1
     3    27    26    1
     4    26    25    1
     5    25    24    1
     6    24     1    1
     7     1     2   ar
     8     2     3   ar
     9     3     4   ar
    10     4     5   ar
    11     5     6   ar
    12     6    22    1
    13    22    23    1
    14     4     7    1
    15     7     8   ar
    16     8     9   ar
    17     9    10    2
    18     9    11   ar
    19    11    16    1
    20    16    17   ar
    21    16    18   ar
    22    11    12   ar
    23    12    13   ar
    24    13    14    1
    25    14    19    1
    26    19    20    1
    27    19    21    1
    28    14    15    1
    29     6     1   ar
    30    13     7   ar
    31    15     3    1
@<TRIPOS>MOLECULE
*****
 29 31 0 0 0
SMALL
GASTEIGER

@<TRIPOS>ATOM
      1 C          -0.3373    3.9713   20.3990 C.ar    1  UNL1        0.1719
      2 C           0.5130    3.3405   21.4614 C.ar    1  UNL1        0.0359
      3 C           1.4898    2.2617   21.0980 C.ar    1  UNL1       -0.0157
      4 C           1.6163    1.8138   19.6720 C.ar    1  UNL1        0.0152
      5 C           0.7659    2.4447   18.6096 C.ar    1  UNL1        0.0412
      6 C          -0.2109    3.5234   18.9730 C.ar    1  UNL1        0.1724
      7 C           2.5931    0.7351   19.3085 C.ar    1  UNL1        0.0628
      8 C           2.7196    0.2872   17.8826 C.ar    1  UNL1        0.0593
      9 C           3.6964   -0.7916   17.5191 C.ar    1  UNL1        0.1996
     10 O           3.8228   -1.2395   16.0931 O.2     1  UNL1       -0.2864
     11 C           4.5467   -1.4224   18.5816 C.ar    1  UNL1        0.0701
     12 C           4.4203   -0.9745   20.0075 C.ar    1  UNL1        0.0801
     13 N           3.4435    0.1042   20.3710 N.ar    1  UNL1       -0.3274
     14 C           3.3170    0.5521   21.7970 C.3     1  UNL1        0.0898
     15 C           2.3402    1.6309   22.1605 C.3     1  UNL1        0.0490
     16 C           5.5236   -2.5012   18.2181 C.2     1  UNL1        0.0774
     17 O           5.2508   -3.9231   18.6101 O.co2   1  UNL1       -0.5444
     18 O           6.7731   -2.1580   17.4626 O.co2   1  UNL1       -0.5444
     19 C           4.1674   -0.0787   22.8595 C.3     1  UNL1        0.0211
     20 C           3.6712   -1.2860   23.5987 C.3     1  UNL1        0.0019
     21 C           5.5140    0.4977   23.1829 C.3     1  UNL1        0.0019
     22 O          -1.0613    4.1543   17.9105 O.3     1  UNL1       -0.4684
     23 C          -0.5590    5.3528   17.1613 C.3     1  UNL1        0.2526
     24 O          -1.3142    5.0501   20.7624 O.3     1  UNL1       -0.4723
     25 C          -2.6775    4.6869   21.2716 C.3     1  UNL1        0.2082
     26 C          -3.2908    3.3696   20.8992 C.3     1  UNL1        0.0794
     27 C          -4.7497    3.1245   21.1478 C.3     1  UNL1        0.1461
     28 C          -4.8331    3.0593   23.7437 C.3     1  UNL1        0.1741
     29 O          -5.3746    3.5635   22.4388 O.3     1  UNL1       -0.3510
@<TRIPOS>UNITY_ATOM_ATTR
17 1
charge -1
@<TRIPOS>BOND
     1    28    29    1
     2    29    27    1
     3    27    26    1
     4    26    25    1
     5    25    24    1
     6    24     1    1
     7     1     2   ar
     8     2     3   ar
     9     3     4   ar
    10     4     5   ar
    11     5     6   ar
    12     6    22    1
    13    22    23    1
    14     4     7    1
    15     7     8   ar
    16     8     9   ar
    17     9    10    2
    18     9    11   ar
    19    11    16    1
    20    16    17   ar
    21    16    18   ar
    22    11    12   ar
    23    12    13   ar
    24    13    14    1
    25    14    19    1
    26    19    20    1
    27    19    21    1
    28    14    15    1
    29     6     1   ar
    30    13     7   ar
    31    15     3    1
