@<TRIPOS>MOLECULE
*****
 22 24 0 0 0
SMALL
GASTEIGER

@<TRIPOS>ATOM
      1 C          -5.9790  -19.3395   21.6142 C.3     1  UNL1        0.0207
      2 C          -5.0711  -18.3453   22.2755 C.3     1  UNL1        0.0274
      3 C          -5.6419  -17.2955   23.1822 C.ar    1  UNL1       -0.0258
      4 C          -4.7340  -16.3014   23.8435 C.ar    1  UNL1       -0.0046
      5 C          -5.3049  -15.2516   24.7501 C.ar    1  UNL1       -0.0003
      6 C          -6.7836  -15.1959   24.9955 C.ar    1  UNL1       -0.0003
      7 C          -7.6915  -16.1901   24.3342 C.ar    1  UNL1       -0.0043
      8 C          -7.1207  -17.2399   23.4276 C.ar    1  UNL1       -0.0224
      9 C          -8.0286  -18.2341   22.7662 C.3     1  UNL1        0.0443
     10 C          -7.4577  -19.2838   21.8596 C.3     1  UNL1        0.0104
     11 C          -9.5073  -18.1784   23.0115 C.ar    1  UNL1       -0.0175
     12 C         -10.0885  -18.8160   24.2387 C.ar    1  UNL1       -0.0030
     13 C         -11.5673  -18.7604   24.4840 C.ar    1  UNL1        0.0119
     14 C         -12.4648  -18.0671   23.5022 C.ar    1  UNL1        0.0682
     15 CL        -13.9436  -18.0115   23.7476 Cl      1  UNL1       -0.0814
     16 C         -11.8837  -17.4296   22.2752 C.ar    1  UNL1        0.0679
     17 CL        -12.7813  -16.7363   21.2934 Cl      1  UNL1       -0.0814
     18 C         -10.4049  -17.4852   22.0298 C.ar    1  UNL1        0.0083
     19 C          -5.4082  -20.3893   20.7075 C.3     1  UNL1        0.0689
     20 C          -3.3667  -19.5055   19.3656 C.3     1  UNL1        0.0859
     21 N          -3.9367  -20.4103   20.4174 N.3     1  UNL1       -0.2963
     22 H          -3.4611  -20.1829   21.2906 H       1  UNL1        0.1233
@<TRIPOS>BOND
     1    20    21    1
     2    21    19    1
     3     1    19    1
     4     1     2    1
     5     2     3    1
     6     3     4   ar
     7     4     5   ar
     8     5     6   ar
     9     6     7   ar
    10     7     8   ar
    11     8     9    1
    12     9    11    1
    13    11    12   ar
    14    12    13   ar
    15    13    14   ar
    16    14    15    1
    17    14    16   ar
    18    16    17    1
    19    16    18   ar
    20     9    10    1
    21    10     1    1
    22     8     3   ar
    23    18    11   ar
    24    21    22    1
@<TRIPOS>MOLECULE
*****
 22 24 0 0 0
SMALL
GASTEIGER

@<TRIPOS>ATOM
      1 C         -10.7952  -17.8608   21.1348 C.3     1  UNL1        0.0207
      2 C          -9.9720  -18.8070   20.3120 C.3     1  UNL1        0.0274
      3 C          -8.5408  -19.0686   20.6772 C.ar    1  UNL1       -0.0258
      4 C          -7.7177  -20.0148   19.8543 C.ar    1  UNL1       -0.0046
      5 C          -6.2866  -20.2763   20.2196 C.ar    1  UNL1       -0.0003
      6 C          -5.6786  -19.5916   21.4076 C.ar    1  UNL1       -0.0003
      7 C          -6.5017  -18.6454   22.2305 C.ar    1  UNL1       -0.0043
      8 C          -7.9328  -18.3839   21.8653 C.ar    1  UNL1       -0.0224
      9 C          -8.7560  -17.4377   22.6881 C.3     1  UNL1        0.0443
     10 C         -10.1872  -17.1762   22.3229 C.3     1  UNL1        0.0104
     11 C          -8.1480  -16.7530   23.8762 C.ar    1  UNL1       -0.0175
     12 C          -6.9559  -15.8600   23.6984 C.ar    1  UNL1       -0.0030
     13 C          -6.3479  -15.1753   24.8865 C.ar    1  UNL1        0.0119
     14 C          -6.9320  -15.3836   26.2523 C.ar    1  UNL1        0.0682
     15 CL         -6.3240  -14.6989   27.4404 Cl      1  UNL1       -0.0814
     16 C          -8.1240  -16.2765   26.4301 C.ar    1  UNL1        0.0679
     17 CL         -8.7081  -16.4848   27.7959 Cl      1  UNL1       -0.0814
     18 C          -8.7321  -16.9612   25.2420 C.ar    1  UNL1        0.0083
     19 C         -12.2264  -17.5993   20.7696 C.3     1  UNL1        0.0689
     20 C         -11.6393  -15.6001   19.2178 C.3     1  UNL1        0.0859
     21 N         -12.6098  -16.3027   20.1203 N.3     1  UNL1       -0.2963
     22 H         -13.4465  -16.4867   19.5667 H       1  UNL1        0.1233
@<TRIPOS>BOND
     1    20    21    1
     2    21    19    1
     3     1    19    1
     4     1     2    1
     5     2     3    1
     6     3     4   ar
     7     4     5   ar
     8     5     6   ar
     9     6     7   ar
    10     7     8   ar
    11     8     9    1
    12     9    11    1
    13    11    12   ar
    14    12    13   ar
    15    13    14   ar
    16    14    15    1
    17    14    16   ar
    18    16    17    1
    19    16    18   ar
    20     9    10    1
    21    10     1    1
    22     8     3   ar
    23    18    11   ar
    24    21    22    1
@<TRIPOS>MOLECULE
*****
 22 24 0 0 0
SMALL
GASTEIGER

@<TRIPOS>ATOM
      1 C         -12.0782  -18.0603   22.4355 C.3     1  UNL1        0.0207
      2 C         -11.6698  -18.8337   21.2169 C.3     1  UNL1        0.0274
      3 C         -10.2201  -18.9375   20.8455 C.ar    1  UNL1       -0.0258
      4 C          -9.8116  -19.7109   19.6269 C.ar    1  UNL1       -0.0046
      5 C          -8.3621  -19.8146   19.2555 C.ar    1  UNL1       -0.0003
      6 C          -7.3210  -19.1449   20.1027 C.ar    1  UNL1       -0.0003
      7 C          -7.7295  -18.3715   21.3212 C.ar    1  UNL1       -0.0043
      8 C          -9.1791  -18.2678   21.6926 C.ar    1  UNL1       -0.0224
      9 C          -9.5876  -17.4944   22.9113 C.3     1  UNL1        0.0443
     10 C         -11.0372  -17.3906   23.2826 C.3     1  UNL1        0.0104
     11 C          -8.5465  -16.8247   23.7584 C.ar    1  UNL1       -0.0175
     12 C          -7.2471  -16.3915   23.1470 C.ar    1  UNL1       -0.0030
     13 C          -6.2060  -15.7218   23.9942 C.ar    1  UNL1        0.0119
     14 C          -6.4644  -15.4853   25.4528 C.ar    1  UNL1        0.0682
     15 CL         -5.4233  -14.8157   26.3000 Cl      1  UNL1       -0.0814
     16 C          -7.7638  -15.9186   26.0641 C.ar    1  UNL1        0.0679
     17 CL         -8.0222  -15.6821   27.5227 Cl      1  UNL1       -0.0814
     18 C          -8.8049  -16.5882   25.2169 C.ar    1  UNL1        0.0083
     19 C         -13.5279  -17.9566   22.8069 C.3     1  UNL1        0.0689
     20 C         -14.0302  -18.5493   25.2860 C.3     1  UNL1        0.0859
     21 N         -13.9188  -17.5304   24.1909 N.3     1  UNL1       -0.2963
     22 H         -13.2264  -16.8459   24.4949 H       1  UNL1        0.1233
@<TRIPOS>BOND
     1    20    21    1
     2    21    19    1
     3     1    19    1
     4     1     2    1
     5     2     3    1
     6     3     4   ar
     7     4     5   ar
     8     5     6   ar
     9     6     7   ar
    10     7     8   ar
    11     8     9    1
    12     9    11    1
    13    11    12   ar
    14    12    13   ar
    15    13    14   ar
    16    14    15    1
    17    14    16   ar
    18    16    17    1
    19    16    18   ar
    20     9    10    1
    21    10     1    1
    22     8     3   ar
    23    18    11   ar
    24    21    22    1
@<TRIPOS>MOLECULE
*****
 22 24 0 0 0
SMALL
GASTEIGER

@<TRIPOS>ATOM
      1 C          -8.0146  -19.2117   20.6919 C.3     1  UNL1        0.0207
      2 C          -9.3690  -18.9338   20.1103 C.3     1  UNL1        0.0274
      3 C         -10.3070  -17.9946   20.8091 C.ar    1  UNL1       -0.0258
      4 C         -11.6614  -17.7168   20.2275 C.ar    1  UNL1       -0.0046
      5 C         -12.5993  -16.7776   20.9263 C.ar    1  UNL1       -0.0003
      6 C         -12.1828  -16.1163   22.2066 C.ar    1  UNL1       -0.0003
      7 C         -10.8283  -16.3942   22.7882 C.ar    1  UNL1       -0.0043
      8 C          -9.8904  -17.3333   22.0894 C.ar    1  UNL1       -0.0224
      9 C          -8.5359  -17.6112   22.6709 C.3     1  UNL1        0.0443
     10 C          -7.5980  -18.5504   21.9722 C.3     1  UNL1        0.0104
     11 C          -8.1194  -16.9499   23.9512 C.ar    1  UNL1       -0.0175
     12 C          -8.9960  -17.0459   25.1647 C.ar    1  UNL1       -0.0030
     13 C          -8.5794  -16.3846   26.4450 C.ar    1  UNL1        0.0119
     14 C          -7.2863  -15.6274   26.5119 C.ar    1  UNL1        0.0682
     15 CL         -6.8697  -14.9661   27.7922 Cl      1  UNL1       -0.0814
     16 C          -6.4098  -15.5314   25.2984 C.ar    1  UNL1        0.0679
     17 CL         -5.1166  -14.7741   25.3652 Cl      1  UNL1       -0.0814
     18 C          -6.8263  -16.1927   24.0181 C.ar    1  UNL1        0.0083
     19 C          -7.0766  -20.1509   19.9931 C.3     1  UNL1        0.0689
     20 C          -4.4962  -20.3675   20.2029 C.3     1  UNL1        0.0859
     21 N          -5.8717  -20.6806   20.7125 N.3     1  UNL1       -0.2963
     22 H          -5.9196  -20.3261   21.6677 H       1  UNL1        0.1233
@<TRIPOS>BOND
     1    20    21    1
     2    21    19    1
     3     1    19    1
     4     1     2    1
     5     2     3    1
     6     3     4   ar
     7     4     5   ar
     8     5     6   ar
     9     6     7   ar
    10     7     8   ar
    11     8     9    1
    12     9    11    1
    13    11    12   ar
    14    12    13   ar
    15    13    14   ar
    16    14    15    1
    17    14    16   ar
    18    16    17    1
    19    16    18   ar
    20     9    10    1
    21    10     1    1
    22     8     3   ar
    23    18    11   ar
    24    21    22    1
@<TRIPOS>MOLECULE
*****
 22 24 0 0 0
SMALL
GASTEIGER

@<TRIPOS>ATOM
      1 C          -8.5198  -16.1154   24.2248 C.3     1  UNL1        0.0207
      2 C          -9.9678  -16.3140   23.8877 C.3     1  UNL1        0.0274
      3 C         -10.3650  -17.3229   22.8511 C.ar    1  UNL1       -0.0258
      4 C         -11.8130  -17.5215   22.5140 C.ar    1  UNL1       -0.0046
      5 C         -12.2102  -18.5304   21.4774 C.ar    1  UNL1       -0.0003
      6 C         -11.1593  -19.3406   20.7780 C.ar    1  UNL1       -0.0003
      7 C          -9.7112  -19.1419   21.1151 C.ar    1  UNL1       -0.0043
      8 C          -9.3141  -18.1331   22.1517 C.ar    1  UNL1       -0.0224
      9 C          -7.8660  -17.9344   22.4888 C.3     1  UNL1        0.0443
     10 C          -7.4689  -16.9256   23.5254 C.3     1  UNL1        0.0104
     11 C          -6.8151  -18.7446   21.7894 C.ar    1  UNL1       -0.0175
     12 C          -7.1962  -19.6463   20.6528 C.ar    1  UNL1       -0.0030
     13 C          -6.1453  -20.4565   19.9534 C.ar    1  UNL1        0.0119
     14 C          -4.7133  -20.3650   20.3906 C.ar    1  UNL1        0.0682
     15 CL         -3.6624  -21.1752   19.6912 Cl      1  UNL1       -0.0814
     16 C          -4.3323  -19.4634   21.5271 C.ar    1  UNL1        0.0679
     17 CL         -2.9003  -19.3719   21.9643 Cl      1  UNL1       -0.0814
     18 C          -5.3832  -18.6532   22.2265 C.ar    1  UNL1        0.0083
     19 C          -8.1226  -15.1065   25.2614 C.3     1  UNL1        0.0689
     20 C          -5.7101  -15.2446   26.2156 C.3     1  UNL1        0.0859
     21 N          -6.7132  -14.5952   25.3090 N.3     1  UNL1       -0.2963
     22 H          -6.3424  -14.6651   24.3614 H       1  UNL1        0.1233
@<TRIPOS>BOND
     1    20    21    1
     2    21    19    1
     3     1    19    1
     4     1     2    1
     5     2     3    1
     6     3     4   ar
     7     4     5   ar
     8     5     6   ar
     9     6     7   ar
    10     7     8   ar
    11     8     9    1
    12     9    11    1
    13    11    12   ar
    14    12    13   ar
    15    13    14   ar
    16    14    15    1
    17    14    16   ar
    18    16    17    1
    19    16    18   ar
    20     9    10    1
    21    10     1    1
    22     8     3   ar
    23    18    11   ar
    24    21    22    1
@<TRIPOS>MOLECULE
*****
 22 24 0 0 0
SMALL
GASTEIGER

@<TRIPOS>ATOM
      1 C          -8.9176  -16.3791   23.8879 C.3     1  UNL1        0.0207
      2 C         -10.0637  -16.8027   23.0179 C.3     1  UNL1        0.0274
      3 C          -9.8273  -17.7362   21.8677 C.ar    1  UNL1       -0.0258
      4 C         -10.9734  -18.1598   20.9977 C.ar    1  UNL1       -0.0046
      5 C         -10.7369  -19.0932   19.8477 C.ar    1  UNL1       -0.0003
      6 C          -9.3543  -19.6031   19.5676 C.ar    1  UNL1       -0.0003
      7 C          -8.2082  -19.1795   20.4376 C.ar    1  UNL1       -0.0043
      8 C          -8.4447  -18.2460   21.5876 C.ar    1  UNL1       -0.0224
      9 C          -7.2985  -17.8224   22.4577 C.3     1  UNL1        0.0443
     10 C          -7.5350  -16.8890   23.6078 C.3     1  UNL1        0.0104
     11 C          -5.9159  -18.3322   22.1776 C.ar    1  UNL1       -0.0175
     12 C          -4.7517  -17.8181   22.9717 C.ar    1  UNL1       -0.0030
     13 C          -3.3691  -18.3279   22.6916 C.ar    1  UNL1        0.0119
     14 C          -3.1507  -19.3519   21.6175 C.ar    1  UNL1        0.0682
     15 CL         -1.7681  -19.8618   21.3374 Cl      1  UNL1       -0.0814
     16 C          -4.3148  -19.8661   20.8235 C.ar    1  UNL1        0.0679
     17 CL         -4.0963  -20.8901   19.7493 Cl      1  UNL1       -0.0814
     18 C          -5.6974  -19.3562   21.1036 C.ar    1  UNL1        0.0083
     19 C          -9.1541  -15.4456   25.0380 C.3     1  UNL1        0.0689
     20 C          -8.0225  -16.0667   27.2926 C.3     1  UNL1        0.0859
     21 N          -8.0750  -15.2205   26.0553 N.3     1  UNL1       -0.2963
     22 H          -7.1850  -15.3477   25.5735 H       1  UNL1        0.1233
@<TRIPOS>BOND
     1    20    21    1
     2    21    19    1
     3     1    19    1
     4     1     2    1
     5     2     3    1
     6     3     4   ar
     7     4     5   ar
     8     5     6   ar
     9     6     7   ar
    10     7     8   ar
    11     8     9    1
    12     9    11    1
    13    11    12   ar
    14    12    13   ar
    15    13    14   ar
    16    14    15    1
    17    14    16   ar
    18    16    17    1
    19    16    18   ar
    20     9    10    1
    21    10     1    1
    22     8     3   ar
    23    18    11   ar
    24    21    22    1
@<TRIPOS>MOLECULE
*****
 22 24 0 0 0
SMALL
GASTEIGER

@<TRIPOS>ATOM
      1 C         -13.6738   -3.1440   19.2005 C.3     1  UNL1        0.0207
      2 C         -12.1758   -3.2209   19.1937 C.3     1  UNL1        0.0274
      3 C         -11.4936   -4.5504   19.0625 C.ar    1  UNL1       -0.0258
      4 C          -9.9957   -4.6273   19.0558 C.ar    1  UNL1       -0.0046
      5 C          -9.3136   -5.9567   18.9246 C.ar    1  UNL1       -0.0003
      6 C         -10.1295   -7.2093   18.8003 C.ar    1  UNL1       -0.0003
      7 C         -11.6274   -7.1324   18.8071 C.ar    1  UNL1       -0.0043
      8 C         -12.3095   -5.8029   18.9382 C.ar    1  UNL1       -0.0224
      9 C         -13.8076   -5.7260   18.9450 C.3     1  UNL1        0.0443
     10 C         -14.4897   -4.3965   19.0761 C.3     1  UNL1        0.0104
     11 C         -14.6235   -6.9785   18.8206 C.ar    1  UNL1       -0.0175
     12 C         -14.1743   -8.0783   17.9048 C.ar    1  UNL1       -0.0030
     13 C         -14.9902   -9.3309   17.7804 C.ar    1  UNL1        0.0119
     14 C         -16.2553   -9.4836   18.5720 C.ar    1  UNL1        0.0682
     15 CL        -17.0711  -10.7361   18.4476 Cl      1  UNL1       -0.0814
     16 C         -16.7043   -8.3838   19.4877 C.ar    1  UNL1        0.0679
     17 CL        -17.9694   -8.5365   20.2793 Cl      1  UNL1       -0.0814
     18 C         -15.8885   -7.1313   19.6121 C.ar    1  UNL1        0.0083
     19 C         -14.3560   -1.8144   19.3316 C.3     1  UNL1        0.0689
     20 C         -16.3773   -0.4203   20.1803 C.3     1  UNL1        0.0859
     21 N         -15.5461   -1.6678   20.2327 N.3     1  UNL1       -0.2963
     22 H         -16.1708   -2.4468   20.0247 H       1  UNL1        0.1233
@<TRIPOS>BOND
     1    20    21    1
     2    21    19    1
     3     1    19    1
     4     1     2    1
     5     2     3    1
     6     3     4   ar
     7     4     5   ar
     8     5     6   ar
     9     6     7   ar
    10     7     8   ar
    11     8     9    1
    12     9    11    1
    13    11    12   ar
    14    12    13   ar
    15    13    14   ar
    16    14    15    1
    17    14    16   ar
    18    16    17    1
    19    16    18   ar
    20     9    10    1
    21    10     1    1
    22     8     3   ar
    23    18    11   ar
    24    21    22    1
@<TRIPOS>MOLECULE
*****
 22 24 0 0 0
SMALL
GASTEIGER

@<TRIPOS>ATOM
      1 C          -9.5597  -19.0740   22.4132 C.3     1  UNL1        0.0207
      2 C          -9.8304  -17.9686   23.3903 C.3     1  UNL1        0.0274
      3 C          -8.7180  -17.0588   23.8206 C.ar    1  UNL1       -0.0258
      4 C          -8.9887  -15.9534   24.7978 C.ar    1  UNL1       -0.0046
      5 C          -7.8764  -15.0437   25.2280 C.ar    1  UNL1       -0.0003
      6 C          -6.4934  -15.2394   24.6811 C.ar    1  UNL1       -0.0003
      7 C          -6.2227  -16.3448   23.7040 C.ar    1  UNL1       -0.0043
      8 C          -7.3350  -17.2545   23.2737 C.ar    1  UNL1       -0.0224
      9 C          -7.0644  -18.3599   22.2965 C.3     1  UNL1        0.0443
     10 C          -8.1767  -19.2696   21.8663 C.3     1  UNL1        0.0104
     11 C          -5.6814  -18.5556   21.7497 C.ar    1  UNL1       -0.0175
     12 C          -5.4930  -19.0479   20.3453 C.ar    1  UNL1       -0.0030
     13 C          -4.1100  -19.2436   19.7984 C.ar    1  UNL1        0.0119
     14 C          -2.9155  -18.9469   20.6559 C.ar    1  UNL1        0.0682
     15 CL         -1.5325  -19.1426   20.1090 Cl      1  UNL1       -0.0814
     16 C          -3.1040  -18.4547   22.0602 C.ar    1  UNL1        0.0679
     17 CL         -1.9095  -18.1581   22.9177 Cl      1  UNL1       -0.0814
     18 C          -4.4870  -18.2590   22.6071 C.ar    1  UNL1        0.0083
     19 C         -10.6720  -19.9837   21.9829 C.3     1  UNL1        0.0689
     20 C         -11.0283  -18.5430   19.8506 C.3     1  UNL1        0.0859
     21 N         -11.3799  -19.7401   20.6831 N.3     1  UNL1       -0.2963
     22 H         -11.2175  -20.5617   20.1009 H       1  UNL1        0.1233
@<TRIPOS>BOND
     1    20    21    1
     2    21    19    1
     3     1    19    1
     4     1     2    1
     5     2     3    1
     6     3     4   ar
     7     4     5   ar
     8     5     6   ar
     9     6     7   ar
    10     7     8   ar
    11     8     9    1
    12     9    11    1
    13    11    12   ar
    14    12    13   ar
    15    13    14   ar
    16    14    15    1
    17    14    16   ar
    18    16    17    1
    19    16    18   ar
    20     9    10    1
    21    10     1    1
    22     8     3   ar
    23    18    11   ar
    24    21    22    1
@<TRIPOS>MOLECULE
*****
 22 24 0 0 0
SMALL
GASTEIGER

@<TRIPOS>ATOM
      1 C          -8.7251  -19.2293   20.2769 C.3     1  UNL1        0.0207
      2 C         -10.1914  -18.9456   20.1374 C.3     1  UNL1        0.0274
      3 C         -10.8567  -17.9658   21.0581 C.ar    1  UNL1       -0.0258
      4 C         -12.3229  -17.6821   20.9186 C.ar    1  UNL1       -0.0046
      5 C         -12.9881  -16.7024   21.8392 C.ar    1  UNL1       -0.0003
      6 C         -12.1870  -16.0063   22.8993 C.ar    1  UNL1       -0.0003
      7 C         -10.7208  -16.2900   23.0388 C.ar    1  UNL1       -0.0043
      8 C         -10.0556  -17.2697   22.1181 C.ar    1  UNL1       -0.0224
      9 C          -8.5892  -17.5535   22.2576 C.3     1  UNL1        0.0443
     10 C          -7.9240  -18.5332   21.3370 C.3     1  UNL1        0.0104
     11 C          -7.7881  -16.8574   23.3177 C.ar    1  UNL1       -0.0175
     12 C          -6.3258  -16.5998   23.1047 C.ar    1  UNL1       -0.0030
     13 C          -5.5247  -15.9037   24.1647 C.ar    1  UNL1        0.0119
     14 C          -6.1860  -15.4654   25.4378 C.ar    1  UNL1        0.0682
     15 CL         -5.3849  -14.7693   26.4979 Cl      1  UNL1       -0.0814
     16 C          -7.6482  -15.7230   25.6508 C.ar    1  UNL1        0.0679
     17 CL         -8.3094  -15.2847   26.9239 Cl      1  UNL1       -0.0814
     18 C          -8.4493  -16.4191   24.5907 C.ar    1  UNL1        0.0083
     19 C          -8.0599  -20.2090   19.3562 C.3     1  UNL1        0.0689
     20 C          -8.7272  -22.1252   17.7337 C.3     1  UNL1        0.0859
     21 N          -8.7684  -20.6763   18.1195 N.3     1  UNL1       -0.2963
     22 H          -9.7517  -20.4296   18.2325 H       1  UNL1        0.1233
@<TRIPOS>BOND
     1    20    21    1
     2    21    19    1
     3     1    19    1
     4     1     2    1
     5     2     3    1
     6     3     4   ar
     7     4     5   ar
     8     5     6   ar
     9     6     7   ar
    10     7     8   ar
    11     8     9    1
    12     9    11    1
    13    11    12   ar
    14    12    13   ar
    15    13    14   ar
    16    14    15    1
    17    14    16   ar
    18    16    17    1
    19    16    18   ar
    20     9    10    1
    21    10     1    1
    22     8     3   ar
    23    18    11   ar
    24    21    22    1
