@<TRIPOS>MOLECULE
*****
 24 27 0 0 0
SMALL
GASTEIGER

@<TRIPOS>ATOM
      1 C          -7.9858  -17.5331   22.3080 C.ar    1  UNL1        0.0001
      2 C          -9.4673  -17.6781   22.1227 C.ar    1  UNL1        0.0000
      3 C         -10.0046  -18.4712   20.9686 C.ar    1  UNL1        0.0000
      4 C         -11.4860  -18.6163   20.7833 C.ar    1  UNL1        0.0000
      5 C         -12.4301  -17.9682   21.7523 C.ar    1  UNL1        0.0000
      6 C         -11.8927  -17.1751   22.9065 C.ar    1  UNL1        0.0000
      7 C         -10.4113  -17.0301   23.0917 C.ar    1  UNL1        0.0000
      8 C          -9.8738  -16.2370   24.2459 C.ar    1  UNL1        0.0000
      9 C          -8.3924  -16.0919   24.4311 C.ar    1  UNL1        0.0000
     10 C          -7.8550  -15.2988   25.5854 C.ar    1  UNL1        0.0000
     11 C          -6.3735  -15.1537   25.7706 C.ar    1  UNL1        0.0000
     12 C          -5.4295  -15.8018   24.8016 C.ar    1  UNL1        0.0000
     13 C          -5.9669  -16.5949   23.6475 C.ar    1  UNL1        0.0000
     14 C          -7.4484  -16.7400   23.4622 C.ar    1  UNL1        0.0000
     15 C          -6.4666  -19.5328   21.6424 C.2     1  UNL1        0.0435
     16 C          -7.0418  -18.1811   21.3391 C.2     1  UNL1        0.0033
     17 O          -5.8337  -21.5389   20.1176 O.2     1  UNL1       -0.2850
     18 C          -5.5226  -20.1809   20.6734 C.2     1  UNL1        0.2111
     19 C          -4.2675  -19.4708   20.2603 C.ar    1  UNL1        0.0961
     20 C          -2.8864  -19.7507   20.7744 C.ar    1  UNL1        0.0218
     21 C          -1.9384  -18.8091   20.0925 C.ar    1  UNL1        0.0200
     22 C          -2.7337  -17.9474   19.1570 C.ar    1  UNL1        0.0725
     23 N          -4.1731  -18.3564   19.2608 N.ar    1  UNL1       -0.3495
     24 H          -4.9241  -17.9626   18.7606 H       1  UNL1        0.1661
@<TRIPOS>BOND
     1    17    18    2
     2    18    15    1
     3    15    16    2
     4    16     1    1
     5     1     2   ar
     6     2     3   ar
     7     3     4   ar
     8     4     5   ar
     9     5     6   ar
    10     6     7   ar
    11     7     8   ar
    12     8     9   ar
    13     9    10   ar
    14    10    11   ar
    15    11    12   ar
    16    12    13   ar
    17    13    14   ar
    18    18    19    1
    19    19    20   ar
    20    20    21   ar
    21    21    22   ar
    22    22    23   ar
    23    14     1   ar
    24    23    19   ar
    25     7     2   ar
    26    14     9   ar
    27    23    24    1
@<TRIPOS>MOLECULE
*****
 24 27 0 0 0
SMALL
GASTEIGER

@<TRIPOS>ATOM
      1 C          -7.9935  -17.5339   22.3035 C.ar    1  UNL1        0.0001
      2 C          -7.4537  -16.7414   23.4571 C.ar    1  UNL1        0.0000
      3 C          -5.9719  -16.5986   23.6409 C.ar    1  UNL1        0.0000
      4 C          -5.4323  -15.8061   24.7944 C.ar    1  UNL1        0.0000
      5 C          -6.3744  -15.1565   25.7642 C.ar    1  UNL1        0.0000
      6 C          -7.8562  -15.2994   25.5804 C.ar    1  UNL1        0.0000
      7 C          -8.3958  -16.0918   24.4269 C.ar    1  UNL1        0.0000
      8 C          -9.8777  -16.2348   24.2430 C.ar    1  UNL1        0.0000
      9 C         -10.4174  -17.0272   23.0895 C.ar    1  UNL1        0.0000
     10 C         -11.8993  -17.1701   22.9057 C.ar    1  UNL1        0.0000
     11 C         -12.4389  -17.9626   21.7521 C.ar    1  UNL1        0.0000
     12 C         -11.4968  -18.6122   20.7824 C.ar    1  UNL1        0.0000
     13 C         -10.0150  -18.4693   20.9661 C.ar    1  UNL1        0.0000
     14 C          -9.4753  -17.6768   22.1197 C.ar    1  UNL1        0.0000
     15 C          -6.4654  -19.5290   21.6442 C.2     1  UNL1        0.0435
     16 C          -7.0513  -18.1835   21.3338 C.2     1  UNL1        0.0033
     17 O          -5.8375  -21.5356   20.1181 O.2     1  UNL1       -0.2850
     18 C          -5.5233  -20.1786   20.6744 C.2     1  UNL1        0.2111
     19 C          -4.2668  -19.4710   20.2610 C.ar    1  UNL1        0.0961
     20 C          -2.8863  -19.7527   20.7757 C.ar    1  UNL1        0.0218
     21 C          -1.9366  -18.8133   20.0932 C.ar    1  UNL1        0.0200
     22 C          -2.7302  -17.9512   19.1567 C.ar    1  UNL1        0.0725
     23 N          -4.1704  -18.3577   19.2604 N.ar    1  UNL1       -0.3495
     24 H          -4.9206  -17.9630   18.7597 H       1  UNL1        0.1661
@<TRIPOS>BOND
     1    17    18    2
     2    18    15    1
     3    15    16    2
     4    16     1    1
     5     1     2   ar
     6     2     3   ar
     7     3     4   ar
     8     4     5   ar
     9     5     6   ar
    10     6     7   ar
    11     7     8   ar
    12     8     9   ar
    13     9    10   ar
    14    10    11   ar
    15    11    12   ar
    16    12    13   ar
    17    13    14   ar
    18    18    19    1
    19    19    20   ar
    20    20    21   ar
    21    21    22   ar
    22    22    23   ar
    23    14     1   ar
    24    23    19   ar
    25     7     2   ar
    26    14     9   ar
    27    23    24    1
@<TRIPOS>MOLECULE
*****
 24 27 0 0 0
SMALL
GASTEIGER

@<TRIPOS>ATOM
      1 C          -6.6659  -17.9101   22.3438 C.ar    1  UNL1        0.0001
      2 C          -6.4462  -16.9661   23.4887 C.ar    1  UNL1        0.0000
      3 C          -7.5961  -16.1779   24.0421 C.ar    1  UNL1        0.0000
      4 C          -7.3763  -15.2339   25.1870 C.ar    1  UNL1        0.0000
      5 C          -6.0066  -15.0783   25.7783 C.ar    1  UNL1        0.0000
      6 C          -4.8567  -15.8665   25.2248 C.ar    1  UNL1        0.0000
      7 C          -5.0765  -16.8104   24.0800 C.ar    1  UNL1        0.0000
      8 C          -3.9265  -17.5987   23.5265 C.ar    1  UNL1        0.0000
      9 C          -4.1463  -18.5426   22.3816 C.ar    1  UNL1        0.0000
     10 C          -2.9964  -19.3309   21.8281 C.ar    1  UNL1        0.0000
     11 C          -3.2162  -20.2748   20.6833 C.ar    1  UNL1        0.0000
     12 C          -4.5859  -20.4305   20.0919 C.ar    1  UNL1        0.0000
     13 C          -5.7358  -19.6423   20.6454 C.ar    1  UNL1        0.0000
     14 C          -5.5160  -18.6983   21.7903 C.ar    1  UNL1        0.0000
     15 C          -8.9919  -19.0675   22.3286 C.2     1  UNL1        0.0435
     16 C          -8.0356  -18.0658   21.7524 C.2     1  UNL1        0.0033
     17 O         -11.0347  -20.5636   21.7468 O.2     1  UNL1       -0.2850
     18 C         -10.3616  -19.2232   21.7373 C.2     1  UNL1        0.2111
     19 C         -11.0582  -18.0384   21.1364 C.ar    1  UNL1        0.0961
     20 C         -12.2397  -17.3213   21.7192 C.ar    1  UNL1        0.0218
     21 C         -12.6073  -16.2024   20.7902 C.ar    1  UNL1        0.0200
     22 C         -11.6529  -16.2280   19.6333 C.ar    1  UNL1        0.0725
     23 N         -10.6955  -17.3627   19.8472 N.ar    1  UNL1       -0.3495
     24 H          -9.9585  -17.6190   19.2469 H       1  UNL1        0.1661
@<TRIPOS>BOND
     1    17    18    2
     2    18    15    1
     3    15    16    2
     4    16     1    1
     5     1     2   ar
     6     2     3   ar
     7     3     4   ar
     8     4     5   ar
     9     5     6   ar
    10     6     7   ar
    11     7     8   ar
    12     8     9   ar
    13     9    10   ar
    14    10    11   ar
    15    11    12   ar
    16    12    13   ar
    17    13    14   ar
    18    18    19    1
    19    19    20   ar
    20    20    21   ar
    21    21    22   ar
    22    22    23   ar
    23    14     1   ar
    24    23    19   ar
    25     7     2   ar
    26    14     9   ar
    27    23    24    1
@<TRIPOS>MOLECULE
*****
 24 27 0 0 0
SMALL
GASTEIGER

@<TRIPOS>ATOM
      1 C          -6.6661  -17.9199   22.3355 C.ar    1  UNL1        0.0001
      2 C          -5.5181  -18.7125   21.7841 C.ar    1  UNL1        0.0000
      3 C          -5.7405  -19.6596   20.6424 C.ar    1  UNL1        0.0000
      4 C          -4.5925  -20.4521   20.0910 C.ar    1  UNL1        0.0000
      5 C          -3.2222  -20.2975   20.6813 C.ar    1  UNL1        0.0000
      6 C          -2.9999  -19.3503   21.8229 C.ar    1  UNL1        0.0000
      7 C          -4.1479  -18.5578   22.3743 C.ar    1  UNL1        0.0000
      8 C          -3.9256  -17.6106   23.5161 C.ar    1  UNL1        0.0000
      9 C          -5.0735  -16.8181   24.0675 C.ar    1  UNL1        0.0000
     10 C          -4.8512  -15.8709   25.2092 C.ar    1  UNL1        0.0000
     11 C          -5.9992  -15.0784   25.7606 C.ar    1  UNL1        0.0000
     12 C          -7.3695  -15.2331   25.1703 C.ar    1  UNL1        0.0000
     13 C          -7.5918  -16.1802   24.0287 C.ar    1  UNL1        0.0000
     14 C          -6.4438  -16.9728   23.4772 C.ar    1  UNL1        0.0000
     15 C          -8.9947  -19.0720   22.3253 C.2     1  UNL1        0.0435
     16 C          -8.0364  -18.0745   21.7453 C.2     1  UNL1        0.0033
     17 O         -11.0357  -20.5683   21.7376 O.2     1  UNL1       -0.2850
     18 C         -10.3650  -19.2267   21.7350 C.2     1  UNL1        0.2111
     19 C         -11.0646  -18.0395   21.1422 C.ar    1  UNL1        0.0961
     20 C         -12.2677  -17.3493   21.7134 C.ar    1  UNL1        0.0218
     21 C         -12.6306  -16.2174   20.7983 C.ar    1  UNL1        0.0200
     22 C         -11.6517  -16.2082   19.6617 C.ar    1  UNL1        0.0725
     23 N         -10.6839  -17.3343   19.8743 N.ar    1  UNL1       -0.3495
     24 H          -9.9310  -17.5693   19.2850 H       1  UNL1        0.1661
@<TRIPOS>BOND
     1    17    18    2
     2    18    15    1
     3    15    16    2
     4    16     1    1
     5     1     2   ar
     6     2     3   ar
     7     3     4   ar
     8     4     5   ar
     9     5     6   ar
    10     6     7   ar
    11     7     8   ar
    12     8     9   ar
    13     9    10   ar
    14    10    11   ar
    15    11    12   ar
    16    12    13   ar
    17    13    14   ar
    18    18    19    1
    19    19    20   ar
    20    20    21   ar
    21    21    22   ar
    22    22    23   ar
    23    14     1   ar
    24    23    19   ar
    25     7     2   ar
    26    14     9   ar
    27    23    24    1
@<TRIPOS>MOLECULE
*****
 24 27 0 0 0
SMALL
GASTEIGER

@<TRIPOS>ATOM
      1 C          -7.1897  -18.7158   21.8797 C.ar    1  UNL1        0.0001
      2 C          -8.2128  -19.1418   20.8687 C.ar    1  UNL1        0.0000
      3 C          -9.6580  -18.7961   21.0728 C.ar    1  UNL1        0.0000
      4 C         -10.6810  -19.2221   20.0619 C.ar    1  UNL1        0.0000
      5 C         -10.2587  -19.9937   18.8468 C.ar    1  UNL1        0.0000
      6 C          -8.8134  -20.3393   18.6427 C.ar    1  UNL1        0.0000
      7 C          -7.7905  -19.9134   19.6537 C.ar    1  UNL1        0.0000
      8 C          -6.3451  -20.2591   19.4496 C.ar    1  UNL1        0.0000
      9 C          -5.3222  -19.8331   20.4606 C.ar    1  UNL1        0.0000
     10 C          -3.8768  -20.1788   20.2565 C.ar    1  UNL1        0.0000
     11 C          -2.8538  -19.7529   21.2674 C.ar    1  UNL1        0.0000
     12 C          -3.2761  -18.9813   22.4825 C.ar    1  UNL1        0.0000
     13 C          -4.7214  -18.6356   22.6866 C.ar    1  UNL1        0.0000
     14 C          -5.7444  -19.0615   21.6756 C.ar    1  UNL1        0.0000
     15 C          -8.2657  -16.6029   22.9416 C.2     1  UNL1        0.0435
     16 C          -7.6120  -17.9442   23.0947 C.2     1  UNL1        0.0033
     17 O         -10.0933  -15.3192   24.2689 O.2     1  UNL1       -0.2850
     18 C          -8.6880  -15.8313   24.1566 C.2     1  UNL1        0.2111
     19 C          -7.7048  -15.5718   25.2594 C.ar    1  UNL1        0.0961
     20 C          -7.9370  -15.8112   26.7219 C.ar    1  UNL1        0.0218
     21 C          -6.6926  -15.4147   27.4598 C.ar    1  UNL1        0.0200
     22 C          -5.6914  -14.9304   26.4532 C.ar    1  UNL1        0.0725
     23 N          -6.3170  -15.0275   25.0934 N.ar    1  UNL1       -0.3495
     24 H          -5.8915  -14.7777   24.2414 H       1  UNL1        0.1661
@<TRIPOS>BOND
     1    17    18    2
     2    18    15    1
     3    15    16    2
     4    16     1    1
     5     1     2   ar
     6     2     3   ar
     7     3     4   ar
     8     4     5   ar
     9     5     6   ar
    10     6     7   ar
    11     7     8   ar
    12     8     9   ar
    13     9    10   ar
    14    10    11   ar
    15    11    12   ar
    16    12    13   ar
    17    13    14   ar
    18    18    19    1
    19    19    20   ar
    20    20    21   ar
    21    21    22   ar
    22    22    23   ar
    23    14     1   ar
    24    23    19   ar
    25     7     2   ar
    26    14     9   ar
    27    23    24    1
@<TRIPOS>MOLECULE
*****
 24 27 0 0 0
SMALL
GASTEIGER

@<TRIPOS>ATOM
      1 C         -14.0622   -5.9071   19.2911 C.ar    1  UNL1        0.0001
      2 C         -14.8990   -4.6735   19.4591 C.ar    1  UNL1        0.0000
      3 C         -16.3838   -4.7927   19.6355 C.ar    1  UNL1        0.0000
      4 C         -17.2205   -3.5591   19.8035 C.ar    1  UNL1        0.0000
      5 C         -16.5723   -2.2064   19.7951 C.ar    1  UNL1        0.0000
      6 C         -15.0876   -2.0872   19.6187 C.ar    1  UNL1        0.0000
      7 C         -14.2509   -3.3208   19.4507 C.ar    1  UNL1        0.0000
      8 C         -12.7660   -3.2016   19.2743 C.ar    1  UNL1        0.0000
      9 C         -11.9293   -4.4352   19.1063 C.ar    1  UNL1        0.0000
     10 C         -10.4445   -4.3160   18.9299 C.ar    1  UNL1        0.0000
     11 C          -9.6078   -5.5496   18.7619 C.ar    1  UNL1        0.0000
     12 C         -10.2559   -6.9023   18.7703 C.ar    1  UNL1        0.0000
     13 C         -11.7407   -7.0215   18.9467 C.ar    1  UNL1        0.0000
     14 C         -12.5774   -5.7879   19.1147 C.ar    1  UNL1        0.0000
     15 C         -15.0847   -7.9201   18.0058 C.2     1  UNL1        0.0435
     16 C         -14.7103   -7.2598   19.2996 C.2     1  UNL1        0.0033
     17 O         -14.8931  -10.5059   18.1706 O.2     1  UNL1       -0.2850
     18 C         -15.7328   -9.2729   18.0143 C.2     1  UNL1        0.2111
     19 C         -17.2208   -9.3926   17.8663 C.ar    1  UNL1        0.0961
     20 C         -18.1720   -8.2676   17.5839 C.ar    1  UNL1        0.0218
     21 C         -19.5578   -8.8379   17.5179 C.ar    1  UNL1        0.0200
     22 C         -19.4630  -10.3154   17.7595 C.ar    1  UNL1        0.0725
     23 N         -18.0186  -10.6581   17.9748 N.ar    1  UNL1       -0.3495
     24 H         -17.6577  -11.5560   18.1556 H       1  UNL1        0.1661
@<TRIPOS>BOND
     1    17    18    2
     2    18    15    1
     3    15    16    2
     4    16     1    1
     5     1     2   ar
     6     2     3   ar
     7     3     4   ar
     8     4     5   ar
     9     5     6   ar
    10     6     7   ar
    11     7     8   ar
    12     8     9   ar
    13     9    10   ar
    14    10    11   ar
    15    11    12   ar
    16    12    13   ar
    17    13    14   ar
    18    18    19    1
    19    19    20   ar
    20    20    21   ar
    21    21    22   ar
    22    22    23   ar
    23    14     1   ar
    24    23    19   ar
    25     7     2   ar
    26    14     9   ar
    27    23    24    1
@<TRIPOS>MOLECULE
*****
 24 27 0 0 0
SMALL
GASTEIGER

@<TRIPOS>ATOM
      1 C         -14.1276   -5.9816   19.2752 C.ar    1  UNL1        0.0001
      2 C         -12.6417   -5.8626   19.1073 C.ar    1  UNL1        0.0000
      3 C         -11.8042   -7.0963   18.9446 C.ar    1  UNL1        0.0000
      4 C         -10.3184   -6.9772   18.7767 C.ar    1  UNL1        0.0000
      5 C          -9.6701   -5.6246   18.7717 C.ar    1  UNL1        0.0000
      6 C         -10.5077   -4.3909   18.9345 C.ar    1  UNL1        0.0000
      7 C         -11.9935   -4.5099   19.1023 C.ar    1  UNL1        0.0000
      8 C         -12.8311   -3.2762   19.2651 C.ar    1  UNL1        0.0000
      9 C         -14.3169   -3.3952   19.4329 C.ar    1  UNL1        0.0000
     10 C         -15.1545   -2.1615   19.5957 C.ar    1  UNL1        0.0000
     11 C         -16.6403   -2.2806   19.7635 C.ar    1  UNL1        0.0000
     12 C         -17.2886   -3.6333   19.7686 C.ar    1  UNL1        0.0000
     13 C         -16.4510   -4.8669   19.6058 C.ar    1  UNL1        0.0000
     14 C         -14.9652   -4.7479   19.4380 C.ar    1  UNL1        0.0000
     15 C         -15.1408   -7.9959   17.9845 C.2     1  UNL1        0.0435
     16 C         -14.7758   -7.3343   19.2802 C.2     1  UNL1        0.0033
     17 O         -14.9509  -10.5813   18.1558 O.2     1  UNL1       -0.2850
     18 C         -15.7891   -9.3486   17.9895 C.2     1  UNL1        0.2111
     19 C         -17.2756   -9.4684   17.8282 C.ar    1  UNL1        0.0961
     20 C         -18.2193   -8.3509   17.4958 C.ar    1  UNL1        0.0218
     21 C         -19.6064   -8.9186   17.4332 C.ar    1  UNL1        0.0200
     22 C         -19.5198  -10.3871   17.7269 C.ar    1  UNL1        0.0725
     23 N         -18.0793  -10.7269   17.9710 N.ar    1  UNL1       -0.3495
     24 H         -17.7238  -11.6192   18.1871 H       1  UNL1        0.1661
@<TRIPOS>BOND
     1    17    18    2
     2    18    15    1
     3    15    16    2
     4    16     1    1
     5     1     2   ar
     6     2     3   ar
     7     3     4   ar
     8     4     5   ar
     9     5     6   ar
    10     6     7   ar
    11     7     8   ar
    12     8     9   ar
    13     9    10   ar
    14    10    11   ar
    15    11    12   ar
    16    12    13   ar
    17    13    14   ar
    18    18    19    1
    19    19    20   ar
    20    20    21   ar
    21    21    22   ar
    22    22    23   ar
    23    14     1   ar
    24    23    19   ar
    25     7     2   ar
    26    14     9   ar
    27    23    24    1
@<TRIPOS>MOLECULE
*****
 24 27 0 0 0
SMALL
GASTEIGER

@<TRIPOS>ATOM
      1 C          -6.9403  -18.3274   21.7692 C.ar    1  UNL1        0.0001
      2 C          -5.5232  -18.8148   21.7020 C.ar    1  UNL1        0.0000
      3 C          -4.4906  -18.2489   22.6312 C.ar    1  UNL1        0.0000
      4 C          -3.0736  -18.7363   22.5640 C.ar    1  UNL1        0.0000
      5 C          -2.6892  -19.7896   21.5676 C.ar    1  UNL1        0.0000
      6 C          -3.7218  -20.3555   20.6384 C.ar    1  UNL1        0.0000
      7 C          -5.1388  -19.8681   20.7056 C.ar    1  UNL1        0.0000
      8 C          -6.1715  -20.4340   19.7764 C.ar    1  UNL1        0.0000
      9 C          -7.5885  -19.9466   19.8436 C.ar    1  UNL1        0.0000
     10 C          -8.6212  -20.5125   18.9143 C.ar    1  UNL1        0.0000
     11 C         -10.0381  -20.0251   18.9816 C.ar    1  UNL1        0.0000
     12 C         -10.4225  -18.9718   19.9780 C.ar    1  UNL1        0.0000
     13 C          -9.3899  -18.4059   20.9072 C.ar    1  UNL1        0.0000
     14 C          -7.9728  -18.8933   20.8400 C.ar    1  UNL1        0.0000
     15 C          -8.6651  -17.3298   23.4364 C.2     1  UNL1        0.0435
     16 C          -7.3246  -17.2742   22.7657 C.2     1  UNL1        0.0033
     17 O         -10.3555  -15.5523   24.2925 O.2     1  UNL1       -0.2850
     18 C          -9.0495  -16.2766   24.4329 C.2     1  UNL1        0.2111
     19 C          -8.1278  -15.9476   25.5697 C.ar    1  UNL1        0.0961
     20 C          -8.2706  -16.4213   26.9858 C.ar    1  UNL1        0.0218
     21 C          -7.1326  -15.8537   27.7814 C.ar    1  UNL1        0.0200
     22 C          -6.2865  -15.0293   26.8569 C.ar    1  UNL1        0.0725
     23 N          -6.9016  -15.0873   25.4901 N.ar    1  UNL1       -0.3495
     24 H          -6.5604  -14.6395   24.6825 H       1  UNL1        0.1661
@<TRIPOS>BOND
     1    17    18    2
     2    18    15    1
     3    15    16    2
     4    16     1    1
     5     1     2   ar
     6     2     3   ar
     7     3     4   ar
     8     4     5   ar
     9     5     6   ar
    10     6     7   ar
    11     7     8   ar
    12     8     9   ar
    13     9    10   ar
    14    10    11   ar
    15    11    12   ar
    16    12    13   ar
    17    13    14   ar
    18    18    19    1
    19    19    20   ar
    20    20    21   ar
    21    21    22   ar
    22    22    23   ar
    23    14     1   ar
    24    23    19   ar
    25     7     2   ar
    26    14     9   ar
    27    23    24    1
@<TRIPOS>MOLECULE
*****
 24 27 0 0 0
SMALL
GASTEIGER

@<TRIPOS>ATOM
      1 C          -7.1087  -17.8270   22.0217 C.ar    1  UNL1        0.0001
      2 C          -7.4175  -17.0043   23.2374 C.ar    1  UNL1        0.0000
      3 C          -6.3055  -16.3499   24.0024 C.ar    1  UNL1        0.0000
      4 C          -6.6143  -15.5272   25.2180 C.ar    1  UNL1        0.0000
      5 C          -8.0351  -15.3589   25.6686 C.ar    1  UNL1        0.0000
      6 C          -9.1471  -16.0132   24.9036 C.ar    1  UNL1        0.0000
      7 C          -8.8383  -16.8359   23.6880 C.ar    1  UNL1        0.0000
      8 C          -9.9503  -17.4903   22.9229 C.ar    1  UNL1        0.0000
      9 C          -9.6414  -18.3130   21.7073 C.ar    1  UNL1        0.0000
     10 C         -10.7534  -18.9674   20.9422 C.ar    1  UNL1        0.0000
     11 C         -10.4446  -19.7901   19.7266 C.ar    1  UNL1        0.0000
     12 C          -9.0238  -19.9585   19.2760 C.ar    1  UNL1        0.0000
     13 C          -7.9119  -19.3041   20.0410 C.ar    1  UNL1        0.0000
     14 C          -8.2207  -18.4814   21.2567 C.ar    1  UNL1        0.0000
     15 C          -4.9730  -19.2917   21.8129 C.2     1  UNL1        0.0435
     16 C          -5.6879  -17.9954   21.5711 C.2     1  UNL1        0.0033
     17 O          -2.6510  -20.4285   22.0692 O.2     1  UNL1       -0.2850
     18 C          -3.5522  -19.4600   21.3623 C.2     1  UNL1        0.2111
     19 C          -3.0327  -18.6598   20.2048 C.ar    1  UNL1        0.0961
     20 C          -1.5900  -18.4722   19.8396 C.ar    1  UNL1        0.0218
     21 C          -1.5302  -17.6031   18.6183 C.ar    1  UNL1        0.0200
     22 C          -2.9361  -17.2538   18.2289 C.ar    1  UNL1        0.0725
     23 N          -3.8646  -17.9068   19.2093 N.ar    1  UNL1       -0.3495
     24 H          -4.8475  -17.8511   19.2010 H       1  UNL1        0.1661
@<TRIPOS>BOND
     1    17    18    2
     2    18    15    1
     3    15    16    2
     4    16     1    1
     5     1     2   ar
     6     2     3   ar
     7     3     4   ar
     8     4     5   ar
     9     5     6   ar
    10     6     7   ar
    11     7     8   ar
    12     8     9   ar
    13     9    10   ar
    14    10    11   ar
    15    11    12   ar
    16    12    13   ar
    17    13    14   ar
    18    18    19    1
    19    19    20   ar
    20    20    21   ar
    21    21    22   ar
    22    22    23   ar
    23    14     1   ar
    24    23    19   ar
    25     7     2   ar
    26    14     9   ar
    27    23    24    1
