@<TRIPOS>MOLECULE
*****
 21 24 0 0 0
SMALL
GASTEIGER

@<TRIPOS>ATOM
      1 C          -8.6703  -18.2736   22.0078 C.ar    1  UNL1        0.0964
      2 N          -7.9135  -19.3006   21.2189 N.ar    1  UNL1       -0.2267
      3 C          -6.4549  -19.1430   21.5317 C.ar    1  UNL1        0.1498
      4 C          -5.2398  -19.8782   21.0490 C.ar    1  UNL1        0.0679
      5 C          -3.8801  -19.4889   21.5486 C.ar    1  UNL1        0.1551
      6 F          -2.6649  -20.2240   21.0659 F       1  UNL1       -0.2031
      7 C          -3.7355  -18.3645   22.5309 C.ar    1  UNL1        0.1026
      8 CL         -2.3757  -17.9752   23.0305 Cl      1  UNL1       -0.0783
      9 C          -4.9506  -17.6294   23.0135 C.ar    1  UNL1        0.0948
     10 N          -6.3103  -18.0186   22.5140 N.ar    1  UNL1       -0.2916
     11 C          -7.6795  -17.4813   22.8082 C.ar    1  UNL1        0.0600
     12 F         -13.2395  -18.3658   24.4806 F       1  UNL1       -0.2025
     13 C         -12.4415  -18.1200   23.2344 C.ar    1  UNL1        0.1593
     14 C         -13.1302  -17.6745   21.9785 C.ar    1  UNL1        0.1284
     15 N         -12.3322  -17.4288   20.7324 N.ar    1  UNL1       -0.2399
     16 C         -10.8456  -17.6284   20.7422 C.ar    1  UNL1        0.1005
     17 C         -10.1569  -18.0739   21.9981 C.ar    1  UNL1        0.0402
     18 C         -10.9549  -18.3197   23.2442 C.ar    1  UNL1        0.0343
     19 C          -8.0014  -16.3502   23.7394 C.3     1  UNL1        0.0402
     20 C          -7.6683  -15.0047   24.3127 C.3     1  UNL1        0.0063
     21 C          -8.8918  -15.7366   24.7788 C.3     1  UNL1        0.0063
@<TRIPOS>BOND
     1    12    13    1
     2    13    14   ar
     3    14    15   ar
     4    15    16   ar
     5    16    17   ar
     6    17     1    1
     7     1     2   ar
     8     2     3   ar
     9     3     4   ar
    10     4     5   ar
    11     5     6    1
    12     5     7   ar
    13     7     8    1
    14     7     9   ar
    15     9    10   ar
    16    10    11   ar
    17    11    19    1
    18    19    20    1
    19    20    21    1
    20    17    18   ar
    21    18    13   ar
    22    11     1   ar
    23    21    19    1
    24    10     3   ar
@<TRIPOS>MOLECULE
*****
 21 24 0 0 0
SMALL
GASTEIGER

@<TRIPOS>ATOM
      1 C          -8.5376  -18.2229   22.4032 C.ar    1  UNL1        0.0964
      2 N          -7.8535  -19.2931   21.6052 N.ar    1  UNL1       -0.2267
      3 C          -6.3731  -19.1306   21.7850 C.ar    1  UNL1        0.1498
      4 C          -5.2056  -19.8973   21.2384 C.ar    1  UNL1        0.0679
      5 C          -3.8072  -19.4935   21.6008 C.ar    1  UNL1        0.1551
      6 F          -2.6395  -20.2602   21.0542 F       1  UNL1       -0.2031
      7 C          -3.5764  -18.3229   22.5099 C.ar    1  UNL1        0.1026
      8 CL         -2.1780  -17.9190   22.8724 Cl      1  UNL1       -0.0783
      9 C          -4.7440  -17.5562   23.0565 C.ar    1  UNL1        0.0948
     10 N          -6.1424  -17.9600   22.6941 N.ar    1  UNL1       -0.2916
     11 C          -7.4800  -17.3990   23.0761 C.ar    1  UNL1        0.0600
     12 F         -12.9283  -16.1266   20.5791 F       1  UNL1       -0.2025
     13 C         -12.2144  -16.9653   21.5975 C.ar    1  UNL1        0.1593
     14 C         -12.9820  -17.5944   22.7221 C.ar    1  UNL1        0.1284
     15 N         -12.2682  -18.4330   23.7405 N.ar    1  UNL1       -0.2399
     16 C         -10.7867  -18.6425   23.6341 C.ar    1  UNL1        0.1005
     17 C         -10.0190  -18.0134   22.5095 C.ar    1  UNL1        0.0402
     18 C         -10.7329  -17.1748   21.4912 C.ar    1  UNL1        0.0343
     19 C          -7.7183  -16.2210   23.9736 C.3     1  UNL1        0.0402
     20 C          -7.3229  -14.8588   24.4617 C.3     1  UNL1        0.0063
     21 C          -8.5263  -15.5426   25.0398 C.3     1  UNL1        0.0063
@<TRIPOS>BOND
     1    12    13    1
     2    13    14   ar
     3    14    15   ar
     4    15    16   ar
     5    16    17   ar
     6    17     1    1
     7     1     2   ar
     8     2     3   ar
     9     3     4   ar
    10     4     5   ar
    11     5     6    1
    12     5     7   ar
    13     7     8    1
    14     7     9   ar
    15     9    10   ar
    16    10    11   ar
    17    11    19    1
    18    19    20    1
    19    20    21    1
    20    17    18   ar
    21    18    13   ar
    22    11     1   ar
    23    21    19    1
    24    10     3   ar
@<TRIPOS>MOLECULE
*****
 21 24 0 0 0
SMALL
GASTEIGER

@<TRIPOS>ATOM
      1 C          -8.5509  -17.9526   22.1374 C.ar    1  UNL1        0.0964
      2 N          -7.3774  -17.5674   22.9885 N.ar    1  UNL1       -0.2267
      3 C          -6.1516  -18.2039   22.4036 C.ar    1  UNL1        0.1498
      4 C          -4.7104  -18.1751   22.8186 C.ar    1  UNL1        0.0679
      5 C          -3.6852  -18.9250   22.0209 C.ar    1  UNL1        0.1551
      6 F          -2.2440  -18.8963   22.4359 F       1  UNL1       -0.2031
      7 C          -4.1010  -19.7037   20.8082 C.ar    1  UNL1        0.1026
      8 CL         -3.0757  -20.4537   20.0104 Cl      1  UNL1       -0.0783
      9 C          -5.5422  -19.7326   20.3932 C.ar    1  UNL1        0.0948
     10 N          -6.5674  -18.9827   21.1909 N.ar    1  UNL1       -0.2916
     11 C          -8.0503  -18.8273   21.0264 C.ar    1  UNL1        0.0600
     12 F         -13.0763  -18.5375   24.6231 F       1  UNL1       -0.2025
     13 C         -12.2376  -17.8287   23.6012 C.ar    1  UNL1        0.1593
     14 C         -12.8229  -16.7036   22.8003 C.ar    1  UNL1        0.1284
     15 N         -11.9843  -15.9948   21.7785 N.ar    1  UNL1       -0.2399
     16 C         -10.5603  -16.4112   21.5575 C.ar    1  UNL1        0.1005
     17 C          -9.9749  -17.5363   22.3583 C.ar    1  UNL1        0.0402
     18 C         -10.8136  -18.2450   23.3802 C.ar    1  UNL1        0.0343
     19 C          -8.8858  -19.4393   19.9413 C.3     1  UNL1        0.0402
     20 C          -8.9913  -20.2539   18.6861 C.3     1  UNL1        0.0063
     21 C         -10.2274  -19.6847   19.3170 C.3     1  UNL1        0.0063
@<TRIPOS>BOND
     1    12    13    1
     2    13    14   ar
     3    14    15   ar
     4    15    16   ar
     5    16    17   ar
     6    17     1    1
     7     1     2   ar
     8     2     3   ar
     9     3     4   ar
    10     4     5   ar
    11     5     6    1
    12     5     7   ar
    13     7     8    1
    14     7     9   ar
    15     9    10   ar
    16    10    11   ar
    17    11    19    1
    18    19    20    1
    19    20    21    1
    20    17    18   ar
    21    18    13   ar
    22    11     1   ar
    23    21    19    1
    24    10     3   ar
@<TRIPOS>MOLECULE
*****
 21 24 0 0 0
SMALL
GASTEIGER

@<TRIPOS>ATOM
      1 C          -8.4929  -17.6842   22.1570 C.ar    1  UNL1        0.0964
      2 N          -7.1422  -17.0329   22.1964 N.ar    1  UNL1       -0.2267
      3 C          -6.9521  -16.4422   23.5621 C.ar    1  UNL1        0.1498
      4 C          -5.8154  -15.6808   24.1769 C.ar    1  UNL1        0.0679
      5 C          -5.9119  -15.2055   25.5963 C.ar    1  UNL1        0.1551
      6 F          -4.7752  -14.4440   26.2112 F       1  UNL1       -0.2031
      7 C          -7.1450  -15.4918   26.4009 C.ar    1  UNL1        0.1026
      8 CL         -7.2415  -15.0165   27.8204 Cl      1  UNL1       -0.0783
      9 C          -8.2817  -16.2533   25.7861 C.ar    1  UNL1        0.0948
     10 N          -8.1853  -16.7285   24.3667 N.ar    1  UNL1       -0.2916
     11 C          -9.1375  -17.4960   23.4983 C.ar    1  UNL1        0.0600
     12 F          -8.1506  -21.2780   18.4197 F       1  UNL1       -0.2025
     13 C          -8.9224  -20.1951   19.1138 C.ar    1  UNL1        0.1593
     14 C         -10.2946  -19.8262   18.6335 C.ar    1  UNL1        0.1284
     15 N         -11.0663  -18.7434   19.3276 N.ar    1  UNL1       -0.2399
     16 C         -10.4657  -18.0293   20.5021 C.ar    1  UNL1        0.1005
     17 C          -9.0935  -18.3982   20.9825 C.ar    1  UNL1        0.0402
     18 C          -8.3218  -19.4811   20.2884 C.ar    1  UNL1        0.0343
     19 C         -10.4959  -17.9889   23.9006 C.3     1  UNL1        0.0402
     20 C         -11.3556  -18.8940   24.7323 C.3     1  UNL1        0.0063
     21 C         -11.9889  -17.9376   23.7658 C.3     1  UNL1        0.0063
@<TRIPOS>BOND
     1    12    13    1
     2    13    14   ar
     3    14    15   ar
     4    15    16   ar
     5    16    17   ar
     6    17     1    1
     7     1     2   ar
     8     2     3   ar
     9     3     4   ar
    10     4     5   ar
    11     5     6    1
    12     5     7   ar
    13     7     8    1
    14     7     9   ar
    15     9    10   ar
    16    10    11   ar
    17    11    19    1
    18    19    20    1
    19    20    21    1
    20    17    18   ar
    21    18    13   ar
    22    11     1   ar
    23    21    19    1
    24    10     3   ar
@<TRIPOS>MOLECULE
*****
 21 24 0 0 0
SMALL
GASTEIGER

@<TRIPOS>ATOM
      1 C         -13.2127   -6.6642   18.3962 C.ar    1  UNL1        0.0964
      2 N         -13.3696   -8.0588   17.8665 N.ar    1  UNL1       -0.2267
      3 C         -14.7116   -8.5707   18.2991 C.ar    1  UNL1        0.1498
      4 C         -15.4081   -9.8793   18.0702 C.ar    1  UNL1        0.0679
      5 C         -16.7771  -10.1096   18.6383 C.ar    1  UNL1        0.1551
      6 F         -17.4737  -11.4183   18.4094 F       1  UNL1       -0.2031
      7 C         -17.4496   -9.0314   19.4352 C.ar    1  UNL1        0.1026
      8 CL        -18.8186   -9.2618   20.0033 Cl      1  UNL1       -0.0783
      9 C         -16.7531   -7.7228   19.6641 C.ar    1  UNL1        0.0948
     10 N         -15.3841   -7.4924   19.0960 N.ar    1  UNL1       -0.2916
     11 C         -14.4577   -6.3142   19.1560 C.ar    1  UNL1        0.0600
     12 F         -10.9501   -2.6236   16.0394 F       1  UNL1       -0.2025
     13 C         -10.8888   -3.7554   17.0220 C.ar    1  UNL1        0.1593
     14 C          -9.6351   -3.9986   17.8086 C.ar    1  UNL1        0.1284
     15 N          -9.5738   -5.1304   18.7911 N.ar    1  UNL1       -0.2399
     16 C         -10.7664   -6.0189   18.9869 C.ar    1  UNL1        0.1005
     17 C         -12.0202   -5.7757   18.2003 C.ar    1  UNL1        0.0402
     18 C         -12.0814   -4.6440   17.2178 C.ar    1  UNL1        0.0343
     19 C         -14.7288   -5.0142   19.8535 C.3     1  UNL1        0.0402
     20 C         -15.6267   -3.8402   20.1101 C.3     1  UNL1        0.0063
     21 C         -14.3006   -3.9363   20.8047 C.3     1  UNL1        0.0063
@<TRIPOS>BOND
     1    12    13    1
     2    13    14   ar
     3    14    15   ar
     4    15    16   ar
     5    16    17   ar
     6    17     1    1
     7     1     2   ar
     8     2     3   ar
     9     3     4   ar
    10     4     5   ar
    11     5     6    1
    12     5     7   ar
    13     7     8    1
    14     7     9   ar
    15     9    10   ar
    16    10    11   ar
    17    11    19    1
    18    19    20    1
    19    20    21    1
    20    17    18   ar
    21    18    13   ar
    22    11     1   ar
    23    21    19    1
    24    10     3   ar
@<TRIPOS>MOLECULE
*****
 21 24 0 0 0
SMALL
GASTEIGER

@<TRIPOS>ATOM
      1 C          -4.8055  -17.8054   22.3366 C.ar    1  UNL1        0.0964
      2 N          -5.0341  -16.7217   23.3482 N.ar    1  UNL1       -0.2267
      3 C          -6.5091  -16.6310   23.6053 C.ar    1  UNL1        0.1498
      4 C          -7.3184  -15.7455   24.5057 C.ar    1  UNL1        0.0679
      5 C          -8.8109  -15.8876   24.5532 C.ar    1  UNL1        0.1551
      6 F          -9.6203  -15.0021   25.4537 F       1  UNL1       -0.2031
      7 C          -9.4940  -16.9153   23.7004 C.ar    1  UNL1        0.1026
      8 CL        -10.9866  -17.0573   23.7480 Cl      1  UNL1       -0.0783
      9 C          -8.6847  -17.8008   22.8000 C.ar    1  UNL1        0.0948
     10 N          -7.1922  -17.6587   22.7524 N.ar    1  UNL1       -0.2916
     11 C          -6.1394  -18.3844   21.9683 C.ar    1  UNL1        0.0600
     12 F          -0.2828  -16.6302   20.0642 F       1  UNL1       -0.2025
     13 C          -1.2152  -17.6470   20.6531 C.ar    1  UNL1        0.1593
     14 C          -0.8186  -19.0930   20.6946 C.ar    1  UNL1        0.1284
     15 N          -1.7510  -20.1098   21.2834 N.ar    1  UNL1       -0.2399
     16 C          -3.0800  -19.6806   21.8307 C.ar    1  UNL1        0.1005
     17 C          -3.4766  -18.2346   21.7892 C.ar    1  UNL1        0.0402
     18 C          -2.5442  -17.2178   21.2004 C.ar    1  UNL1        0.0343
     19 C          -6.3784  -19.4944   20.9881 C.3     1  UNL1        0.0402
     20 C          -7.1510  -20.0667   19.8367 C.3     1  UNL1        0.0063
     21 C          -6.0200  -20.8445   20.4416 C.3     1  UNL1        0.0063
@<TRIPOS>BOND
     1    12    13    1
     2    13    14   ar
     3    14    15   ar
     4    15    16   ar
     5    16    17   ar
     6    17     1    1
     7     1     2   ar
     8     2     3   ar
     9     3     4   ar
    10     4     5   ar
    11     5     6    1
    12     5     7   ar
    13     7     8    1
    14     7     9   ar
    15     9    10   ar
    16    10    11   ar
    17    11    19    1
    18    19    20    1
    19    20    21    1
    20    17    18   ar
    21    18    13   ar
    22    11     1   ar
    23    21    19    1
    24    10     3   ar
@<TRIPOS>MOLECULE
*****
 21 24 0 0 0
SMALL
GASTEIGER

@<TRIPOS>ATOM
      1 C         -14.6657   -7.7029   17.7942 C.ar    1  UNL1        0.0964
      2 N         -13.3382   -8.0173   17.1706 N.ar    1  UNL1       -0.2267
      3 C         -12.4242   -6.8531   17.4140 C.ar    1  UNL1        0.1498
      4 C         -10.9961   -6.6010   17.0309 C.ar    1  UNL1        0.0679
      5 C         -10.3307   -5.3148   17.4218 C.ar    1  UNL1        0.1551
      6 F          -8.9025   -5.0626   17.0386 F       1  UNL1       -0.2031
      7 C         -11.0933   -4.2808   18.1959 C.ar    1  UNL1        0.1026
      8 CL        -10.4277   -2.9945   18.5868 Cl      1  UNL1       -0.0783
      9 C         -12.5214   -4.5329   18.5790 C.ar    1  UNL1        0.0948
     10 N         -13.1869   -5.8191   18.1881 N.ar    1  UNL1       -0.2916
     11 C         -14.5721   -6.3443   18.4230 C.ar    1  UNL1        0.0600
     12 F         -16.9953  -12.1392   19.1699 F       1  UNL1       -0.2025
     13 C         -17.0393  -10.8092   18.4775 C.ar    1  UNL1        0.1593
     14 C         -18.2920  -10.3675   17.7807 C.ar    1  UNL1        0.1284
     15 N         -18.3359   -9.0375   17.0884 N.ar    1  UNL1       -0.2399
     16 C         -17.1272   -8.1494   17.0929 C.ar    1  UNL1        0.1005
     17 C         -15.8744   -8.5911   17.7897 C.ar    1  UNL1        0.0402
     18 C         -15.8305   -9.9210   18.4820 C.ar    1  UNL1        0.0343
     19 C         -15.6710   -5.6354   19.1579 C.3     1  UNL1        0.0402
     20 C         -16.1633   -4.4424   19.9225 C.3     1  UNL1        0.0063
     21 C         -17.0818   -5.6002   19.6660 C.3     1  UNL1        0.0063
@<TRIPOS>BOND
     1    12    13    1
     2    13    14   ar
     3    14    15   ar
     4    15    16   ar
     5    16    17   ar
     6    17     1    1
     7     1     2   ar
     8     2     3   ar
     9     3     4   ar
    10     4     5   ar
    11     5     6    1
    12     5     7   ar
    13     7     8    1
    14     7     9   ar
    15     9    10   ar
    16    10    11   ar
    17    11    19    1
    18    19    20    1
    19    20    21    1
    20    17    18   ar
    21    18    13   ar
    22    11     1   ar
    23    21    19    1
    24    10     3   ar
@<TRIPOS>MOLECULE
*****
 21 24 0 0 0
SMALL
GASTEIGER

@<TRIPOS>ATOM
      1 C         -15.6311   -5.0945   19.1473 C.ar    1  UNL1        0.0964
      2 N         -14.6180   -3.9898   19.0902 N.ar    1  UNL1       -0.2267
      3 C         -13.2544   -4.6132   19.0447 C.ar    1  UNL1        0.1498
      4 C         -11.8797   -4.0166   18.9806 C.ar    1  UNL1        0.0679
      5 C         -10.6753   -4.9100   18.9455 C.ar    1  UNL1        0.1551
      6 F          -9.3005   -4.3134   18.8814 F       1  UNL1       -0.2031
      7 C         -10.8457   -6.4000   18.9746 C.ar    1  UNL1        0.1026
      8 CL         -9.6412   -7.2934   18.9395 Cl      1  UNL1       -0.0783
      9 C         -12.2204   -6.9966   19.0387 C.ar    1  UNL1        0.0948
     10 N         -13.4248   -6.1032   19.0738 N.ar    1  UNL1       -0.2916
     11 C         -14.8936   -6.4007   19.1372 C.ar    1  UNL1        0.0600
     12 F         -20.3751   -6.3601   17.4466 F       1  UNL1       -0.2025
     13 C         -19.4922   -5.5559   18.3543 C.ar    1  UNL1        0.1593
     14 C         -20.0983   -4.5804   19.3191 C.ar    1  UNL1        0.1284
     15 N         -19.2154   -3.7764   20.2267 N.ar    1  UNL1       -0.2399
     16 C         -17.7263   -3.9477   20.1695 C.ar    1  UNL1        0.1005
     17 C         -17.1202   -4.9232   19.2046 C.ar    1  UNL1        0.0402
     18 C         -18.0031   -5.7273   18.2970 C.ar    1  UNL1        0.0343
     19 C         -15.5158   -7.7648   19.1825 C.3     1  UNL1        0.0402
     20 C         -15.7203   -9.1202   18.5733 C.3     1  UNL1        0.0063
     21 C         -16.3888   -8.7722   19.8702 C.3     1  UNL1        0.0063
@<TRIPOS>BOND
     1    12    13    1
     2    13    14   ar
     3    14    15   ar
     4    15    16   ar
     5    16    17   ar
     6    17     1    1
     7     1     2   ar
     8     2     3   ar
     9     3     4   ar
    10     4     5   ar
    11     5     6    1
    12     5     7   ar
    13     7     8    1
    14     7     9   ar
    15     9    10   ar
    16    10    11   ar
    17    11    19    1
    18    19    20    1
    19    20    21    1
    20    17    18   ar
    21    18    13   ar
    22    11     1   ar
    23    21    19    1
    24    10     3   ar
@<TRIPOS>MOLECULE
*****
 21 24 0 0 0
SMALL
GASTEIGER

@<TRIPOS>ATOM
      1 C          -9.5811  -16.9452   23.0073 C.ar    1  UNL1        0.0964
      2 N          -9.1513  -16.0296   24.1149 N.ar    1  UNL1       -0.2267
      3 C          -7.6556  -16.0887   24.2113 C.ar    1  UNL1        0.1498
      4 C          -6.6802  -15.3985   25.1180 C.ar    1  UNL1        0.0679
      5 C          -5.2100  -15.6605   24.9765 C.ar    1  UNL1        0.1551
      6 F          -4.2345  -14.9703   25.8833 F       1  UNL1       -0.2031
      7 C          -4.7153  -16.6127   23.9284 C.ar    1  UNL1        0.1026
      8 CL         -3.2451  -16.8747   23.7870 Cl      1  UNL1       -0.0783
      9 C          -5.6908  -17.3029   23.0217 C.ar    1  UNL1        0.0948
     10 N          -7.1609  -17.0409   23.1632 N.ar    1  UNL1       -0.2916
     11 C          -8.3509  -17.5703   22.4191 C.ar    1  UNL1        0.0600
     12 F         -14.4293  -18.4763   24.0801 F       1  UNL1       -0.2025
     13 C         -13.4171  -17.9580   23.1018 C.ar    1  UNL1        0.1593
     14 C         -13.8170  -17.6869   21.6818 C.ar    1  UNL1        0.1284
     15 N         -12.8049  -17.1685   20.7036 N.ar    1  UNL1       -0.2399
     16 C         -11.3929  -16.9213   21.1454 C.ar    1  UNL1        0.1005
     17 C         -10.9930  -17.1924   22.5655 C.ar    1  UNL1        0.0402
     18 C         -12.0052  -17.7108   23.5437 C.ar    1  UNL1        0.0343
     19 C          -8.3167  -18.5523   21.2857 C.3     1  UNL1        0.0402
     20 C          -9.0342  -19.4626   20.3336 C.3     1  UNL1        0.0063
     21 C          -7.5402  -19.3428   20.2748 C.3     1  UNL1        0.0063
@<TRIPOS>BOND
     1    12    13    1
     2    13    14   ar
     3    14    15   ar
     4    15    16   ar
     5    16    17   ar
     6    17     1    1
     7     1     2   ar
     8     2     3   ar
     9     3     4   ar
    10     4     5   ar
    11     5     6    1
    12     5     7   ar
    13     7     8    1
    14     7     9   ar
    15     9    10   ar
    16    10    11   ar
    17    11    19    1
    18    19    20    1
    19    20    21    1
    20    17    18   ar
    21    18    13   ar
    22    11     1   ar
    23    21    19    1
    24    10     3   ar
