@<TRIPOS>MOLECULE
*****
 31 34 0 0 0
SMALL
GASTEIGER

@<TRIPOS>ATOM
      1 C           5.6871   -1.2754   31.0821 C.ar    1  UNL1        0.1600
      2 N           5.8840   -2.0296   29.8006 N.ar    1  UNL1       -0.2291
      3 C           6.4637   -3.4129   29.8259 C.ar    1  UNL1        0.0981
      4 C           6.8463   -4.0420   31.1328 C.ar    1  UNL1        0.0993
      5 N           6.6493   -3.2877   32.4143 N.ar    1  UNL1       -0.2265
      6 C           6.0697   -1.9045   32.3890 C.ar    1  UNL1        0.1633
      7 C           7.4259   -5.4252   31.1581 C.2     1  UNL1        0.0362
      8 C           7.6229   -6.1794   29.8766 C.2     1  UNL1        0.0633
      9 N           7.2403   -5.5503   28.5697 N.pl3   1  UNL1       -0.2995
     10 C           7.4373   -6.3046   27.2882 C.3     1  UNL1        0.1126
     11 C           6.6607   -4.1671   28.5444 C.3     1  UNL1        0.1389
     12 N           5.8727   -1.1502   33.6706 N.pl3   1  UNL1       -0.2908
     13 C           4.5862   -1.2849   34.4299 C.3     1  UNL1        0.0960
     14 C           4.3892   -0.5307   35.7114 C.3     1  UNL1        0.0650
     15 C           5.4788    0.3583   36.2335 C.3     1  UNL1        0.1694
     16 C           6.7653    0.4930   35.4742 C.3     1  UNL1        0.0650
     17 C           6.9622   -0.2612   34.1927 C.3     1  UNL1        0.0960
     18 O           5.2817    1.1126   37.5151 O.3     1  UNL1       -0.4768
     19 C           3.9048    1.5382   37.9308 C.ar    1  UNL1        0.1657
     20 C           3.0865    0.6578   38.8281 C.ar    1  UNL1        0.0415
     21 C           1.7096    1.0834   39.2438 C.ar    1  UNL1        0.0329
     22 C           1.1509    2.3895   38.7621 C.ar    1  UNL1        0.1426
     23 F          -0.2261    2.8152   39.1778 F       1  UNL1       -0.2041
     24 C           1.9691    3.2700   37.8648 C.ar    1  UNL1        0.0624
     25 C           3.3462    2.8443   37.4491 C.ar    1  UNL1        0.1760
     26 F           4.1645    3.7247   36.5517 F       1  UNL1       -0.2009
     27 N           5.1074    0.1079   31.0568 N.pl3   1  UNL1       -0.3175
     28 H           5.6928    0.8842   30.9023 H       1  UNL1        0.1482
     29 C           3.1503    1.3746   32.2036 C.3     1  UNL1        0.0212
     30 C           3.6358    0.3083   31.2670 C.3     1  UNL1        0.0706
     31 C           2.6496   -0.5575   30.5404 C.3     1  UNL1        0.0212
@<TRIPOS>BOND
     1    29    30    1
     2    30    31    1
     3    30    27    1
     4    27     1    1
     5     1     2   ar
     6     2     3   ar
     7     3     4   ar
     8     4     5   ar
     9     5     6   ar
    10     6    12    1
    11    12    13    1
    12    13    14    1
    13    14    15    1
    14    15    18    1
    15    18    19    1
    16    19    20   ar
    17    20    21   ar
    18    21    22   ar
    19    22    23    1
    20    22    24   ar
    21    24    25   ar
    22    25    26    1
    23    15    16    1
    24    16    17    1
    25     4     7    1
    26     7     8    2
    27     8     9    1
    28     9    10    1
    29     9    11    1
    30     6     1   ar
    31    17    12    1
    32    11     3    1
    33    25    19   ar
    34    27    28    1
@<TRIPOS>MOLECULE
*****
 31 34 0 0 0
SMALL
GASTEIGER

@<TRIPOS>ATOM
      1 C          -1.1674    3.2327   22.6982 C.ar    1  UNL1        0.1600
      2 N          -2.3743    3.6557   23.4822 N.ar    1  UNL1       -0.2291
      3 C          -3.7079    3.7667   22.8044 C.ar    1  UNL1        0.0981
      4 C          -3.8345    3.4547   21.3427 C.ar    1  UNL1        0.0993
      5 N          -2.6276    3.0317   20.5587 N.ar    1  UNL1       -0.2265
      6 C          -1.2941    2.9207   21.2365 C.ar    1  UNL1        0.1633
      7 C          -5.1680    3.5657   20.6649 C.2     1  UNL1        0.0362
      8 C          -6.3748    3.9887   21.4488 C.2     1  UNL1        0.0633
      9 N          -6.2482    4.3007   22.9105 N.pl3   1  UNL1       -0.2995
     10 C          -7.4551    4.7237   23.6945 C.3     1  UNL1        0.1126
     11 C          -4.9147    4.1897   23.5883 C.3     1  UNL1        0.1389
     12 N          -0.0872    2.4976   20.4526 N.pl3   1  UNL1       -0.2908
     13 C           0.8648    3.5302   19.9259 C.3     1  UNL1        0.0960
     14 C           2.0716    3.1072   19.1421 C.3     1  UNL1        0.0650
     15 C           2.3265    1.6515   18.8848 C.3     1  UNL1        0.1694
     16 C           1.3745    0.6190   19.4115 C.3     1  UNL1        0.0650
     17 C           0.1676    1.0420   20.1953 C.3     1  UNL1        0.0960
     18 O           3.5334    1.2285   18.1009 O.3     1  UNL1       -0.4768
     19 C           4.3001    0.0048   18.5066 C.ar    1  UNL1        0.1657
     20 C           5.0383   -0.0192   19.8121 C.ar    1  UNL1        0.0415
     21 C           5.8051   -1.2428   20.2178 C.ar    1  UNL1        0.0329
     22 C           5.8337   -2.4427   19.3179 C.ar    1  UNL1        0.1426
     23 F           6.6004   -3.6663   19.7236 F       1  UNL1       -0.2041
     24 C           5.0955   -2.4187   18.0124 C.ar    1  UNL1        0.0624
     25 C           4.3287   -1.1949   17.6067 C.ar    1  UNL1        0.1760
     26 F           3.5905   -1.1709   16.3011 F       1  UNL1       -0.2009
     27 N           0.1661    3.1217   23.3760 N.pl3   1  UNL1       -0.3175
     28 H           0.7909    3.8824   23.3607 H       1  UNL1        0.1482
     29 C           1.6219    0.9738   23.5068 C.3     1  UNL1        0.0212
     30 C           0.5477    1.8517   24.0771 C.3     1  UNL1        0.0706
     31 C          -0.1450    1.4596   25.3485 C.3     1  UNL1        0.0212
@<TRIPOS>BOND
     1    29    30    1
     2    30    31    1
     3    30    27    1
     4    27     1    1
     5     1     2   ar
     6     2     3   ar
     7     3     4   ar
     8     4     5   ar
     9     5     6   ar
    10     6    12    1
    11    12    13    1
    12    13    14    1
    13    14    15    1
    14    15    18    1
    15    18    19    1
    16    19    20   ar
    17    20    21   ar
    18    21    22   ar
    19    22    23    1
    20    22    24   ar
    21    24    25   ar
    22    25    26    1
    23    15    16    1
    24    16    17    1
    25     4     7    1
    26     7     8    2
    27     8     9    1
    28     9    10    1
    29     9    11    1
    30     6     1   ar
    31    17    12    1
    32    11     3    1
    33    25    19   ar
    34    27    28    1
@<TRIPOS>MOLECULE
*****
 31 34 0 0 0
SMALL
GASTEIGER

@<TRIPOS>ATOM
      1 C          -0.6137    2.9836   22.4645 C.ar    1  UNL1        0.1600
      2 N          -1.6563    3.7339   23.2391 N.ar    1  UNL1       -0.2291
      3 C          -3.0137    3.9624   22.6430 C.ar    1  UNL1        0.0981
      4 C          -3.3284    3.4407   21.2723 C.ar    1  UNL1        0.0993
      5 N          -2.2857    2.6904   20.4977 N.ar    1  UNL1       -0.2265
      6 C          -0.9283    2.4619   21.0939 C.ar    1  UNL1        0.1633
      7 C          -4.6857    3.6692   20.6762 C.2     1  UNL1        0.0362
      8 C          -5.7284    4.4194   21.4507 C.2     1  UNL1        0.0633
      9 N          -5.4137    4.9411   22.8214 N.pl3   1  UNL1       -0.2995
     10 C          -6.4564    5.6914   23.5960 C.3     1  UNL1        0.1126
     11 C          -4.0563    4.7126   23.4175 C.3     1  UNL1        0.1389
     12 N           0.1144    1.7116   20.3193 N.pl3   1  UNL1       -0.2908
     13 C           1.0260    2.4467   19.3820 C.3     1  UNL1        0.0960
     14 C           2.0686    1.6964   18.6075 C.3     1  UNL1        0.0650
     15 C           2.1997    0.2110   18.7703 C.3     1  UNL1        0.1694
     16 C           1.2881   -0.5241   19.7076 C.3     1  UNL1        0.0650
     17 C           0.2455    0.2262   20.4821 C.3     1  UNL1        0.0960
     18 O           3.2424   -0.5392   17.9957 O.3     1  UNL1       -0.4768
     19 C           4.1713   -1.4798   18.7047 C.ar    1  UNL1        0.1657
     20 C           3.9108   -2.9567   18.6735 C.ar    1  UNL1        0.0415
     21 C           4.8396   -3.8972   19.3824 C.ar    1  UNL1        0.0329
     22 C           6.0290   -3.3608   20.1226 C.ar    1  UNL1        0.1426
     23 F           6.9578   -4.3014   20.8316 F       1  UNL1       -0.2041
     24 C           6.2894   -1.8839   20.1538 C.ar    1  UNL1        0.0624
     25 C           5.3605   -0.9434   19.4448 C.ar    1  UNL1        0.1760
     26 F           5.6210    0.5335   19.4760 F       1  UNL1       -0.2009
     27 N           0.7438    2.7551   23.0607 N.pl3   1  UNL1       -0.3175
     28 H           1.4749    3.3883   22.8772 H       1  UNL1        0.1482
     29 C           0.1352    1.3358   25.1500 C.3     1  UNL1        0.0212
     30 C           0.9871    1.5617   23.9363 C.3     1  UNL1        0.0706
     31 C           2.0824    0.5942   23.5981 C.3     1  UNL1        0.0212
@<TRIPOS>BOND
     1    29    30    1
     2    30    31    1
     3    30    27    1
     4    27     1    1
     5     1     2   ar
     6     2     3   ar
     7     3     4   ar
     8     4     5   ar
     9     5     6   ar
    10     6    12    1
    11    12    13    1
    12    13    14    1
    13    14    15    1
    14    15    18    1
    15    18    19    1
    16    19    20   ar
    17    20    21   ar
    18    21    22   ar
    19    22    23    1
    20    22    24   ar
    21    24    25   ar
    22    25    26    1
    23    15    16    1
    24    16    17    1
    25     4     7    1
    26     7     8    2
    27     8     9    1
    28     9    10    1
    29     9    11    1
    30     6     1   ar
    31    17    12    1
    32    11     3    1
    33    25    19   ar
    34    27    28    1
@<TRIPOS>MOLECULE
*****
 31 34 0 0 0
SMALL
GASTEIGER

@<TRIPOS>ATOM
      1 C           2.5745   -0.2206   28.1841 C.ar    1  UNL1        0.1600
      2 N           2.4596   -0.3138   29.6767 N.ar    1  UNL1       -0.2291
      3 C           3.6698   -0.6325   30.5036 C.ar    1  UNL1        0.0981
      4 C           4.9949   -0.8581   29.8378 C.ar    1  UNL1        0.0993
      5 N           5.1097   -0.7649   28.3451 N.ar    1  UNL1       -0.2265
      6 C           3.8995   -0.4461   27.5182 C.ar    1  UNL1        0.1633
      7 C           6.2051   -1.1768   30.6647 C.2     1  UNL1        0.0362
      8 C           6.0903   -1.2700   32.1574 C.2     1  UNL1        0.0633
      9 N           4.7652   -1.0445   32.8232 N.pl3   1  UNL1       -0.2995
     10 C           4.6504   -1.1377   34.3159 C.3     1  UNL1        0.1126
     11 C           3.5550   -0.7257   31.9963 C.3     1  UNL1        0.1389
     12 N           4.0144   -0.3529   26.0255 N.pl3   1  UNL1       -0.2908
     13 C           4.0715   -1.6028   25.1982 C.3     1  UNL1        0.0960
     14 C           4.1863   -1.5095   23.7055 C.3     1  UNL1        0.0650
     15 C           4.2440   -0.1664   23.0402 C.3     1  UNL1        0.1694
     16 C           4.1868    1.0835   23.8675 C.3     1  UNL1        0.0650
     17 C           4.0720    0.9902   25.3602 C.3     1  UNL1        0.0960
     18 O           4.3588   -0.0732   21.5474 O.3     1  UNL1       -0.4768
     19 C           4.4621   -1.3225   20.7237 C.ar    1  UNL1        0.1657
     20 C           5.8041   -1.9396   20.4623 C.ar    1  UNL1        0.0415
     21 C           5.9074   -3.1889   19.6385 C.ar    1  UNL1        0.0329
     22 C           4.6688   -3.8211   19.0762 C.ar    1  UNL1        0.1426
     23 F           4.7721   -5.0704   18.2525 F       1  UNL1       -0.2041
     24 C           3.3268   -3.2040   19.3377 C.ar    1  UNL1        0.0624
     25 C           3.2235   -1.9546   20.1614 C.ar    1  UNL1        0.1760
     26 F           1.8816   -1.3375   20.4229 F       1  UNL1       -0.2009
     27 N           1.3642    0.0982   27.3571 N.pl3   1  UNL1       -0.3175
     28 H           1.3801   -0.0496   26.3839 H       1  UNL1        0.1482
     29 C          -0.0276    2.1213   28.2055 C.3     1  UNL1        0.0212
     30 C           0.1297    0.6421   28.0130 C.3     1  UNL1        0.0706
     31 C          -0.9474   -0.2933   28.4765 C.3     1  UNL1        0.0212
@<TRIPOS>BOND
     1    29    30    1
     2    30    31    1
     3    30    27    1
     4    27     1    1
     5     1     2   ar
     6     2     3   ar
     7     3     4   ar
     8     4     5   ar
     9     5     6   ar
    10     6    12    1
    11    12    13    1
    12    13    14    1
    13    14    15    1
    14    15    18    1
    15    18    19    1
    16    19    20   ar
    17    20    21   ar
    18    21    22   ar
    19    22    23    1
    20    22    24   ar
    21    24    25   ar
    22    25    26    1
    23    15    16    1
    24    16    17    1
    25     4     7    1
    26     7     8    2
    27     8     9    1
    28     9    10    1
    29     9    11    1
    30     6     1   ar
    31    17    12    1
    32    11     3    1
    33    25    19   ar
    34    27    28    1
@<TRIPOS>MOLECULE
*****
 31 34 0 0 0
SMALL
GASTEIGER

@<TRIPOS>ATOM
      1 C           2.6298   -1.1593   20.1423 C.ar    1  UNL1        0.1600
      2 N           1.4304   -0.3832   19.6854 N.ar    1  UNL1       -0.2291
      3 C           0.8456    0.6811   20.5660 C.ar    1  UNL1        0.0981
      4 C           1.4604    0.9692   21.9035 C.ar    1  UNL1        0.0993
      5 N           2.6600    0.1930   22.3604 N.ar    1  UNL1       -0.2265
      6 C           3.2447   -0.8712   21.4798 C.ar    1  UNL1        0.1633
      7 C           0.8758    2.0334   22.7841 C.2     1  UNL1        0.0362
      8 C          -0.3237    2.8096   22.3272 C.2     1  UNL1        0.0633
      9 N          -0.9385    2.5215   20.9897 N.pl3   1  UNL1       -0.2995
     10 C          -2.1381    3.2976   20.5328 C.3     1  UNL1        0.1126
     11 C          -0.3539    1.4572   20.1091 C.3     1  UNL1        0.1389
     12 N           4.4442   -1.6474   21.9367 N.pl3   1  UNL1       -0.2908
     13 C           5.7824   -0.9758   22.0265 C.3     1  UNL1        0.0960
     14 C           6.9819   -1.7520   22.4834 C.3     1  UNL1        0.0650
     15 C           6.8431   -3.1998   22.8505 C.3     1  UNL1        0.1694
     16 C           5.5049   -3.8713   22.7607 C.3     1  UNL1        0.0650
     17 C           4.3054   -3.0951   22.3038 C.3     1  UNL1        0.0960
     18 O           8.0427   -3.9759   23.3074 O.3     1  UNL1       -0.4768
     19 C           7.8699   -5.1600   24.2118 C.ar    1  UNL1        0.1657
     20 C           8.3898   -6.5040   23.7954 C.ar    1  UNL1        0.0415
     21 C           8.2170   -7.6881   24.6998 C.ar    1  UNL1        0.0329
     22 C           7.5242   -7.5283   26.0207 C.ar    1  UNL1        0.1426
     23 F           7.3515   -8.7124   26.9251 F       1  UNL1       -0.2041
     24 C           7.0043   -6.1843   26.4371 C.ar    1  UNL1        0.0624
     25 C           7.1772   -5.0001   25.5326 C.ar    1  UNL1        0.1760
     26 F           6.6573   -3.6561   25.9490 F       1  UNL1       -0.2009
     27 N           3.2146   -2.2236   19.2616 N.pl3   1  UNL1       -0.3175
     28 H           2.9192   -3.1580   19.3563 H       1  UNL1        0.1482
     29 C           3.9071   -0.9164   17.1259 C.3     1  UNL1        0.0212
     30 C           4.2493   -1.8642   18.2369 C.3     1  UNL1        0.0706
     31 C           5.6264   -2.4528   18.3232 C.3     1  UNL1        0.0212
@<TRIPOS>BOND
     1    29    30    1
     2    30    31    1
     3    30    27    1
     4    27     1    1
     5     1     2   ar
     6     2     3   ar
     7     3     4   ar
     8     4     5   ar
     9     5     6   ar
    10     6    12    1
    11    12    13    1
    12    13    14    1
    13    14    15    1
    14    15    18    1
    15    18    19    1
    16    19    20   ar
    17    20    21   ar
    18    21    22   ar
    19    22    23    1
    20    22    24   ar
    21    24    25   ar
    22    25    26    1
    23    15    16    1
    24    16    17    1
    25     4     7    1
    26     7     8    2
    27     8     9    1
    28     9    10    1
    29     9    11    1
    30     6     1   ar
    31    17    12    1
    32    11     3    1
    33    25    19   ar
    34    27    28    1
@<TRIPOS>MOLECULE
*****
 31 34 0 0 0
SMALL
GASTEIGER

@<TRIPOS>ATOM
      1 C           6.3543   -2.6799   26.0061 C.ar    1  UNL1        0.1600
      2 N           6.8198   -3.1283   27.3596 N.ar    1  UNL1       -0.2291
      3 C           7.4423   -4.4827   27.5281 C.ar    1  UNL1        0.0981
      4 C           7.5992   -5.3886   26.3429 C.ar    1  UNL1        0.0993
      5 N           7.1336   -4.9402   24.9893 N.ar    1  UNL1       -0.2265
      6 C           6.5112   -3.5859   24.8209 C.ar    1  UNL1        0.1633
      7 C           8.2216   -6.7429   26.5113 C.2     1  UNL1        0.0362
      8 C           8.6871   -7.1913   27.8649 C.2     1  UNL1        0.0633
      9 N           8.5302   -6.2853   29.0500 N.pl3   1  UNL1       -0.2995
     10 C           8.9958   -6.7338   30.4037 C.3     1  UNL1        0.1126
     11 C           7.9078   -4.9310   28.8817 C.3     1  UNL1        0.1389
     12 N           6.0456   -3.1374   23.4673 N.pl3   1  UNL1       -0.2908
     13 C           4.8645   -3.8004   22.8227 C.3     1  UNL1        0.0960
     14 C           4.3990   -3.3520   21.4692 C.3     1  UNL1        0.0650
     15 C           5.1146   -2.2405   20.7601 C.3     1  UNL1        0.1694
     16 C           6.2956   -1.5775   21.4047 C.3     1  UNL1        0.0650
     17 C           6.7611   -2.0260   22.7582 C.3     1  UNL1        0.0960
     18 O           4.6490   -1.7921   19.4065 O.3     1  UNL1       -0.4768
     19 C           3.4801   -0.8599   19.2863 C.ar    1  UNL1        0.1657
     20 C           2.2043   -1.1586   20.0165 C.ar    1  UNL1        0.0415
     21 C           1.0354   -0.2263   19.8962 C.ar    1  UNL1        0.0329
     22 C           1.1422    1.0047   19.0457 C.ar    1  UNL1        0.1426
     23 F          -0.0267    1.9369   18.9255 F       1  UNL1       -0.2041
     24 C           2.4180    1.3034   18.3155 C.ar    1  UNL1        0.0624
     25 C           3.5869    0.3711   18.4358 C.ar    1  UNL1        0.1760
     26 F           4.8627    0.6698   17.7056 F       1  UNL1       -0.2009
     27 N           5.7318   -1.3255   25.8376 N.pl3   1  UNL1       -0.3175
     28 H           6.3009   -0.5393   25.6728 H       1  UNL1        0.1482
     29 C           3.5431   -1.3314   27.2375 C.3     1  UNL1        0.0212
     30 C           4.2423   -1.1692   25.9203 C.3     1  UNL1        0.0706
     31 C           3.4519   -0.8507   24.6859 C.3     1  UNL1        0.0212
@<TRIPOS>BOND
     1    29    30    1
     2    30    31    1
     3    30    27    1
     4    27     1    1
     5     1     2   ar
     6     2     3   ar
     7     3     4   ar
     8     4     5   ar
     9     5     6   ar
    10     6    12    1
    11    12    13    1
    12    13    14    1
    13    14    15    1
    14    15    18    1
    15    18    19    1
    16    19    20   ar
    17    20    21   ar
    18    21    22   ar
    19    22    23    1
    20    22    24   ar
    21    24    25   ar
    22    25    26    1
    23    15    16    1
    24    16    17    1
    25     4     7    1
    26     7     8    2
    27     8     9    1
    28     9    10    1
    29     9    11    1
    30     6     1   ar
    31    17    12    1
    32    11     3    1
    33    25    19   ar
    34    27    28    1
@<TRIPOS>MOLECULE
*****
 31 34 0 0 0
SMALL
GASTEIGER

@<TRIPOS>ATOM
      1 C          -0.6105    1.8565   26.2504 C.ar    1  UNL1        0.1600
      2 N          -1.8154    2.4680   26.9015 N.ar    1  UNL1       -0.2291
      3 C          -2.5708    3.5610   26.2051 C.ar    1  UNL1        0.0981
      4 C          -2.1210    4.0424   24.8575 C.ar    1  UNL1        0.0993
      5 N          -0.9159    3.4309   24.2064 N.ar    1  UNL1       -0.2265
      6 C          -0.1607    2.3379   24.9028 C.ar    1  UNL1        0.1633
      7 C          -2.8763    5.1354   24.1611 C.2     1  UNL1        0.0362
      8 C          -4.0812    5.7469   24.8123 C.2     1  UNL1        0.0633
      9 N          -4.5310    5.2654   26.1598 N.pl3   1  UNL1       -0.2995
     10 C          -5.7360    5.8770   26.8110 C.3     1  UNL1        0.1126
     11 C          -3.7757    4.1725   26.8562 C.3     1  UNL1        0.1389
     12 N           1.0444    1.7264   24.2516 N.pl3   1  UNL1       -0.2908
     13 C           2.4091    1.9633   24.8271 C.3     1  UNL1        0.0960
     14 C           3.6141    1.3518   24.1759 C.3     1  UNL1        0.0650
     15 C           3.4543    0.5033   22.9493 C.3     1  UNL1        0.1694
     16 C           2.0895    0.2664   22.3739 C.3     1  UNL1        0.0650
     17 C           0.8845    0.8779   23.0250 C.3     1  UNL1        0.0960
     18 O           4.6593   -0.1082   22.2982 O.3     1  UNL1       -0.4768
     19 C           4.4997   -1.2801   21.3756 C.ar    1  UNL1        0.1657
     20 C           4.4571   -1.0660   19.8916 C.ar    1  UNL1        0.0415
     21 C           4.2975   -2.2378   18.9690 C.ar    1  UNL1        0.0329
     22 C           4.1804   -3.6239   19.5304 C.ar    1  UNL1        0.1426
     23 F           4.0208   -4.7958   18.6078 F       1  UNL1       -0.2041
     24 C           4.2230   -3.8380   21.0144 C.ar    1  UNL1        0.0624
     25 C           4.3826   -2.6661   21.9370 C.ar    1  UNL1        0.1760
     26 F           4.4252   -2.8802   23.4211 F       1  UNL1       -0.2009
     27 N           0.1449    0.7635   26.9468 N.pl3   1  UNL1       -0.3175
     28 H           0.8320    0.2530   26.4605 H       1  UNL1        0.1482
     29 C          -1.2208   -0.5391   28.7323 C.3     1  UNL1        0.0212
     30 C          -0.1468    0.4484   28.3840 C.3     1  UNL1        0.0706
     31 C           0.6355    1.1209   29.4730 C.3     1  UNL1        0.0212
@<TRIPOS>BOND
     1    29    30    1
     2    30    31    1
     3    30    27    1
     4    27     1    1
     5     1     2   ar
     6     2     3   ar
     7     3     4   ar
     8     4     5   ar
     9     5     6   ar
    10     6    12    1
    11    12    13    1
    12    13    14    1
    13    14    15    1
    14    15    18    1
    15    18    19    1
    16    19    20   ar
    17    20    21   ar
    18    21    22   ar
    19    22    23    1
    20    22    24   ar
    21    24    25   ar
    22    25    26    1
    23    15    16    1
    24    16    17    1
    25     4     7    1
    26     7     8    2
    27     8     9    1
    28     9    10    1
    29     9    11    1
    30     6     1   ar
    31    17    12    1
    32    11     3    1
    33    25    19   ar
    34    27    28    1
@<TRIPOS>MOLECULE
*****
 31 34 0 0 0
SMALL
GASTEIGER

@<TRIPOS>ATOM
      1 C           2.3541   -0.1600   29.6602 C.ar    1  UNL1        0.1600
      2 N           3.1625   -0.7623   30.7708 N.ar    1  UNL1       -0.2291
      3 C           3.2960   -0.0396   32.0785 C.ar    1  UNL1        0.0981
      4 C           2.6211    1.2854   32.2754 C.ar    1  UNL1        0.0993
      5 N           1.8127    1.8877   31.1647 N.ar    1  UNL1       -0.2265
      6 C           1.6792    1.1651   29.8571 C.ar    1  UNL1        0.1633
      7 C           2.7546    2.0081   33.5830 C.2     1  UNL1        0.0362
      8 C           3.5631    1.4057   34.6937 C.2     1  UNL1        0.0633
      9 N           4.2379    0.0807   34.4968 N.pl3   1  UNL1       -0.2995
     10 C           5.0464   -0.5217   35.6075 C.3     1  UNL1        0.1126
     11 C           4.1044   -0.6420   33.1892 C.3     1  UNL1        0.1389
     12 N           0.8707    1.7674   28.7464 N.pl3   1  UNL1       -0.2908
     13 C          -0.5238    1.2809   28.4847 C.3     1  UNL1        0.0960
     14 C          -1.3322    1.8833   27.3740 C.3     1  UNL1        0.0650
     15 C          -0.7460    2.9721   26.5250 C.3     1  UNL1        0.1694
     16 C           0.6486    3.4586   26.7866 C.3     1  UNL1        0.0650
     17 C           1.4569    2.8562   27.8973 C.3     1  UNL1        0.0960
     18 O          -1.5544    3.5744   25.4142 O.3     1  UNL1       -0.4768
     19 C          -2.9213    4.1248   25.6947 C.ar    1  UNL1        0.1657
     20 C          -4.0969    3.6611   24.8867 C.ar    1  UNL1        0.0415
     21 C          -5.4637    4.2115   25.1671 C.ar    1  UNL1        0.0329
     22 C          -5.6551    5.2257   26.2557 C.ar    1  UNL1        0.1426
     23 F          -7.0219    5.7760   26.5361 F       1  UNL1       -0.2041
     24 C          -4.4795    5.6894   27.0637 C.ar    1  UNL1        0.0624
     25 C          -3.1126    5.1390   26.7832 C.ar    1  UNL1        0.1760
     26 F          -1.9370    5.6027   27.5912 F       1  UNL1       -0.2009
     27 N           2.2205   -0.8827   28.3525 N.pl3   1  UNL1       -0.3175
     28 H           1.4038   -1.3956   28.1547 H       1  UNL1        0.1482
     29 C           4.5599   -1.6634   27.5354 C.3     1  UNL1        0.0212
     30 C           3.3314   -0.8239   27.3462 C.3     1  UNL1        0.0706
     31 C           3.2136    0.0745   26.1507 C.3     1  UNL1        0.0212
@<TRIPOS>BOND
     1    29    30    1
     2    30    31    1
     3    30    27    1
     4    27     1    1
     5     1     2   ar
     6     2     3   ar
     7     3     4   ar
     8     4     5   ar
     9     5     6   ar
    10     6    12    1
    11    12    13    1
    12    13    14    1
    13    14    15    1
    14    15    18    1
    15    18    19    1
    16    19    20   ar
    17    20    21   ar
    18    21    22   ar
    19    22    23    1
    20    22    24   ar
    21    24    25   ar
    22    25    26    1
    23    15    16    1
    24    16    17    1
    25     4     7    1
    26     7     8    2
    27     8     9    1
    28     9    10    1
    29     9    11    1
    30     6     1   ar
    31    17    12    1
    32    11     3    1
    33    25    19   ar
    34    27    28    1
@<TRIPOS>MOLECULE
*****
 31 34 0 0 0
SMALL
GASTEIGER

@<TRIPOS>ATOM
      1 C           1.8117    0.8860   30.1668 C.ar    1  UNL1        0.1600
      2 N           2.0417    0.9176   31.6487 N.ar    1  UNL1       -0.2291
      3 C           1.8323    2.1911   32.4132 C.ar    1  UNL1        0.0981
      4 C           1.3928    3.4330   31.6957 C.ar    1  UNL1        0.0993
      5 N           1.1628    3.4013   30.2137 N.ar    1  UNL1       -0.2265
      6 C           1.3723    2.1278   29.4493 C.ar    1  UNL1        0.1633
      7 C           1.1834    4.7064   32.4602 C.2     1  UNL1        0.0362
      8 C           1.4134    4.7380   33.9420 C.2     1  UNL1        0.0633
      9 N           1.8528    3.4962   34.6595 N.pl3   1  UNL1       -0.2995
     10 C           2.0828    3.5279   36.1415 C.3     1  UNL1        0.1126
     11 C           2.0622    2.2228   33.8951 C.3     1  UNL1        0.1389
     12 N           1.1423    2.0962   27.9673 N.pl3   1  UNL1       -0.2908
     13 C           2.1630    2.6818   27.0373 C.3     1  UNL1        0.0960
     14 C           1.9330    2.6501   25.5554 C.3     1  UNL1        0.0650
     15 C           0.6822    2.0328   25.0036 C.3     1  UNL1        0.1694
     16 C          -0.3385    1.4471   25.9336 C.3     1  UNL1        0.0650
     17 C          -0.1085    1.4788   27.4155 C.3     1  UNL1        0.0960
     18 O           0.4522    2.0011   23.5216 O.3     1  UNL1       -0.4768
     19 C           1.1373    0.9670   22.6782 C.ar    1  UNL1        0.1657
     20 C           2.3049    0.2033   23.2291 C.ar    1  UNL1        0.0415
     21 C           2.9899   -0.8308   22.3857 C.ar    1  UNL1        0.0329
     22 C           2.5073   -1.1013   20.9915 C.ar    1  UNL1        0.1426
     23 F           3.1923   -2.1354   20.1481 F       1  UNL1       -0.2041
     24 C           1.3397   -0.3377   20.4406 C.ar    1  UNL1        0.0624
     25 C           0.6546    0.6965   21.2840 C.ar    1  UNL1        0.1760
     26 F          -0.5130    1.4601   20.7332 F       1  UNL1       -0.2009
     27 N           2.0211   -0.3875   29.4023 N.pl3   1  UNL1       -0.3175
     28 H           1.2985   -1.0539   29.3485 H       1  UNL1        0.1482
     29 C           4.6024   -0.6596   29.5165 C.3     1  UNL1        0.0212
     30 C           3.3316   -0.6456   28.7197 C.3     1  UNL1        0.0706
     31 C           3.3714   -0.8897   27.2401 C.3     1  UNL1        0.0212
@<TRIPOS>BOND
     1    29    30    1
     2    30    31    1
     3    30    27    1
     4    27     1    1
     5     1     2   ar
     6     2     3   ar
     7     3     4   ar
     8     4     5   ar
     9     5     6   ar
    10     6    12    1
    11    12    13    1
    12    13    14    1
    13    14    15    1
    14    15    18    1
    15    18    19    1
    16    19    20   ar
    17    20    21   ar
    18    21    22   ar
    19    22    23    1
    20    22    24   ar
    21    24    25   ar
    22    25    26    1
    23    15    16    1
    24    16    17    1
    25     4     7    1
    26     7     8    2
    27     8     9    1
    28     9    10    1
    29     9    11    1
    30     6     1   ar
    31    17    12    1
    32    11     3    1
    33    25    19   ar
    34    27    28    1
