@<TRIPOS>MOLECULE
*****
 33 35 0 0 0
SMALL
GASTEIGER

@<TRIPOS>ATOM
      1 C          -9.8912  -19.2096   21.1121 C.ar    1  UNL1        0.0293
      2 C          -8.4745  -18.7181   21.1481 C.ar    1  UNL1        0.0145
      3 C          -7.5582  -18.9858   19.9911 C.ar    1  UNL1        0.0505
      4 C          -8.0586  -19.7451   18.7981 C.ar    1  UNL1        0.0170
      5 C          -9.4753  -20.2366   18.7621 C.ar    1  UNL1        0.0306
      6 C         -10.3916  -19.9688   19.9191 C.ar    1  UNL1        0.1380
      7 F         -11.8084  -20.4603   19.8831 F       1  UNL1       -0.2044
      8 C          -9.9677  -20.0401   22.8508 C.3     1  UNL1        0.0321
      9 C         -10.8077  -18.9419   22.2691 C.3     1  UNL1        0.1432
     10 N         -11.3294  -17.9367   21.2856 N.2     1  UNL1       -0.2214
     11 C         -12.4757  -17.0451   21.6610 C.2     1  UNL1        0.2769
     12 N         -12.9974  -16.0399   20.6775 N.pl3   1  UNL1       -0.3133
     13 O         -13.1004  -17.1588   23.0201 O.2     1  UNL1       -0.4480
     14 C         -12.5787  -18.1641   24.0036 C.3     1  UNL1        0.2383
     15 C         -11.4323  -19.0556   23.6281 C.3     1  UNL1        0.2277
     16 F         -10.9105  -20.0608   24.6116 F       1  UNL1       -0.2309
     17 H         -12.5874  -15.9653   19.7855 H       1  UNL1        0.1466
     18 H         -13.7498  -15.4547   20.9239 H       1  UNL1        0.1466
     19 C         -13.2033  -18.2778   25.3626 C.3     1  UNL1        0.2394
     20 F         -14.6329  -18.7118   25.4970 F       1  UNL1       -0.2302
     21 N          -6.1414  -18.4943   20.0271 N.am    1  UNL1       -0.2791
     22 C          -5.0094  -19.4748   20.1115 C.2     1  UNL1        0.2688
     23 O          -5.2941  -20.9468   20.1599 O.2     1  UNL1       -0.2681
     24 H          -5.9546  -17.5282   19.9953 H       1  UNL1        0.1552
     25 C          -3.5927  -18.9834   20.1474 C.ar    1  UNL1        0.1538
     26 C          -2.6432  -19.5070   21.1840 C.ar    1  UNL1        0.1224
     27 N          -1.2264  -19.0155   21.2199 N.ar    1  UNL1       -0.2393
     28 C          -0.7591  -18.0005   20.2193 C.ar    1  UNL1        0.1440
     29 C          -1.7085  -17.4768   19.1828 C.ar    1  UNL1        0.1193
     30 N          -3.1253  -17.9682   19.1468 N.ar    1  UNL1       -0.2362
     31 C           0.6576  -17.5090   20.2553 C.3     1  UNL1        0.3597
     32 F           1.7123  -18.3118   20.9575 F       1  UNL1       -0.1915
     33 F           1.0197  -16.2147   19.5891 F       1  UNL1       -0.1915
@<TRIPOS>BOND
     1     9     8    1
     2     9     1    1
     3     1     2   ar
     4     2     3   ar
     5     3    21    1
     6    21    22   am
     7    22    23    2
     8    22    25    1
     9    25    26   ar
    10    26    27   ar
    11    27    28   ar
    12    28    31    1
    13    31    32    1
    14    31    33    1
    15    28    29   ar
    16    29    30   ar
    17     3     4   ar
    18     4     5   ar
    19     5     6   ar
    20     6     7    1
    21     9    10    1
    22    10    11    2
    23    11    12    1
    24    11    13    1
    25    13    14    1
    26    14    19    1
    27    19    20    1
    28    14    15    1
    29    15    16    1
    30    15     9    1
    31     6     1   ar
    32    30    25   ar
    33    21    24    1
    34    12    17    1
    35    12    18    1
@<TRIPOS>MOLECULE
*****
 33 35 0 0 0
SMALL
GASTEIGER

@<TRIPOS>ATOM
      1 C         -10.0204  -19.0738   20.9859 C.ar    1  UNL1        0.0293
      2 C          -8.5968  -18.6039   21.0357 C.ar    1  UNL1        0.0145
      3 C          -7.6572  -18.9378   19.9152 C.ar    1  UNL1        0.0505
      4 C          -8.1412  -19.7416   18.7448 C.ar    1  UNL1        0.0170
      5 C          -9.5648  -20.2115   18.6950 C.ar    1  UNL1        0.0306
      6 C         -10.5044  -19.8777   19.8156 C.ar    1  UNL1        0.1380
      7 F         -11.9280  -20.3476   19.7658 F       1  UNL1       -0.2044
      8 C         -11.4614  -17.7942   21.0555 C.3     1  UNL1        0.0321
      9 C         -10.9601  -18.7400   22.1064 C.3     1  UNL1        0.1432
     10 N         -10.1325  -19.8016   22.7681 N.2     1  UNL1       -0.2214
     11 C         -10.4186  -20.2010   24.1854 C.2     1  UNL1        0.2769
     12 N          -9.5910  -21.2627   24.8471 N.pl3   1  UNL1       -0.3133
     13 O         -11.5324  -19.5386   24.9409 O.2     1  UNL1       -0.4480
     14 C         -12.3600  -18.4770   24.2792 C.3     1  UNL1        0.2383
     15 C         -12.0739  -18.0776   22.8620 C.3     1  UNL1        0.2277
     16 F         -12.9014  -17.0159   22.2002 F       1  UNL1       -0.2309
     17 H          -8.8600  -21.6974   24.3512 H       1  UNL1        0.1466
     18 H          -9.7788  -21.5248   25.7773 H       1  UNL1        0.1466
     19 C         -13.4738  -17.8146   25.0348 C.3     1  UNL1        0.2394
     20 F         -14.2212  -18.5758   26.0893 F       1  UNL1       -0.2302
     21 N          -6.2335  -18.4679   19.9649 N.am    1  UNL1       -0.2791
     22 C          -5.1176  -19.4652   20.0656 C.2     1  UNL1        0.2688
     23 O          -5.4254  -20.9324   20.1166 O.2     1  UNL1       -0.2681
     24 H          -6.0316  -17.5049   19.9315 H       1  UNL1        0.1552
     25 C          -3.6940  -18.9953   20.1154 C.ar    1  UNL1        0.1538
     26 C          -2.7390  -19.5992   21.1019 C.ar    1  UNL1        0.1224
     27 N          -1.3153  -19.1293   21.1516 N.ar    1  UNL1       -0.2393
     28 C          -0.8467  -18.0556   20.2149 C.ar    1  UNL1        0.1440
     29 C          -1.8018  -17.4517   19.2284 C.ar    1  UNL1        0.1193
     30 N          -3.2254  -17.9216   19.1786 N.ar    1  UNL1       -0.2362
     31 C           0.5769  -17.5857   20.2646 C.3     1  UNL1        0.3597
     32 F           0.9476  -16.2531   19.6844 F       1  UNL1       -0.1915
     33 F           1.6299  -18.4485   20.8947 F       1  UNL1       -0.1915
@<TRIPOS>BOND
     1     9     8    1
     2     9     1    1
     3     1     2   ar
     4     2     3   ar
     5     3    21    1
     6    21    22   am
     7    22    23    2
     8    22    25    1
     9    25    26   ar
    10    26    27   ar
    11    27    28   ar
    12    28    31    1
    13    31    32    1
    14    31    33    1
    15    28    29   ar
    16    29    30   ar
    17     3     4   ar
    18     4     5   ar
    19     5     6   ar
    20     6     7    1
    21     9    10    1
    22    10    11    2
    23    11    12    1
    24    11    13    1
    25    13    14    1
    26    14    19    1
    27    19    20    1
    28    14    15    1
    29    15    16    1
    30    15     9    1
    31     6     1   ar
    32    30    25   ar
    33    21    24    1
    34    12    17    1
    35    12    18    1
@<TRIPOS>MOLECULE
*****
 33 35 0 0 0
SMALL
GASTEIGER

@<TRIPOS>ATOM
      1 C           2.9487   -0.5531   20.2688 C.ar    1  UNL1        0.0293
      2 C           1.6209   -0.1160   20.8127 C.ar    1  UNL1        0.0145
      3 C           0.7706    0.8435   20.0342 C.ar    1  UNL1        0.0505
      4 C           1.2480    1.3660   18.7116 C.ar    1  UNL1        0.0170
      5 C           2.5758    0.9289   18.1677 C.ar    1  UNL1        0.0306
      6 C           3.4261   -0.0306   18.9462 C.ar    1  UNL1        0.1380
      7 F           4.7540   -0.4677   18.4023 F       1  UNL1       -0.2044
      8 C           3.9203   -0.2945   21.9143 C.3     1  UNL1        0.0321
      9 C           3.7991   -1.5126   21.0473 C.3     1  UNL1        0.1432
     10 N           3.3826   -2.3974   19.9100 N.2     1  UNL1       -0.2214
     11 C           3.8585   -3.8187   19.8523 C.2     1  UNL1        0.2769
     12 N           3.4420   -4.7036   18.7149 N.pl3   1  UNL1       -0.3133
     13 O           4.7511   -4.3552   20.9320 O.2     1  UNL1       -0.4480
     14 C           5.1676   -3.4704   22.0693 C.3     1  UNL1        0.2383
     15 C           4.6916   -2.0491   22.1270 C.3     1  UNL1        0.2277
     16 F           5.1081   -1.1642   23.2643 F       1  UNL1       -0.2309
     17 H           2.8562   -4.3514   18.0063 H       1  UNL1        0.1466
     18 H           3.7543   -5.6364   18.6770 H       1  UNL1        0.1466
     19 C           6.0601   -4.0069   23.1490 C.3     1  UNL1        0.2394
     20 F           5.7704   -3.6923   24.5867 F       1  UNL1       -0.2302
     21 N          -0.5573    1.2806   20.5781 N.am    1  UNL1       -0.2791
     22 C          -0.7377    2.6829   21.0791 C.2     1  UNL1        0.2688
     23 O           0.4097    3.6481   21.0360 O.2     1  UNL1       -0.2681
     24 H          -1.3104    0.6471   20.6064 H       1  UNL1        0.1552
     25 C          -2.0655    3.1200   21.6230 C.ar    1  UNL1        0.1538
     26 C          -2.1398    3.8187   22.9483 C.ar    1  UNL1        0.1224
     27 N          -3.4677    4.2558   23.4922 N.ar    1  UNL1       -0.2393
     28 C          -4.7211    3.9943   22.7109 C.ar    1  UNL1        0.1440
     29 C          -4.6467    3.2957   21.3856 C.ar    1  UNL1        0.1193
     30 N          -3.3190    2.8585   20.8416 N.ar    1  UNL1       -0.2362
     31 C          -6.0488    4.4314   23.2548 C.3     1  UNL1        0.3597
     32 F          -6.1086    5.3927   24.4047 F       1  UNL1       -0.1915
     33 F          -7.3170    3.9072   22.6488 F       1  UNL1       -0.1915
@<TRIPOS>BOND
     1     9     8    1
     2     9     1    1
     3     1     2   ar
     4     2     3   ar
     5     3    21    1
     6    21    22   am
     7    22    23    2
     8    22    25    1
     9    25    26   ar
    10    26    27   ar
    11    27    28   ar
    12    28    31    1
    13    31    32    1
    14    31    33    1
    15    28    29   ar
    16    29    30   ar
    17     3     4   ar
    18     4     5   ar
    19     5     6   ar
    20     6     7    1
    21     9    10    1
    22    10    11    2
    23    11    12    1
    24    11    13    1
    25    13    14    1
    26    14    19    1
    27    19    20    1
    28    14    15    1
    29    15    16    1
    30    15     9    1
    31     6     1   ar
    32    30    25   ar
    33    21    24    1
    34    12    17    1
    35    12    18    1
@<TRIPOS>MOLECULE
*****
 33 35 0 0 0
SMALL
GASTEIGER

@<TRIPOS>ATOM
      1 C           3.2471    0.9304   18.8258 C.ar    1  UNL1        0.0293
      2 C           1.7823    1.2535   18.8271 C.ar    1  UNL1        0.0145
      3 C           1.3258    2.6665   18.6154 C.ar    1  UNL1        0.0505
      4 C           2.3341    3.7565   18.4024 C.ar    1  UNL1        0.0170
      5 C           3.7988    3.4334   18.4011 C.ar    1  UNL1        0.0306
      6 C           4.2553    2.0204   18.6128 C.ar    1  UNL1        0.1380
      7 F           5.7202    1.6972   18.6115 F       1  UNL1       -0.2044
      8 C           3.9412   -0.3504   17.5623 C.3     1  UNL1        0.0321
      9 C           3.7037   -0.4827   19.0375 C.3     1  UNL1        0.1432
     10 N           3.3076   -0.1242   20.4391 N.2     1  UNL1       -0.2214
     11 C           3.4505   -1.1329   21.5401 C.2     1  UNL1        0.2769
     12 N           3.0544   -0.7744   22.9418 N.pl3   1  UNL1       -0.3133
     13 O           3.9896   -2.5000   21.2394 O.2     1  UNL1       -0.4480
     14 C           4.3857   -2.8585   19.8378 C.3     1  UNL1        0.2383
     15 C           4.2427   -1.8499   18.7368 C.3     1  UNL1        0.2277
     16 F           4.6388   -2.2082   17.3352 F       1  UNL1       -0.2309
     17 H           2.7006    0.1229   23.1391 H       1  UNL1        0.1466
     18 H           3.1483   -1.4364   23.6644 H       1  UNL1        0.1466
     19 C           4.9248   -4.2256   19.5371 C.3     1  UNL1        0.2394
     20 F           4.4340   -4.9778   18.3357 F       1  UNL1       -0.2302
     21 N          -0.1390    2.9897   18.6168 N.am    1  UNL1       -0.2791
     22 C          -0.9024    3.0053   19.9079 C.2     1  UNL1        0.2688
     23 O          -0.2010    2.6978   21.1977 O.2     1  UNL1       -0.2681
     24 H          -0.5994    3.1915   17.7702 H       1  UNL1        0.1552
     25 C          -2.3672    3.3284   19.9092 C.ar    1  UNL1        0.1538
     26 C          -2.9928    3.9790   18.7112 C.ar    1  UNL1        0.1224
     27 N          -4.4576    4.3021   18.7126 N.ar    1  UNL1       -0.2393
     28 C          -5.2968    3.9746   19.9120 C.ar    1  UNL1        0.1440
     29 C          -4.6711    3.3240   21.1100 C.ar    1  UNL1        0.1193
     30 N          -3.2064    3.0009   21.1087 N.ar    1  UNL1       -0.2362
     31 C          -6.7615    4.2978   19.9134 C.3     1  UNL1        0.3597
     32 F          -7.6099    3.9387   18.7296 F       1  UNL1       -0.1915
     33 F          -7.3780    4.9799   21.0986 F       1  UNL1       -0.1915
@<TRIPOS>BOND
     1     9     8    1
     2     9     1    1
     3     1     2   ar
     4     2     3   ar
     5     3    21    1
     6    21    22   am
     7    22    23    2
     8    22    25    1
     9    25    26   ar
    10    26    27   ar
    11    27    28   ar
    12    28    31    1
    13    31    32    1
    14    31    33    1
    15    28    29   ar
    16    29    30   ar
    17     3     4   ar
    18     4     5   ar
    19     5     6   ar
    20     6     7    1
    21     9    10    1
    22    10    11    2
    23    11    12    1
    24    11    13    1
    25    13    14    1
    26    14    19    1
    27    19    20    1
    28    14    15    1
    29    15    16    1
    30    15     9    1
    31     6     1   ar
    32    30    25   ar
    33    21    24    1
    34    12    17    1
    35    12    18    1
@<TRIPOS>MOLECULE
*****
 33 35 0 0 0
SMALL
GASTEIGER

@<TRIPOS>ATOM
      1 C           3.5758   -1.3747   19.6619 C.ar    1  UNL1        0.0293
      2 C           3.7706   -1.8172   21.0818 C.ar    1  UNL1        0.0145
      3 C           4.5828   -3.0423   21.3807 C.ar    1  UNL1        0.0505
      4 C           5.2002   -3.8249   20.2598 C.ar    1  UNL1        0.0170
      5 C           5.0054   -3.3823   18.8399 C.ar    1  UNL1        0.0306
      6 C           4.1931   -2.1572   18.5410 C.ar    1  UNL1        0.1380
      7 F           3.9983   -1.7146   17.1210 F       1  UNL1       -0.2044
      8 C           1.6912   -1.0468   19.9061 C.3     1  UNL1        0.0321
      9 C           2.7635   -0.1495   19.3629 C.3     1  UNL1        0.1432
     10 N           4.1179    0.3222   18.9235 N.2     1  UNL1       -0.2214
     11 C           4.2877    1.7075   18.3737 C.2     1  UNL1        0.2769
     12 N           5.6421    2.1792   17.9343 N.pl3   1  UNL1       -0.3133
     13 O           3.1030    2.6210   18.2634 O.2     1  UNL1       -0.4480
     14 C           1.7486    2.1492   18.7028 C.3     1  UNL1        0.2383
     15 C           1.5789    0.7640   19.2525 C.3     1  UNL1        0.2277
     16 F           0.2245    0.2921   19.6919 F       1  UNL1       -0.2309
     17 H           6.4196    1.5797   18.0068 H       1  UNL1        0.1466
     18 H           5.7535    3.0884   17.5735 H       1  UNL1        0.1466
     19 C           0.5640    3.0627   18.5924 C.3     1  UNL1        0.2394
     20 F          -0.3933    2.9145   17.4471 F       1  UNL1       -0.2302
     21 N           4.7777   -3.4849   22.8007 N.am    1  UNL1       -0.2791
     22 C           6.0258   -3.1039   23.5404 C.2     1  UNL1        0.2688
     23 O           7.0789   -2.2803   22.8602 O.2     1  UNL1       -0.2681
     24 H           4.0865   -4.0254   23.2471 H       1  UNL1        0.1552
     25 C           6.2207   -3.5465   24.9603 C.ar    1  UNL1        0.1538
     26 C           5.9791   -2.5845   26.0856 C.ar    1  UNL1        0.1224
     27 N           6.1741   -3.0271   27.5056 N.ar    1  UNL1       -0.2393
     28 C           6.6106   -4.4316   27.8002 C.ar    1  UNL1        0.1440
     29 C           6.8521   -5.3936   26.6749 C.ar    1  UNL1        0.1193
     30 N           6.6572   -4.9510   25.2550 N.ar    1  UNL1       -0.2362
     31 C           6.8055   -4.8742   29.2200 C.3     1  UNL1        0.3597
     32 F           6.3611   -3.9915   30.3485 F       1  UNL1       -0.1915
     33 F           7.4448   -6.1995   29.5115 F       1  UNL1       -0.1915
@<TRIPOS>BOND
     1     9     8    1
     2     9     1    1
     3     1     2   ar
     4     2     3   ar
     5     3    21    1
     6    21    22   am
     7    22    23    2
     8    22    25    1
     9    25    26   ar
    10    26    27   ar
    11    27    28   ar
    12    28    31    1
    13    31    32    1
    14    31    33    1
    15    28    29   ar
    16    29    30   ar
    17     3     4   ar
    18     4     5   ar
    19     5     6   ar
    20     6     7    1
    21     9    10    1
    22    10    11    2
    23    11    12    1
    24    11    13    1
    25    13    14    1
    26    14    19    1
    27    19    20    1
    28    14    15    1
    29    15    16    1
    30    15     9    1
    31     6     1   ar
    32    30    25   ar
    33    21    24    1
    34    12    17    1
    35    12    18    1
@<TRIPOS>MOLECULE
*****
 33 35 0 0 0
SMALL
GASTEIGER

@<TRIPOS>ATOM
      1 C           6.3263   -3.4977   22.3665 C.ar    1  UNL1        0.0293
      2 C           5.8962   -3.3274   23.7933 C.ar    1  UNL1        0.0145
      3 C           6.6129   -4.0642   24.8857 C.ar    1  UNL1        0.0505
      4 C           7.7597   -4.9715   24.5512 C.ar    1  UNL1        0.0170
      5 C           8.1897   -5.1418   23.1243 C.ar    1  UNL1        0.0306
      6 C           7.4730   -4.4050   22.0320 C.ar    1  UNL1        0.1380
      7 F           7.9031   -4.5753   20.6050 F       1  UNL1       -0.2044
      8 C           6.5027   -1.6683   21.7827 C.3     1  UNL1        0.0321
      9 C           5.6096   -2.7608   21.2740 C.3     1  UNL1        0.1432
     10 N           4.9654   -4.1092   21.1447 N.2     1  UNL1       -0.2214
     11 C           3.9147   -4.3414   20.0996 C.2     1  UNL1        0.2769
     12 N           3.2705   -5.6899   19.9703 N.pl3   1  UNL1       -0.3133
     13 O           3.5082   -3.2250   19.1839 O.2     1  UNL1       -0.4480
     14 C           4.1524   -1.8766   19.3132 C.3     1  UNL1        0.2383
     15 C           5.2031   -1.6445   20.3582 C.3     1  UNL1        0.2277
     16 F           5.8473   -0.2961   20.4876 F       1  UNL1       -0.2309
     17 H           3.5374   -6.4225   20.5714 H       1  UNL1        0.1466
     18 H           2.5809   -5.8423   19.2844 H       1  UNL1        0.1466
     19 C           3.7458   -0.7603   18.3974 C.3     1  UNL1        0.2394
     20 F           3.5743   -1.0188   16.9299 F       1  UNL1       -0.2302
     21 N           6.1829   -3.8939   26.3126 N.am    1  UNL1       -0.2791
     22 C           7.0084   -3.0641   27.2507 C.2     1  UNL1        0.2688
     23 O           8.2638   -2.4046   26.7619 O.2     1  UNL1       -0.2681
     24 H           5.3589   -4.3267   26.6335 H       1  UNL1        0.1552
     25 C           6.5784   -2.8937   28.6776 C.ar    1  UNL1        0.1538
     26 C           5.7669   -1.6976   29.0787 C.ar    1  UNL1        0.1224
     27 N           5.3369   -1.5273   30.5057 N.ar    1  UNL1       -0.2393
     28 C           5.7185   -2.5530   31.5315 C.ar    1  UNL1        0.1440
     29 C           6.5300   -3.7491   31.1304 C.ar    1  UNL1        0.1193
     30 N           6.9599   -3.9194   29.7035 N.ar    1  UNL1       -0.2362
     31 C           5.2885   -2.3827   32.9584 C.3     1  UNL1        0.3597
     32 F           4.2040   -3.2512   33.5237 F       1  UNL1       -0.1915
     33 F           5.9430   -1.3437   33.8200 F       1  UNL1       -0.1915
@<TRIPOS>BOND
     1     9     8    1
     2     9     1    1
     3     1     2   ar
     4     2     3   ar
     5     3    21    1
     6    21    22   am
     7    22    23    2
     8    22    25    1
     9    25    26   ar
    10    26    27   ar
    11    27    28   ar
    12    28    31    1
    13    31    32    1
    14    31    33    1
    15    28    29   ar
    16    29    30   ar
    17     3     4   ar
    18     4     5   ar
    19     5     6   ar
    20     6     7    1
    21     9    10    1
    22    10    11    2
    23    11    12    1
    24    11    13    1
    25    13    14    1
    26    14    19    1
    27    19    20    1
    28    14    15    1
    29    15    16    1
    30    15     9    1
    31     6     1   ar
    32    30    25   ar
    33    21    24    1
    34    12    17    1
    35    12    18    1
@<TRIPOS>MOLECULE
*****
 33 35 0 0 0
SMALL
GASTEIGER

@<TRIPOS>ATOM
      1 C           5.9076   -3.0257   21.3828 C.ar    1  UNL1        0.0293
      2 C           5.8319   -3.4452   22.8209 C.ar    1  UNL1        0.0145
      3 C           6.9255   -4.2811   23.4168 C.ar    1  UNL1        0.0505
      4 C           8.0949   -4.6974   22.5746 C.ar    1  UNL1        0.0170
      5 C           8.1706   -4.2779   21.1365 C.ar    1  UNL1        0.0306
      6 C           7.0769   -3.4420   20.5406 C.ar    1  UNL1        0.1380
      7 F           7.1526   -3.0224   19.1024 F       1  UNL1       -0.2044
      8 C           4.3014   -3.5610   20.4595 C.3     1  UNL1        0.0321
      9 C           4.8139   -2.1897   20.7868 C.3     1  UNL1        0.1432
     10 N           5.7061   -1.1088   21.3211 N.2     1  UNL1       -0.2214
     11 C           5.3267    0.3318   21.1457 C.2     1  UNL1        0.2769
     12 N           6.2190    1.4127   21.6800 N.pl3   1  UNL1       -0.3133
     13 O           4.0551    0.6914   20.4360 O.2     1  UNL1       -0.4480
     14 C           3.1628   -0.3895   19.9018 C.3     1  UNL1        0.2383
     15 C           3.5422   -1.8301   20.0771 C.3     1  UNL1        0.2277
     16 F           2.6500   -2.9111   19.5429 F       1  UNL1       -0.2309
     17 H           7.0537    1.1766   22.1457 H       1  UNL1        0.1466
     18 H           5.9701    2.3582   21.5649 H       1  UNL1        0.1466
     19 C           1.8912   -0.0298   19.1921 C.3     1  UNL1        0.2394
     20 F           0.5669   -0.3013   19.8423 F       1  UNL1       -0.2302
     21 N           6.8499   -4.7007   24.8550 N.am    1  UNL1       -0.2791
     22 C           7.2260   -3.7344   25.9389 C.2     1  UNL1        0.2688
     23 O           7.6777   -2.3486   25.5847 O.2     1  UNL1       -0.2681
     24 H           6.5534   -5.6103   25.0875 H       1  UNL1        0.1552
     25 C           7.1504   -4.1540   27.3770 C.ar    1  UNL1        0.1538
     26 C           7.4375   -5.5756   27.7597 C.ar    1  UNL1        0.1224
     27 N           7.3618   -5.9952   29.1979 N.ar    1  UNL1       -0.2393
     28 C           6.9991   -4.9930   30.2534 C.ar    1  UNL1        0.1440
     29 C           6.7120   -3.5713   29.8707 C.ar    1  UNL1        0.1193
     30 N           6.7876   -3.1518   28.4326 N.ar    1  UNL1       -0.2362
     31 C           6.9235   -5.4125   31.6915 C.3     1  UNL1        0.3597
     32 F           6.2570   -4.5226   32.6983 F       1  UNL1       -0.1915
     33 F           7.5143   -6.7221   32.1228 F       1  UNL1       -0.1915
@<TRIPOS>BOND
     1     9     8    1
     2     9     1    1
     3     1     2   ar
     4     2     3   ar
     5     3    21    1
     6    21    22   am
     7    22    23    2
     8    22    25    1
     9    25    26   ar
    10    26    27   ar
    11    27    28   ar
    12    28    31    1
    13    31    32    1
    14    31    33    1
    15    28    29   ar
    16    29    30   ar
    17     3     4   ar
    18     4     5   ar
    19     5     6   ar
    20     6     7    1
    21     9    10    1
    22    10    11    2
    23    11    12    1
    24    11    13    1
    25    13    14    1
    26    14    19    1
    27    19    20    1
    28    14    15    1
    29    15    16    1
    30    15     9    1
    31     6     1   ar
    32    30    25   ar
    33    21    24    1
    34    12    17    1
    35    12    18    1
@<TRIPOS>MOLECULE
*****
 33 35 0 0 0
SMALL
GASTEIGER

@<TRIPOS>ATOM
      1 C           4.0146   -1.2544   19.7088 C.ar    1  UNL1        0.0293
      2 C           4.1758   -1.6020   21.1590 C.ar    1  UNL1        0.0145
      3 C           4.5798   -2.9907   21.5570 C.ar    1  UNL1        0.0505
      4 C           4.8226   -4.0317   20.5047 C.ar    1  UNL1        0.0170
      5 C           4.6614   -3.6841   19.0545 C.ar    1  UNL1        0.0306
      6 C           4.2574   -2.2955   18.6565 C.ar    1  UNL1        0.1380
      7 F           4.0962   -1.9478   17.2063 F       1  UNL1       -0.2044
      8 C           5.0467    0.1465   18.8776 C.3     1  UNL1        0.0321
      9 C           3.6107    0.1343   19.3108 C.3     1  UNL1        0.1432
     10 N           2.3150   -0.3601   19.8822 N.2     1  UNL1       -0.2214
     11 C           1.1140    0.5383   19.9052 C.2     1  UNL1        0.2769
     12 N          -0.1818    0.0437   20.4767 N.pl3   1  UNL1       -0.3133
     13 O           1.2088    1.9312   19.3567 O.2     1  UNL1       -0.4480
     14 C           2.5045    2.4257   18.7853 C.3     1  UNL1        0.2383
     15 C           3.7055    1.5273   18.7623 C.3     1  UNL1        0.2277
     16 F           5.0012    2.0217   18.1909 F       1  UNL1       -0.2309
     17 H          -0.2439   -0.8705   20.8366 H       1  UNL1        0.1466
     18 H          -0.9700    0.6334   20.4918 H       1  UNL1        0.1466
     19 C           2.5993    3.8186   18.2368 C.3     1  UNL1        0.2394
     20 F           1.3504    4.5971   17.9469 F       1  UNL1       -0.2302
     21 N           4.7410   -3.3383   23.0072 N.am    1  UNL1       -0.2791
     22 C           6.1118   -3.4234   23.6102 C.2     1  UNL1        0.2688
     23 O           7.3215   -3.1609   22.7628 O.2     1  UNL1       -0.2681
     24 H           3.9471   -3.5106   23.5633 H       1  UNL1        0.1552
     25 C           6.2731   -3.7711   25.0604 C.ar    1  UNL1        0.1538
     26 C           5.9588   -2.7521   26.1153 C.ar    1  UNL1        0.1224
     27 N           6.1201   -3.0998   27.5656 N.ar    1  UNL1       -0.2393
     28 C           6.5956   -4.4664   27.9608 C.ar    1  UNL1        0.1440
     29 C           6.9099   -5.4854   26.9058 C.ar    1  UNL1        0.1193
     30 N           6.7486   -5.1377   25.4556 N.ar    1  UNL1       -0.2362
     31 C           6.7568   -4.8141   29.4110 C.3     1  UNL1        0.3597
     32 F           7.0570   -6.2272   29.8146 F       1  UNL1       -0.1915
     33 F           6.6179   -3.7485   30.4576 F       1  UNL1       -0.1915
@<TRIPOS>BOND
     1     9     8    1
     2     9     1    1
     3     1     2   ar
     4     2     3   ar
     5     3    21    1
     6    21    22   am
     7    22    23    2
     8    22    25    1
     9    25    26   ar
    10    26    27   ar
    11    27    28   ar
    12    28    31    1
    13    31    32    1
    14    31    33    1
    15    28    29   ar
    16    29    30   ar
    17     3     4   ar
    18     4     5   ar
    19     5     6   ar
    20     6     7    1
    21     9    10    1
    22    10    11    2
    23    11    12    1
    24    11    13    1
    25    13    14    1
    26    14    19    1
    27    19    20    1
    28    14    15    1
    29    15    16    1
    30    15     9    1
    31     6     1   ar
    32    30    25   ar
    33    21    24    1
    34    12    17    1
    35    12    18    1
@<TRIPOS>MOLECULE
*****
 33 35 0 0 0
SMALL
GASTEIGER

@<TRIPOS>ATOM
      1 C           3.3000   -0.8008   20.1690 C.ar    1  UNL1        0.0293
      2 C           2.0146   -0.2930   20.7519 C.ar    1  UNL1        0.0145
      3 C           1.0522    0.4723   19.8929 C.ar    1  UNL1        0.0505
      4 C           1.3752    0.7298   18.4508 C.ar    1  UNL1        0.0170
      5 C           2.6605    0.2219   17.8679 C.ar    1  UNL1        0.0306
      6 C           3.6230   -0.5433   18.7270 C.ar    1  UNL1        0.1380
      7 F           4.9084   -1.0512   18.1440 F       1  UNL1       -0.2044
      8 C           3.4912   -2.7025   20.4250 C.3     1  UNL1        0.0321
      9 C           4.2625   -1.5661   21.0281 C.3     1  UNL1        0.1432
     10 N           4.6996   -0.1639   21.3328 N.2     1  UNL1       -0.2214
     11 C           5.8312    0.0783   22.2871 C.2     1  UNL1        0.2769
     12 N           6.2682    1.4805   22.5918 N.pl3   1  UNL1       -0.3133
     13 O           6.5258   -1.0817   22.9367 O.2     1  UNL1       -0.4480
     14 C           6.0888   -2.4839   22.6320 C.3     1  UNL1        0.2383
     15 C           4.9571   -2.7261   21.6777 C.3     1  UNL1        0.2277
     16 F           4.5200   -4.1283   21.3730 F       1  UNL1       -0.2309
     17 H           5.8123    2.2419   22.1654 H       1  UNL1        0.1466
     18 H           7.0110    1.6395   23.2181 H       1  UNL1        0.1466
     19 C           6.7833   -3.6439   23.2816 C.3     1  UNL1        0.2394
     20 F           6.1433   -4.3474   24.4416 F       1  UNL1       -0.2302
     21 N          -0.2332    0.9802   20.4758 N.am    1  UNL1       -0.2791
     22 C          -0.3720    2.4294   20.8370 C.2     1  UNL1        0.2688
     23 O           0.7746    3.3708   20.6152 O.2     1  UNL1       -0.2681
     24 H          -0.9858    0.3623   20.6213 H       1  UNL1        0.1552
     25 C          -1.6574    2.9373   21.4199 C.ar    1  UNL1        0.1538
     26 C          -1.6631    3.5855   22.7726 C.ar    1  UNL1        0.1224
     27 N          -2.9486    4.0934   23.3555 N.ar    1  UNL1       -0.2393
     28 C          -4.2282    3.9531   22.5857 C.ar    1  UNL1        0.1440
     29 C          -4.2226    3.3050   21.2330 C.ar    1  UNL1        0.1193
     30 N          -2.9372    2.7971   20.6501 N.ar    1  UNL1       -0.2362
     31 C          -5.5136    4.4610   23.1686 C.3     1  UNL1        0.3597
     32 F          -5.4894    5.5296   24.2210 F       1  UNL1       -0.1915
     33 F          -6.8233    3.9003   22.6991 F       1  UNL1       -0.1915
@<TRIPOS>BOND
     1     9     8    1
     2     9     1    1
     3     1     2   ar
     4     2     3   ar
     5     3    21    1
     6    21    22   am
     7    22    23    2
     8    22    25    1
     9    25    26   ar
    10    26    27   ar
    11    27    28   ar
    12    28    31    1
    13    31    32    1
    14    31    33    1
    15    28    29   ar
    16    29    30   ar
    17     3     4   ar
    18     4     5   ar
    19     5     6   ar
    20     6     7    1
    21     9    10    1
    22    10    11    2
    23    11    12    1
    24    11    13    1
    25    13    14    1
    26    14    19    1
    27    19    20    1
    28    14    15    1
    29    15    16    1
    30    15     9    1
    31     6     1   ar
    32    30    25   ar
    33    21    24    1
    34    12    17    1
    35    12    18    1
