@<TRIPOS>MOLECULE
*****
 29 32 0 0 0
SMALL
GASTEIGER

@<TRIPOS>ATOM
      1 C          -6.8576  -15.9415   24.0573 C.ar    1  UNL1        0.0926
      2 C          -8.1386  -16.1693   23.3111 C.ar    1  UNL1        0.0467
      3 C          -9.4542  -16.0147   24.0147 C.ar    1  UNL1        0.1648
      4 C          -9.4888  -15.6322   25.4648 C.ar    1  UNL1        0.1395
      5 N          -8.2077  -15.4044   26.2111 N.ar    1  UNL1       -0.2060
      6 N          -7.9299  -15.0215   27.6345 N.ar    1  UNL1       -0.1408
      7 C          -6.4425  -14.9394   27.8105 C.ar    1  UNL1        0.2213
      8 N          -5.8011  -15.2716   26.4958 N.ar    1  UNL1       -0.2033
      9 C          -6.8921  -15.5590   25.5073 C.ar    1  UNL1        0.1702
     10 O          -4.7001  -14.8888   23.0636 O.2     1  UNL1       -0.2697
     11 C          -5.5419  -16.0961   23.3536 C.2     1  UNL1        0.2536
     12 N          -5.0682  -17.4578   22.9398 N.am    1  UNL1       -0.2657
     13 H          -5.6207  -18.2501   23.1301 H       1  UNL1        0.1566
     14 C          -3.7525  -17.6123   22.2361 C.ar    1  UNL1        0.1345
     15 C          -3.2632  -18.9773   21.8521 C.ar    1  UNL1        0.0368
     16 C          -1.9475  -19.1319   21.1484 C.ar    1  UNL1        0.0341
     17 C          -1.1213  -17.9215   20.8286 C.ar    1  UNL1        0.1593
     18 F           0.1943  -18.0761   20.1249 F       1  UNL1       -0.2025
     19 C          -1.6107  -16.5565   21.2125 C.ar    1  UNL1        0.1298
     20 N          -2.9262  -16.4020   21.9162 N.ar    1  UNL1       -0.2267
     21 O         -10.7353  -16.2426   23.2684 O.3     1  UNL1       -0.4503
     22 C         -10.7594  -17.1612   22.0828 C.ar    1  UNL1        0.1669
     23 C         -10.6037  -16.6039   20.6990 C.ar    1  UNL1        0.1388
     24 N         -10.6278  -17.5224   19.5134 N.ar    1  UNL1       -0.2113
     25 C         -10.8077  -18.9983   19.7116 C.ar    1  UNL1        0.2501
     26 F         -10.8318  -19.9170   18.5261 F       1  UNL1       -0.1808
     27 C         -10.9634  -19.5557   21.0955 C.ar    1  UNL1        0.1888
     28 F         -11.1433  -21.0316   21.2939 F       1  UNL1       -0.2000
     29 C         -10.9393  -18.6371   22.2811 C.ar    1  UNL1        0.0727
@<TRIPOS>BOND
     1    10    11    2
     2    11    12   am
     3    12    14    1
     4    14    15   ar
     5    15    16   ar
     6    16    17   ar
     7    17    18    1
     8    17    19   ar
     9    19    20   ar
    10    11     1    1
    11     1     2   ar
    12     2     3   ar
    13     3    21    1
    14    21    22    1
    15    22    23   ar
    16    23    24   ar
    17    24    25   ar
    18    25    26    1
    19    25    27   ar
    20    27    28    1
    21    27    29   ar
    22     3     4   ar
    23     4     5   ar
    24     5     6   ar
    25     6     7   ar
    26     7     8   ar
    27     8     9   ar
    28    20    14   ar
    29     9     1   ar
    30    29    22   ar
    31     9     5   ar
    32    12    13    1
@<TRIPOS>MOLECULE
*****
 29 32 0 0 0
SMALL
GASTEIGER

@<TRIPOS>ATOM
      1 C          -6.5554  -16.5358   24.0335 C.ar    1  UNL1        0.0926
      2 C          -7.7691  -17.1620   23.4132 C.ar    1  UNL1        0.0467
      3 C          -9.0763  -17.1535   24.1488 C.ar    1  UNL1        0.1648
      4 C          -9.1699  -16.5187   25.5047 C.ar    1  UNL1        0.1395
      5 N          -7.9561  -15.8925   26.1249 N.ar    1  UNL1       -0.2060
      6 N          -7.7450  -15.1975   27.4373 N.ar    1  UNL1       -0.1408
      7 C          -6.3073  -14.7765   27.5128 C.ar    1  UNL1        0.2213
      8 N          -5.6299  -15.2113   26.2471 N.ar    1  UNL1       -0.2033
      9 C          -6.6489  -15.9010   25.3893 C.ar    1  UNL1        0.1702
     10 O          -4.4601  -15.2760   23.1542 O.2     1  UNL1       -0.2697
     11 C          -5.2482  -16.5443   23.2979 C.2     1  UNL1        0.2536
     12 N          -4.7290  -17.8210   22.7060 N.am    1  UNL1       -0.2657
     13 H          -5.2462  -18.6534   22.8003 H       1  UNL1        0.1566
     14 C          -3.4217  -17.8295   21.9704 C.ar    1  UNL1        0.1345
     15 C          -2.8250  -19.1287   21.5165 C.ar    1  UNL1        0.0368
     16 C          -1.5178  -19.1372   20.7809 C.ar    1  UNL1        0.0341
     17 C          -0.8073  -17.8465   20.4992 C.ar    1  UNL1        0.1593
     18 F           0.4999  -17.8550   19.7636 F       1  UNL1       -0.2025
     19 C          -1.4041  -16.5473   20.9531 C.ar    1  UNL1        0.1298
     20 N          -2.7112  -16.5388   21.6886 N.ar    1  UNL1       -0.2267
     21 O         -10.2901  -17.7797   23.5285 O.3     1  UNL1       -0.4503
     22 C         -10.8915  -17.1839   22.2902 C.ar    1  UNL1        0.1669
     23 C         -12.2317  -17.6532   21.8068 C.ar    1  UNL1        0.1388
     24 N         -12.8332  -17.0574   20.5685 N.ar    1  UNL1       -0.2113
     25 C         -12.0944  -15.9924   19.8136 C.ar    1  UNL1        0.2501
     26 F         -12.6958  -15.3966   18.5752 F       1  UNL1       -0.1808
     27 C         -10.7542  -15.5232   20.2969 C.ar    1  UNL1        0.1888
     28 F         -10.0152  -14.4582   19.5420 F       1  UNL1       -0.2000
     29 C         -10.1527  -16.1190   21.5352 C.ar    1  UNL1        0.0727
@<TRIPOS>BOND
     1    10    11    2
     2    11    12   am
     3    12    14    1
     4    14    15   ar
     5    15    16   ar
     6    16    17   ar
     7    17    18    1
     8    17    19   ar
     9    19    20   ar
    10    11     1    1
    11     1     2   ar
    12     2     3   ar
    13     3    21    1
    14    21    22    1
    15    22    23   ar
    16    23    24   ar
    17    24    25   ar
    18    25    26    1
    19    25    27   ar
    20    27    28    1
    21    27    29   ar
    22     3     4   ar
    23     4     5   ar
    24     5     6   ar
    25     6     7   ar
    26     7     8   ar
    27     8     9   ar
    28    20    14   ar
    29     9     1   ar
    30    29    22   ar
    31     9     5   ar
    32    12    13    1
@<TRIPOS>MOLECULE
*****
 29 32 0 0 0
SMALL
GASTEIGER

@<TRIPOS>ATOM
      1 C          -8.0082  -18.2895   22.9654 C.ar    1  UNL1        0.0926
      2 C          -7.1185  -19.1983   22.1701 C.ar    1  UNL1        0.0467
      3 C          -5.6633  -18.8719   22.0104 C.ar    1  UNL1        0.1648
      4 C          -5.0975  -17.6366   22.6461 C.ar    1  UNL1        0.1395
      5 N          -5.9872  -16.7278   23.4415 N.ar    1  UNL1       -0.2060
      6 N          -5.7153  -15.4496   24.1779 N.ar    1  UNL1       -0.1408
      7 C          -7.0026  -14.9861   24.7927 C.ar    1  UNL1        0.2213
      8 N          -8.0701  -15.9778   24.4362 N.ar    1  UNL1       -0.2033
      9 C          -7.4425  -17.0542   23.6011 C.ar    1  UNL1        0.1702
     10 O          -9.9574  -20.0024   22.8351 O.2     1  UNL1       -0.2697
     11 C          -9.4635  -18.6159   23.1251 C.2     1  UNL1        0.2536
     12 N         -10.4250  -17.5560   23.5746 N.am    1  UNL1       -0.2657
     13 H         -10.1009  -16.6461   23.7650 H       1  UNL1        0.1566
     14 C         -11.8803  -17.8826   23.7343 C.ar    1  UNL1        0.1345
     15 C         -12.8131  -17.7403   22.5682 C.ar    1  UNL1        0.0368
     16 C         -14.2684  -18.0668   22.7277 C.ar    1  UNL1        0.0341
     17 C         -14.7910  -18.5356   24.0533 C.ar    1  UNL1        0.1593
     18 F         -16.2462  -18.8621   24.2128 F       1  UNL1       -0.2025
     19 C         -13.8581  -18.6778   25.2194 C.ar    1  UNL1        0.1298
     20 N         -12.4029  -18.3513   25.0598 N.ar    1  UNL1       -0.2267
     21 O          -4.7736  -19.7808   21.2150 O.3     1  UNL1       -0.4503
     22 C          -3.4384  -19.2928   20.7364 C.ar    1  UNL1        0.1669
     23 C          -2.2261  -19.4523   21.6051 C.ar    1  UNL1        0.1388
     24 N          -0.8909  -18.9643   21.1265 N.ar    1  UNL1       -0.2113
     25 C          -0.7681  -18.3167   19.7791 C.ar    1  UNL1        0.2501
     26 F           0.5671  -17.8286   19.3003 F       1  UNL1       -0.1808
     27 C          -1.9804  -18.1571   18.9103 C.ar    1  UNL1        0.1888
     28 F          -1.8577  -17.5095   17.5628 F       1  UNL1       -0.2000
     29 C          -3.3156  -18.6452   19.3890 C.ar    1  UNL1        0.0727
@<TRIPOS>BOND
     1    10    11    2
     2    11    12   am
     3    12    14    1
     4    14    15   ar
     5    15    16   ar
     6    16    17   ar
     7    17    18    1
     8    17    19   ar
     9    19    20   ar
    10    11     1    1
    11     1     2   ar
    12     2     3   ar
    13     3    21    1
    14    21    22    1
    15    22    23   ar
    16    23    24   ar
    17    24    25   ar
    18    25    26    1
    19    25    27   ar
    20    27    28    1
    21    27    29   ar
    22     3     4   ar
    23     4     5   ar
    24     5     6   ar
    25     6     7   ar
    26     7     8   ar
    27     8     9   ar
    28    20    14   ar
    29     9     1   ar
    30    29    22   ar
    31     9     5   ar
    32    12    13    1
@<TRIPOS>MOLECULE
*****
 29 32 0 0 0
SMALL
GASTEIGER

@<TRIPOS>ATOM
      1 C          -6.9172  -16.0805   23.8932 C.ar    1  UNL1        0.0926
      2 C          -5.5747  -16.6059   23.4791 C.ar    1  UNL1        0.0467
      3 C          -4.5010  -16.8129   24.5059 C.ar    1  UNL1        0.1648
      4 C          -4.7699  -16.4945   25.9469 C.ar    1  UNL1        0.1395
      5 N          -6.1125  -15.9691   26.3610 N.ar    1  UNL1       -0.2060
      6 N          -6.6655  -15.5698   27.6969 N.ar    1  UNL1       -0.1408
      7 C          -8.0810  -15.1160   27.4957 C.ar    1  UNL1        0.2213
      8 N          -8.4028  -15.2349   26.0354 N.ar    1  UNL1       -0.2033
      9 C          -7.1861  -15.7621   25.3341 C.ar    1  UNL1        0.1702
     10 O          -7.7246  -15.0152   21.6653 O.2     1  UNL1       -0.2697
     11 C          -7.9909  -15.8736   22.8663 C.2     1  UNL1        0.2536
     12 N          -9.3308  -16.5249   23.0405 N.am    1  UNL1       -0.2657
     13 H          -9.5056  -17.0883   23.8287 H       1  UNL1        0.1566
     14 C         -10.4044  -16.3179   22.0135 C.ar    1  UNL1        0.1345
     15 C         -11.8343  -16.6192   22.3522 C.ar    1  UNL1        0.0368
     16 C         -12.9080  -16.4122   21.3254 C.ar    1  UNL1        0.0341
     17 C         -12.5518  -15.9039   19.9598 C.ar    1  UNL1        0.1593
     18 F         -13.6254  -15.6969   18.9330 F       1  UNL1       -0.2025
     19 C         -11.1218  -15.6026   19.6212 C.ar    1  UNL1        0.1298
     20 N         -10.0483  -15.8096   20.6480 N.ar    1  UNL1       -0.2267
     21 O          -3.1584  -17.3383   24.0917 O.3     1  UNL1       -0.4503
     22 C          -2.8944  -17.6710   22.6531 C.ar    1  UNL1        0.1669
     23 C          -2.2061  -16.6754   21.7671 C.ar    1  UNL1        0.1388
     24 N          -1.9421  -17.0082   20.3285 N.ar    1  UNL1       -0.2113
     25 C          -2.3664  -18.3365   19.7759 C.ar    1  UNL1        0.2501
     26 F          -2.1024  -18.6694   18.3373 F       1  UNL1       -0.1808
     27 C          -3.0547  -19.3321   20.6619 C.ar    1  UNL1        0.1888
     28 F          -3.4791  -20.6606   20.1094 F       1  UNL1       -0.2000
     29 C          -3.3187  -18.9994   22.1005 C.ar    1  UNL1        0.0727
@<TRIPOS>BOND
     1    10    11    2
     2    11    12   am
     3    12    14    1
     4    14    15   ar
     5    15    16   ar
     6    16    17   ar
     7    17    18    1
     8    17    19   ar
     9    19    20   ar
    10    11     1    1
    11     1     2   ar
    12     2     3   ar
    13     3    21    1
    14    21    22    1
    15    22    23   ar
    16    23    24   ar
    17    24    25   ar
    18    25    26    1
    19    25    27   ar
    20    27    28    1
    21    27    29   ar
    22     3     4   ar
    23     4     5   ar
    24     5     6   ar
    25     6     7   ar
    26     7     8   ar
    27     8     9   ar
    28    20    14   ar
    29     9     1   ar
    30    29    22   ar
    31     9     5   ar
    32    12    13    1
@<TRIPOS>MOLECULE
*****
 29 32 0 0 0
SMALL
GASTEIGER

@<TRIPOS>ATOM
      1 C           3.5323    0.4284   32.9433 C.ar    1  UNL1        0.0926
      2 C           3.6042    1.1046   34.2803 C.ar    1  UNL1        0.0467
      3 C           4.6558    0.6993   35.2700 C.ar    1  UNL1        0.1648
      4 C           5.6356   -0.3822   34.9229 C.ar    1  UNL1        0.1395
      5 N           5.5637   -1.0584   33.5859 N.ar    1  UNL1       -0.2060
      6 N           6.3871   -2.1487   32.9671 N.ar    1  UNL1       -0.1408
      7 C           5.8444   -2.4173   31.5947 C.ar    1  UNL1        0.2213
      8 N           4.6855   -1.4929   31.3655 N.ar    1  UNL1       -0.2033
      9 C           4.5120   -0.6531   32.5961 C.ar    1  UNL1        0.1702
     10 O           1.3335    1.6966   32.3890 O.2     1  UNL1       -0.2697
     11 C           2.4806    0.8337   31.9534 C.2     1  UNL1        0.2536
     12 N           2.5761    0.3762   30.5281 N.am    1  UNL1       -0.2657
     13 H           3.3289   -0.1901   30.2422 H       1  UNL1        0.1566
     14 C           1.5243    0.7816   29.5383 C.ar    1  UNL1        0.1345
     15 C           1.7070    2.0227   28.7161 C.ar    1  UNL1        0.0368
     16 C           0.6553    2.4282   27.7263 C.ar    1  UNL1        0.0341
     17 C          -0.5790    1.5924   27.5588 C.ar    1  UNL1        0.1593
     18 F          -1.6306    1.9978   26.5691 F       1  UNL1       -0.2025
     19 C          -0.7615    0.3512   28.3811 C.ar    1  UNL1        0.1298
     20 N           0.2901   -0.0542   29.3708 N.ar    1  UNL1       -0.2267
     21 O           4.7277    1.3756   36.6071 O.3     1  UNL1       -0.4503
     22 C           3.4672    1.6947   37.3550 C.ar    1  UNL1        0.1669
     23 C           2.7447    2.9826   37.0920 C.ar    1  UNL1        0.1388
     24 N           1.4842    3.3017   37.8399 N.ar    1  UNL1       -0.2113
     25 C           0.9462    2.3328   38.8507 C.ar    1  UNL1        0.2501
     26 F          -0.3144    2.6518   39.5986 F       1  UNL1       -0.1808
     27 C           1.6687    1.0449   39.1137 C.ar    1  UNL1        0.1888
     28 F           1.1307    0.0759   40.1246 F       1  UNL1       -0.2000
     29 C           2.9292    0.7258   38.3658 C.ar    1  UNL1        0.0727
@<TRIPOS>BOND
     1    10    11    2
     2    11    12   am
     3    12    14    1
     4    14    15   ar
     5    15    16   ar
     6    16    17   ar
     7    17    18    1
     8    17    19   ar
     9    19    20   ar
    10    11     1    1
    11     1     2   ar
    12     2     3   ar
    13     3    21    1
    14    21    22    1
    15    22    23   ar
    16    23    24   ar
    17    24    25   ar
    18    25    26    1
    19    25    27   ar
    20    27    28    1
    21    27    29   ar
    22     3     4   ar
    23     4     5   ar
    24     5     6   ar
    25     6     7   ar
    26     7     8   ar
    27     8     9   ar
    28    20    14   ar
    29     9     1   ar
    30    29    22   ar
    31     9     5   ar
    32    12    13    1
@<TRIPOS>MOLECULE
*****
 29 32 0 0 0
SMALL
GASTEIGER

@<TRIPOS>ATOM
      1 C           0.0662    2.3426   22.6042 C.ar    1  UNL1        0.0926
      2 C           0.2460    2.5805   24.0743 C.ar    1  UNL1        0.0467
      3 C          -0.8088    3.3119   24.8502 C.ar    1  UNL1        0.1648
      4 C          -2.0437    3.8055   24.1562 C.ar    1  UNL1        0.1395
      5 N          -2.2235    3.5676   22.6861 N.ar    1  UNL1       -0.2060
      6 N          -3.3263    3.9340   21.7377 N.ar    1  UNL1       -0.1408
      7 C          -2.9529    3.4290   20.3755 C.ar    1  UNL1        0.2213
      8 N          -1.6194    2.7505   20.4821 N.ar    1  UNL1       -0.2033
      9 C          -1.1686    2.8361   21.9102 C.ar    1  UNL1        0.1702
     10 O           2.5689    1.7911   22.1770 O.2     1  UNL1       -0.2697
     11 C           1.1211    1.6111   21.8283 C.2     1  UNL1        0.2536
     12 N           0.7283    0.6996   20.7036 N.am    1  UNL1       -0.2657
     13 H          -0.2219    0.5814   20.4747 H       1  UNL1        0.1566
     14 C           1.7833   -0.0318   19.9277 C.ar    1  UNL1        0.1345
     15 C           2.3856   -1.2888   20.4818 C.ar    1  UNL1        0.0368
     16 C           3.4406   -2.0203   19.7060 C.ar    1  UNL1        0.0341
     17 C           3.8933   -1.4948   18.3760 C.ar    1  UNL1        0.1593
     18 F           4.9482   -2.2262   17.6002 F       1  UNL1       -0.2025
     19 C           3.2909   -0.2377   17.8219 C.ar    1  UNL1        0.1298
     20 N           2.2359    0.4937   18.5977 N.ar    1  UNL1       -0.2267
     21 O          -0.6290    3.5498   26.3204 O.3     1  UNL1       -0.4503
     22 C          -0.0837    2.4602   27.1952 C.ar    1  UNL1        0.1669
     23 C           1.3422    2.5128   27.6580 C.ar    1  UNL1        0.1388
     24 N           1.8875    1.4232   28.5329 N.ar    1  UNL1       -0.2113
     25 C           1.0069    0.2810   28.9450 C.ar    1  UNL1        0.2501
     26 F           1.5522   -0.8087   29.8199 F       1  UNL1       -0.1808
     27 C          -0.4189    0.2283   28.4823 C.ar    1  UNL1        0.1888
     28 F          -1.2996   -0.9139   28.8944 F       1  UNL1       -0.2000
     29 C          -0.9642    1.3180   27.6074 C.ar    1  UNL1        0.0727
@<TRIPOS>BOND
     1    10    11    2
     2    11    12   am
     3    12    14    1
     4    14    15   ar
     5    15    16   ar
     6    16    17   ar
     7    17    18    1
     8    17    19   ar
     9    19    20   ar
    10    11     1    1
    11     1     2   ar
    12     2     3   ar
    13     3    21    1
    14    21    22    1
    15    22    23   ar
    16    23    24   ar
    17    24    25   ar
    18    25    26    1
    19    25    27   ar
    20    27    28    1
    21    27    29   ar
    22     3     4   ar
    23     4     5   ar
    24     5     6   ar
    25     6     7   ar
    26     7     8   ar
    27     8     9   ar
    28    20    14   ar
    29     9     1   ar
    30    29    22   ar
    31     9     5   ar
    32    12    13    1
@<TRIPOS>MOLECULE
*****
 29 32 0 0 0
SMALL
GASTEIGER

@<TRIPOS>ATOM
      1 C          -6.7206  -17.3716   23.1933 C.ar    1  UNL1        0.0926
      2 C          -5.6437  -18.2298   22.5985 C.ar    1  UNL1        0.0467
      3 C          -4.2411  -18.1443   23.1232 C.ar    1  UNL1        0.1648
      4 C          -3.9153  -17.2005   24.2427 C.ar    1  UNL1        0.1395
      5 N          -4.9922  -16.3423   24.8375 N.ar    1  UNL1       -0.2060
      6 N          -4.9712  -15.3265   25.9409 N.ar    1  UNL1       -0.1408
      7 C          -6.3609  -14.7841   26.0981 C.ar    1  UNL1        0.2213
      8 N          -7.2408  -15.4648   25.0919 N.ar    1  UNL1       -0.2033
      9 C          -6.3949  -16.4278   24.3127 C.ar    1  UNL1        0.1702
     10 O          -8.4057  -17.1447   21.2288 O.2     1  UNL1       -0.2697
     11 C          -8.1232  -17.4571   22.6685 C.2     1  UNL1        0.2536
     12 N          -9.2433  -17.8550   23.5834 N.am    1  UNL1       -0.2657
     13 H          -9.0579  -18.0601   24.5283 H       1  UNL1        0.1566
     14 C         -10.6459  -17.9405   23.0586 C.ar    1  UNL1        0.1345
     15 C         -11.7996  -18.0295   24.0130 C.ar    1  UNL1        0.0368
     16 C         -13.2023  -18.1150   23.4883 C.ar    1  UNL1        0.0341
     17 C         -13.4512  -18.1115   22.0091 C.ar    1  UNL1        0.1593
     18 F         -14.8537  -18.1970   21.4844 F       1  UNL1       -0.2025
     19 C         -12.2974  -18.0226   21.0547 C.ar    1  UNL1        0.1298
     20 N         -10.8948  -17.9371   21.5794 N.ar    1  UNL1       -0.2267
     21 O          -3.1642  -19.0025   22.5284 O.3     1  UNL1       -0.4503
     22 C          -2.6082  -18.6770   21.1738 C.ar    1  UNL1        0.1669
     23 C          -3.3815  -19.0358   19.9396 C.ar    1  UNL1        0.1388
     24 N          -2.8256  -18.7103   18.5851 N.ar    1  UNL1       -0.2113
     25 C          -1.4963  -18.0259   18.4646 C.ar    1  UNL1        0.2501
     26 F          -0.9402  -17.7003   17.1100 F       1  UNL1       -0.1808
     27 C          -0.7229  -17.6670   19.6988 C.ar    1  UNL1        0.1888
     28 F           0.6064  -16.9825   19.5785 F       1  UNL1       -0.2000
     29 C          -1.2789  -17.9926   21.0534 C.ar    1  UNL1        0.0727
@<TRIPOS>BOND
     1    10    11    2
     2    11    12   am
     3    12    14    1
     4    14    15   ar
     5    15    16   ar
     6    16    17   ar
     7    17    18    1
     8    17    19   ar
     9    19    20   ar
    10    11     1    1
    11     1     2   ar
    12     2     3   ar
    13     3    21    1
    14    21    22    1
    15    22    23   ar
    16    23    24   ar
    17    24    25   ar
    18    25    26    1
    19    25    27   ar
    20    27    28    1
    21    27    29   ar
    22     3     4   ar
    23     4     5   ar
    24     5     6   ar
    25     6     7   ar
    26     7     8   ar
    27     8     9   ar
    28    20    14   ar
    29     9     1   ar
    30    29    22   ar
    31     9     5   ar
    32    12    13    1
@<TRIPOS>MOLECULE
*****
 29 32 0 0 0
SMALL
GASTEIGER

@<TRIPOS>ATOM
      1 C           4.9478   -2.2620   24.5489 C.ar    1  UNL1        0.0926
      2 C           4.4390   -2.7694   23.2322 C.ar    1  UNL1        0.0467
      3 C           5.2937   -3.6759   22.3969 C.ar    1  UNL1        0.1648
      4 C           6.6572   -4.0750   22.8783 C.ar    1  UNL1        0.1395
      5 N           7.1659   -3.5675   24.1950 N.ar    1  UNL1       -0.2060
      6 N           8.4581   -3.7882   24.9241 N.ar    1  UNL1       -0.1408
      7 C           8.4019   -3.0180   26.2101 C.ar    1  UNL1        0.2213
      8 N           7.0751   -2.3214   26.2757 N.ar    1  UNL1       -0.2033
      9 C           6.3112   -2.6610   25.0303 C.ar    1  UNL1        0.1702
     10 O           3.0307   -0.5183   24.7354 O.2     1  UNL1       -0.2697
     11 C           4.0930   -1.3555   25.3842 C.2     1  UNL1        0.2536
     12 N           4.3006   -1.2860   26.8681 N.am    1  UNL1       -0.2657
     13 H           4.9979   -1.8354   27.2939 H       1  UNL1        0.1566
     14 C           3.4458   -0.3795   27.7033 C.ar    1  UNL1        0.1345
     15 C           3.7243    1.0941   27.7358 C.ar    1  UNL1        0.0368
     16 C           2.8696    2.0007   28.5709 C.ar    1  UNL1        0.0341
     17 C           1.7364    1.4338   29.3737 C.ar    1  UNL1        0.1593
     18 F           0.8817    2.3403   30.2088 F       1  UNL1       -0.2025
     19 C           1.4580   -0.0399   29.3412 C.ar    1  UNL1        0.1298
     20 N           2.3126   -0.9464   28.5060 N.ar    1  UNL1       -0.2267
     21 O           4.7849   -4.1834   21.0802 O.3     1  UNL1       -0.4503
     22 C           4.6674   -3.2503   19.9116 C.ar    1  UNL1        0.1669
     23 C           5.6630   -3.3215   18.7919 C.ar    1  UNL1        0.1388
     24 N           5.5454   -2.3884   17.6233 N.ar    1  UNL1       -0.2113
     25 C           4.4323   -1.3842   17.5744 C.ar    1  UNL1        0.2501
     26 F           4.3147   -0.4511   16.4058 F       1  UNL1       -0.1808
     27 C           3.4368   -1.3130   18.6941 C.ar    1  UNL1        0.1888
     28 F           2.3235   -0.3087   18.6453 F       1  UNL1       -0.2000
     29 C           3.5543   -2.2460   19.8627 C.ar    1  UNL1        0.0727
@<TRIPOS>BOND
     1    10    11    2
     2    11    12   am
     3    12    14    1
     4    14    15   ar
     5    15    16   ar
     6    16    17   ar
     7    17    18    1
     8    17    19   ar
     9    19    20   ar
    10    11     1    1
    11     1     2   ar
    12     2     3   ar
    13     3    21    1
    14    21    22    1
    15    22    23   ar
    16    23    24   ar
    17    24    25   ar
    18    25    26    1
    19    25    27   ar
    20    27    28    1
    21    27    29   ar
    22     3     4   ar
    23     4     5   ar
    24     5     6   ar
    25     6     7   ar
    26     7     8   ar
    27     8     9   ar
    28    20    14   ar
    29     9     1   ar
    30    29    22   ar
    31     9     5   ar
    32    12    13    1
@<TRIPOS>MOLECULE
*****
 29 32 0 0 0
SMALL
GASTEIGER

@<TRIPOS>ATOM
      1 C           1.3565    0.8321   22.5130 C.ar    1  UNL1        0.0926
      2 C           2.5998    0.1100   22.0854 C.ar    1  UNL1        0.0467
      3 C           3.5941   -0.3442   23.1124 C.ar    1  UNL1        0.1648
      4 C           3.3452   -0.0762   24.5672 C.ar    1  UNL1        0.1395
      5 N           2.1020    0.6459   24.9948 N.ar    1  UNL1       -0.2060
      6 N           1.5899    1.0491   26.3458 N.ar    1  UNL1       -0.1408
      7 C           0.2791    1.7525   26.1536 C.ar    1  UNL1        0.2213
      8 N          -0.0190    1.7840   24.6839 N.ar    1  UNL1       -0.2033
      9 C           1.1076    1.1000   23.9677 C.ar    1  UNL1        0.1702
     10 O          -0.1053    0.3364   20.4230 O.2     1  UNL1       -0.2697
     11 C           0.3621    1.2863   21.4858 C.2     1  UNL1        0.2536
     12 N          -0.1649    2.6902   21.5215 N.am    1  UNL1       -0.2657
     13 H           0.1419    3.3136   22.2190 H       1  UNL1        0.1566
     14 C          -1.1592    3.1443   20.4943 C.ar    1  UNL1        0.1345
     15 C          -2.6167    3.2156   20.8416 C.ar    1  UNL1        0.0368
     16 C          -3.6111    3.6697   19.8145 C.ar    1  UNL1        0.0341
     17 C          -3.1481    4.0524   18.4401 C.ar    1  UNL1        0.1593
     18 F          -4.1424    4.5064   17.4130 F       1  UNL1       -0.2025
     19 C          -1.6905    3.9810   18.0928 C.ar    1  UNL1        0.1298
     20 N          -0.6962    3.5270   19.1199 N.ar    1  UNL1       -0.2267
     21 O           4.8374   -1.0663   22.6848 O.3     1  UNL1       -0.4503
     22 C           4.7587   -2.1431   21.6434 C.ar    1  UNL1        0.1669
     23 C           4.5058   -3.5641   22.0516 C.ar    1  UNL1        0.1388
     24 N           4.4271   -4.6409   21.0102 N.ar    1  UNL1       -0.2113
     25 C           4.6013   -4.2966   19.5607 C.ar    1  UNL1        0.2501
     26 F           4.5226   -5.3733   18.5193 F       1  UNL1       -0.1808
     27 C           4.8542   -2.8755   19.1526 C.ar    1  UNL1        0.1888
     28 F           5.0284   -2.5311   17.7030 F       1  UNL1       -0.2000
     29 C           4.9329   -1.7988   20.1939 C.ar    1  UNL1        0.0727
@<TRIPOS>BOND
     1    10    11    2
     2    11    12   am
     3    12    14    1
     4    14    15   ar
     5    15    16   ar
     6    16    17   ar
     7    17    18    1
     8    17    19   ar
     9    19    20   ar
    10    11     1    1
    11     1     2   ar
    12     2     3   ar
    13     3    21    1
    14    21    22    1
    15    22    23   ar
    16    23    24   ar
    17    24    25   ar
    18    25    26    1
    19    25    27   ar
    20    27    28    1
    21    27    29   ar
    22     3     4   ar
    23     4     5   ar
    24     5     6   ar
    25     6     7   ar
    26     7     8   ar
    27     8     9   ar
    28    20    14   ar
    29     9     1   ar
    30    29    22   ar
    31     9     5   ar
    32    12    13    1
