@<TRIPOS>MOLECULE
*****
 36 40 0 0 0
SMALL
GASTEIGER

@<TRIPOS>ATOM
      1 C         -10.4116  -17.5810   20.2228 C.3     1  UNL1        0.2634
      2 O         -10.6937  -18.7704   19.3534 O.3     1  UNL1       -0.3272
      3 C          -9.6427  -19.8225   19.1577 C.3     1  UNL1        0.1630
      4 C          -8.3095  -19.6853   19.8314 C.3     1  UNL1        0.1144
      5 C          -8.0274  -18.4960   20.7008 C.3     1  UNL1        0.1630
      6 O          -9.0785  -17.4438   20.8965 O.3     1  UNL1       -0.3272
      7 C         -11.4626  -16.5289   20.4185 C.3     1  UNL1        0.1712
      8 O         -12.1507  -15.9259   19.2298 O.3     1  UNL1       -0.3791
      9 H         -12.7967  -15.2674   19.5298 H       1  UNL1        0.2106
     10 C         -11.8256  -16.0798   21.8029 C.3     1  UNL1        0.0647
     11 C          -8.2501  -15.8210   24.5229 C.ar    1  UNL1        0.2250
     12 C          -8.1164  -16.7685   25.6780 C.ar    1  UNL1        0.0593
     13 C          -9.1745  -17.8023   25.9264 C.ar    1  UNL1        0.0254
     14 C         -10.3663  -17.8885   25.0198 C.ar    1  UNL1        0.0990
     15 N         -11.4244  -18.9223   25.2682 N.ar    1  UNL1       -0.2400
     16 C         -12.6162  -19.0086   24.3616 C.ar    1  UNL1        0.1281
     17 C         -12.7500  -18.0610   23.2064 C.ar    1  UNL1        0.1567
     18 F         -13.9418  -18.1473   22.2998 F       1  UNL1       -0.2028
     19 C         -11.6919  -17.0273   22.9580 C.ar    1  UNL1        0.0286
     20 C         -10.5000  -16.9410   23.8647 C.ar    1  UNL1        0.1002
     21 N          -9.4419  -15.9072   23.6162 N.ar    1  UNL1       -0.2104
     22 C          -5.7833  -15.2112   23.9814 C.3     1  UNL1        0.2542
     23 O          -7.1920  -14.7872   24.2744 O.3     1  UNL1       -0.4561
     24 N          -7.2585  -20.7374   19.6357 N.3     1  UNL1       -0.2894
     25 H          -6.7246  -20.4701   18.8087 H       1  UNL1        0.1237
     26 C          -6.2629  -21.0144   20.7229 C.3     1  UNL1        0.1171
     27 C          -5.1541  -20.0403   20.9904 C.ar    1  UNL1        0.0972
     28 C          -4.1956  -19.6757   19.8957 C.ar    1  UNL1        0.0288
     29 C          -3.0868  -18.7016   20.1633 C.ar    1  UNL1        0.0814
     30 C          -2.9364  -18.0921   21.5255 C.ar    1  UNL1        0.2495
     31 N          -3.8948  -18.4566   22.6203 N.ar    1  UNL1       -0.1100
     32 N          -5.0036  -19.4307   22.3528 N.ar    1  UNL1       -0.1480
     33 O          -1.8275  -17.1179   21.7931 O.3     1  UNL1       -0.4580
     34 C          -0.8691  -16.7533   20.6984 C.3     1  UNL1        0.2191
     35 C          -1.0195  -17.3629   19.3360 C.3     1  UNL1        0.1096
     36 S          -2.1283  -18.3370   19.0685 S.3     1  UNL1       -0.1051
@<TRIPOS>BOND
     1    22    23    1
     2    23    11    1
     3    11    12   ar
     4    12    13   ar
     5    13    14   ar
     6    14    15   ar
     7    15    16   ar
     8    16    17   ar
     9    17    18    1
    10    17    19   ar
    11    19    10    1
    12    10     7    1
    13     7     8    1
    14     7     1    1
    15     1     2    1
    16     2     3    1
    17     3     4    1
    18     4    24    1
    19    24    26    1
    20    26    27    1
    21    27    28   ar
    22    28    29   ar
    23    29    30   ar
    24    30    31   ar
    25    31    32   ar
    26    30    33    1
    27    33    34    1
    28    34    35    1
    29    35    36    1
    30     4     5    1
    31     5     6    1
    32    19    20   ar
    33    20    21   ar
    34    21    11   ar
    35    20    14   ar
    36     6     1    1
    37    32    27   ar
    38    36    29    1
    39     8     9    1
    40    24    25    1
@<TRIPOS>MOLECULE
*****
 36 40 0 0 0
SMALL
GASTEIGER

@<TRIPOS>ATOM
      1 C           7.4908   -5.9901   27.4921 C.3     1  UNL1        0.2634
      2 O           8.4759   -6.6043   28.4420 O.3     1  UNL1       -0.3272
      3 C           8.7291   -8.0824   28.4081 C.3     1  UNL1        0.1630
      4 C           7.9971   -8.9463   27.4242 C.3     1  UNL1        0.1144
      5 C           7.0120   -8.3321   26.4743 C.3     1  UNL1        0.1630
      6 O           6.7588   -6.8539   26.5083 O.3     1  UNL1       -0.3272
      7 C           7.2377   -4.5120   27.5261 C.3     1  UNL1        0.1712
      8 O           6.6167   -3.8851   28.7391 O.3     1  UNL1       -0.3791
      9 H           6.5232   -2.9301   28.5975 H       1  UNL1        0.2106
     10 C           7.6055   -3.6608   26.3470 C.3     1  UNL1        0.0647
     11 C           4.6107   -0.3981   27.1444 C.ar    1  UNL1        0.2250
     12 C           3.5768   -0.0603   26.1115 C.ar    1  UNL1        0.0593
     13 C           3.5411   -0.8101   24.8128 C.ar    1  UNL1        0.0254
     14 C           4.5393   -1.8977   24.5470 C.ar    1  UNL1        0.0990
     15 N           4.5036   -2.6475   23.2484 N.ar    1  UNL1       -0.2400
     16 C           5.5018   -3.7350   22.9826 C.ar    1  UNL1        0.1281
     17 C           6.5359   -4.0729   24.0155 C.ar    1  UNL1        0.1567
     18 F           7.5341   -5.1604   23.7497 F       1  UNL1       -0.2028
     19 C           6.5716   -3.3231   25.3141 C.ar    1  UNL1        0.0286
     20 C           5.5732   -2.2354   25.5799 C.ar    1  UNL1        0.1002
     21 N           5.6090   -1.4856   26.8786 N.ar    1  UNL1       -0.2104
     22 C           4.9824   -0.3678   29.7155 C.3     1  UNL1        0.2542
     23 O           4.6464    0.3517   28.4430 O.3     1  UNL1       -0.4561
     24 N           8.2502  -10.4244   27.3902 N.3     1  UNL1       -0.2894
     25 H           9.2586  -10.5524   27.4744 H       1  UNL1        0.1237
     26 C           7.6134  -11.3181   28.4129 C.3     1  UNL1        0.1171
     27 C           6.3823  -12.1002   28.0628 C.ar    1  UNL1        0.0972
     28 C           5.1407  -11.9553   28.8919 C.ar    1  UNL1        0.0288
     29 C           3.9095  -12.7375   28.5418 C.ar    1  UNL1        0.0814
     30 C           3.9200  -13.6645   27.3626 C.ar    1  UNL1        0.2495
     31 N           5.1616  -13.8094   26.5335 N.ar    1  UNL1       -0.1100
     32 N           6.3927  -13.0273   26.8836 N.ar    1  UNL1       -0.1480
     33 O           2.6889  -14.4467   27.0125 O.3     1  UNL1       -0.4580
     34 C           1.4473  -14.3019   27.8417 C.3     1  UNL1        0.2191
     35 C           1.4368  -13.3748   29.0209 C.3     1  UNL1        0.1096
     36 S           2.6679  -12.5927   29.3710 S.3     1  UNL1       -0.1051
@<TRIPOS>BOND
     1    22    23    1
     2    23    11    1
     3    11    12   ar
     4    12    13   ar
     5    13    14   ar
     6    14    15   ar
     7    15    16   ar
     8    16    17   ar
     9    17    18    1
    10    17    19   ar
    11    19    10    1
    12    10     7    1
    13     7     8    1
    14     7     1    1
    15     1     2    1
    16     2     3    1
    17     3     4    1
    18     4    24    1
    19    24    26    1
    20    26    27    1
    21    27    28   ar
    22    28    29   ar
    23    29    30   ar
    24    30    31   ar
    25    31    32   ar
    26    30    33    1
    27    33    34    1
    28    34    35    1
    29    35    36    1
    30     4     5    1
    31     5     6    1
    32    19    20   ar
    33    20    21   ar
    34    21    11   ar
    35    20    14   ar
    36     6     1    1
    37    32    27   ar
    38    36    29    1
    39     8     9    1
    40    24    25    1
@<TRIPOS>MOLECULE
*****
 36 40 0 0 0
SMALL
GASTEIGER

@<TRIPOS>ATOM
      1 C           2.6971    0.5510   31.0106 C.3     1  UNL1        0.2634
      2 O           1.4974    0.2208   30.1728 O.3     1  UNL1       -0.3272
      3 C           1.6668   -0.5192   28.8791 C.3     1  UNL1        0.1630
      4 C           3.0358   -0.9289   28.4231 C.3     1  UNL1        0.1144
      5 C           4.2355   -0.5986   29.2608 C.3     1  UNL1        0.1630
      6 O           4.0661    0.1413   30.5546 O.3     1  UNL1       -0.3272
      7 C           2.5277    1.2910   32.3043 C.3     1  UNL1        0.1712
      8 O           1.1534    1.6331   32.7983 O.3     1  UNL1       -0.3791
      9 H           1.2217    2.1074   33.6417 H       1  UNL1        0.2106
     10 C           3.7328    1.6888   33.1041 C.3     1  UNL1        0.0647
     11 C           1.5961    4.3458   36.0409 C.ar    1  UNL1        0.2250
     12 C           1.6559    4.0419   37.5085 C.ar    1  UNL1        0.0593
     13 C           2.4280    2.8523   37.9973 C.ar    1  UNL1        0.0254
     14 C           3.1402    1.9667   37.0184 C.ar    1  UNL1        0.0990
     15 N           3.9123    0.7771   37.5071 N.ar    1  UNL1       -0.2400
     16 C           4.6245   -0.1085   36.5282 C.ar    1  UNL1        0.1281
     17 C           4.5647    0.1953   35.0605 C.ar    1  UNL1        0.1567
     18 F           5.2770   -0.6903   34.0816 F       1  UNL1       -0.2028
     19 C           3.7926    1.3849   34.5717 C.ar    1  UNL1        0.0286
     20 C           3.0804    2.2706   35.5507 C.ar    1  UNL1        0.1002
     21 N           2.3083    3.4601   35.0620 N.ar    1  UNL1       -0.2104
     22 C           0.2773    5.5524   34.1555 C.3     1  UNL1        0.2542
     23 O           0.8240    5.5353   35.5521 O.3     1  UNL1       -0.4561
     24 N           3.2052   -1.6688   27.1293 N.3     1  UNL1       -0.2894
     25 H           2.2988   -1.6555   26.6617 H       1  UNL1        0.1237
     26 C           4.2173   -1.2023   26.1254 C.3     1  UNL1        0.1171
     27 C           3.9264   -1.3166   24.6584 C.ar    1  UNL1        0.0972
     28 C           4.5741   -2.3997   23.8475 C.ar    1  UNL1        0.0288
     29 C           4.2832   -2.5140   22.3804 C.ar    1  UNL1        0.0814
     30 C           3.3446   -1.5453   21.7242 C.ar    1  UNL1        0.2495
     31 N           2.6968   -0.4623   22.5351 N.ar    1  UNL1       -0.1100
     32 N           2.9878   -0.3479   24.0021 N.ar    1  UNL1       -0.1480
     33 O           3.0536   -1.6596   20.2571 O.3     1  UNL1       -0.4580
     34 C           3.7013   -2.7426   19.4462 C.3     1  UNL1        0.2191
     35 C           4.6400   -3.7113   20.1025 C.3     1  UNL1        0.1096
     36 S           4.9309   -3.5970   21.5695 S.3     1  UNL1       -0.1051
@<TRIPOS>BOND
     1    22    23    1
     2    23    11    1
     3    11    12   ar
     4    12    13   ar
     5    13    14   ar
     6    14    15   ar
     7    15    16   ar
     8    16    17   ar
     9    17    18    1
    10    17    19   ar
    11    19    10    1
    12    10     7    1
    13     7     8    1
    14     7     1    1
    15     1     2    1
    16     2     3    1
    17     3     4    1
    18     4    24    1
    19    24    26    1
    20    26    27    1
    21    27    28   ar
    22    28    29   ar
    23    29    30   ar
    24    30    31   ar
    25    31    32   ar
    26    30    33    1
    27    33    34    1
    28    34    35    1
    29    35    36    1
    30     4     5    1
    31     5     6    1
    32    19    20   ar
    33    20    21   ar
    34    21    11   ar
    35    20    14   ar
    36     6     1    1
    37    32    27   ar
    38    36    29    1
    39     8     9    1
    40    24    25    1
@<TRIPOS>MOLECULE
*****
 36 40 0 0 0
SMALL
GASTEIGER

@<TRIPOS>ATOM
      1 C           8.0853   -5.7654   27.9310 C.3     1  UNL1        0.2634
      2 O           7.1626   -6.3330   26.8935 O.3     1  UNL1       -0.3272
      3 C           7.0972   -7.8161   26.6788 C.3     1  UNL1        0.1630
      4 C           7.9545   -8.7316   27.5017 C.3     1  UNL1        0.1144
      5 C           8.8772   -8.1640   28.5392 C.3     1  UNL1        0.1630
      6 O           8.9426   -6.6808   28.7539 O.3     1  UNL1       -0.3272
      7 C           8.1507   -4.2823   28.1457 C.3     1  UNL1        0.1712
      8 O           8.1850   -3.7269   29.5387 O.3     1  UNL1       -0.3791
      9 H           8.2264   -2.7585   29.4998 H       1  UNL1        0.2106
     10 C           8.1819   -3.3545   26.9674 C.3     1  UNL1        0.0647
     11 C           6.8333   -4.3513   22.7916 C.ar    1  UNL1        0.2250
     12 C           5.5561   -3.7735   22.2580 C.ar    1  UNL1        0.0593
     13 C           4.7284   -2.8634   23.1162 C.ar    1  UNL1        0.0254
     14 C           5.1779   -2.5311   24.5082 C.ar    1  UNL1        0.0990
     15 N           4.3502   -1.6211   25.3665 N.ar    1  UNL1       -0.2400
     16 C           4.7997   -1.2888   26.7584 C.ar    1  UNL1        0.1281
     17 C           6.0770   -1.8666   27.2921 C.ar    1  UNL1        0.1567
     18 F           6.5265   -1.5344   28.6840 F       1  UNL1       -0.2028
     19 C           6.9047   -2.7767   26.4338 C.ar    1  UNL1        0.0286
     20 C           6.4551   -3.1089   25.0418 C.ar    1  UNL1        0.1002
     21 N           7.2829   -4.0190   24.1835 N.ar    1  UNL1       -0.2104
     22 C           9.1403   -5.3651   22.1590 C.3     1  UNL1        0.2542
     23 O           7.6611   -5.2614   21.9333 O.3     1  UNL1       -0.4561
     24 N           7.8890  -10.2147   27.2870 N.3     1  UNL1       -0.2894
     25 H           8.8427  -10.5285   27.1068 H       1  UNL1        0.1237
     26 C           7.3361  -11.1043   28.3607 C.3     1  UNL1        0.1171
     27 C           6.1687  -11.9988   28.0661 C.ar    1  UNL1        0.0972
     28 C           4.9168  -11.8925   28.8856 C.ar    1  UNL1        0.0288
     29 C           3.7493  -12.7871   28.5910 C.ar    1  UNL1        0.0814
     30 C           3.8337  -13.7880   27.4769 C.ar    1  UNL1        0.2495
     31 N           5.0856  -13.8943   26.6575 N.ar    1  UNL1       -0.1100
     32 N           6.2530  -12.9997   26.9520 N.ar    1  UNL1       -0.1480
     33 O           2.6662  -14.6826   27.1823 O.3     1  UNL1       -0.4580
     34 C           1.4144  -14.5763   28.0018 C.3     1  UNL1        0.2191
     35 C           1.3300  -13.5754   29.1159 C.3     1  UNL1        0.1096
     36 S           2.4975  -12.6808   29.4105 S.3     1  UNL1       -0.1051
@<TRIPOS>BOND
     1    22    23    1
     2    23    11    1
     3    11    12   ar
     4    12    13   ar
     5    13    14   ar
     6    14    15   ar
     7    15    16   ar
     8    16    17   ar
     9    17    18    1
    10    17    19   ar
    11    19    10    1
    12    10     7    1
    13     7     8    1
    14     7     1    1
    15     1     2    1
    16     2     3    1
    17     3     4    1
    18     4    24    1
    19    24    26    1
    20    26    27    1
    21    27    28   ar
    22    28    29   ar
    23    29    30   ar
    24    30    31   ar
    25    31    32   ar
    26    30    33    1
    27    33    34    1
    28    34    35    1
    29    35    36    1
    30     4     5    1
    31     5     6    1
    32    19    20   ar
    33    20    21   ar
    34    21    11   ar
    35    20    14   ar
    36     6     1    1
    37    32    27   ar
    38    36    29    1
    39     8     9    1
    40    24    25    1
@<TRIPOS>MOLECULE
*****
 36 40 0 0 0
SMALL
GASTEIGER

@<TRIPOS>ATOM
      1 C           5.3982   -2.6276   21.5994 C.3     1  UNL1        0.2634
      2 O           6.3788   -1.9604   20.6811 O.3     1  UNL1       -0.3272
      3 C           6.0375   -1.7646   19.2337 C.3     1  UNL1        0.1630
      4 C           4.7155   -2.2361   18.7044 C.3     1  UNL1        0.1144
      5 C           3.7348   -2.9032   19.6227 C.3     1  UNL1        0.1630
      6 O           4.0762   -3.0990   21.0702 O.3     1  UNL1       -0.3272
      7 C           5.7395   -2.8233   23.0468 C.3     1  UNL1        0.1712
      8 O           4.6656   -2.7295   24.0900 O.3     1  UNL1       -0.3791
      9 H           5.0525   -2.8801   24.9666 H       1  UNL1        0.2106
     10 C           7.1547   -3.1129   23.4512 C.3     1  UNL1        0.0647
     11 C           6.7280   -5.9314   26.9332 C.ar    1  UNL1        0.2250
     12 C           7.2645   -7.3288   26.8370 C.ar    1  UNL1        0.0593
     13 C           7.9432   -7.7867   25.5802 C.ar    1  UNL1        0.0254
     14 C           8.0855   -6.8473   24.4196 C.ar    1  UNL1        0.0990
     15 N           8.7642   -7.3052   23.1628 N.ar    1  UNL1       -0.2400
     16 C           8.9065   -6.3658   22.0021 C.ar    1  UNL1        0.1281
     17 C           8.3699   -4.9683   22.0982 C.ar    1  UNL1        0.1567
     18 F           8.5122   -4.0288   20.9376 F       1  UNL1       -0.2028
     19 C           7.6912   -4.5103   23.3550 C.ar    1  UNL1        0.0286
     20 C           7.5490   -5.4498   24.5157 C.ar    1  UNL1        0.1002
     21 N           6.8702   -4.9919   25.7725 N.ar    1  UNL1       -0.2104
     22 C           6.7713   -5.5488   29.5025 C.3     1  UNL1        0.2542
     23 O           6.0492   -5.4734   28.1900 O.3     1  UNL1       -0.4561
     24 N           4.3742   -2.0403   17.2570 N.3     1  UNL1       -0.2894
     25 H           3.7876   -2.8287   16.9835 H       1  UNL1        0.1237
     26 C           3.6609   -0.7965   16.8161 C.3     1  UNL1        0.1171
     27 C           3.3106    0.2625   17.8189 C.ar    1  UNL1        0.0972
     28 C           1.9709    0.2429   18.4935 C.ar    1  UNL1        0.0288
     29 C           1.6206    1.3020   19.4963 C.ar    1  UNL1        0.0814
     30 C           2.6099    2.3807   19.8246 C.ar    1  UNL1        0.2495
     31 N           3.9495    2.4002   19.1501 N.ar    1  UNL1       -0.1100
     32 N           4.2999    1.3412   18.1473 N.ar    1  UNL1       -0.1480
     33 O           2.2596    3.4398   20.8274 O.3     1  UNL1       -0.4580
     34 C           0.9199    3.4202   21.5019 C.3     1  UNL1        0.2191
     35 C          -0.0694    2.3415   21.1736 C.3     1  UNL1        0.1096
     36 S           0.2809    1.2825   20.1708 S.3     1  UNL1       -0.1051
@<TRIPOS>BOND
     1    22    23    1
     2    23    11    1
     3    11    12   ar
     4    12    13   ar
     5    13    14   ar
     6    14    15   ar
     7    15    16   ar
     8    16    17   ar
     9    17    18    1
    10    17    19   ar
    11    19    10    1
    12    10     7    1
    13     7     8    1
    14     7     1    1
    15     1     2    1
    16     2     3    1
    17     3     4    1
    18     4    24    1
    19    24    26    1
    20    26    27    1
    21    27    28   ar
    22    28    29   ar
    23    29    30   ar
    24    30    31   ar
    25    31    32   ar
    26    30    33    1
    27    33    34    1
    28    34    35    1
    29    35    36    1
    30     4     5    1
    31     5     6    1
    32    19    20   ar
    33    20    21   ar
    34    21    11   ar
    35    20    14   ar
    36     6     1    1
    37    32    27   ar
    38    36    29    1
    39     8     9    1
    40    24    25    1
@<TRIPOS>MOLECULE
*****
 36 40 0 0 0
SMALL
GASTEIGER

@<TRIPOS>ATOM
      1 C           4.4435   -3.1379   20.4356 C.3     1  UNL1        0.2634
      2 O           5.2708   -4.0685   21.2719 O.3     1  UNL1       -0.3272
      3 C           5.4030   -3.8338   22.7475 C.3     1  UNL1        0.1630
      4 C           4.7079   -2.6684   23.3868 C.3     1  UNL1        0.1144
      5 C           3.8806   -1.7377   22.5505 C.3     1  UNL1        0.1630
      6 O           3.7484   -1.9725   21.0748 O.3     1  UNL1       -0.3272
      7 C           4.3113   -3.3726   18.9600 C.3     1  UNL1        0.1712
      8 O           4.5556   -4.7397   18.3932 O.3     1  UNL1       -0.3791
      9 H           4.4292   -4.7184   17.4317 H       1  UNL1        0.2106
     10 C           3.9348   -2.2402   18.0512 C.3     1  UNL1        0.0647
     11 C           2.0293    1.8150   18.4692 C.ar    1  UNL1        0.2250
     12 C           2.8777    3.0510   18.4199 C.ar    1  UNL1        0.0593
     13 C           4.3613    2.9353   18.2313 C.ar    1  UNL1        0.0254
     14 C           4.9965    1.5836   18.0920 C.ar    1  UNL1        0.0990
     15 N           6.4801    1.4679   17.9034 N.ar    1  UNL1       -0.2400
     16 C           7.1153    0.1162   17.7640 C.ar    1  UNL1        0.1281
     17 C           6.2668   -1.1199   17.8133 C.ar    1  UNL1        0.1567
     18 F           6.9020   -2.4715   17.6740 F       1  UNL1       -0.2028
     19 C           4.7833   -1.0042   18.0019 C.ar    1  UNL1        0.0286
     20 C           4.1481    0.3476   18.1412 C.ar    1  UNL1        0.1002
     21 N           2.6645    0.4633   18.3298 N.ar    1  UNL1       -0.2104
     22 C          -0.0073    2.8415   19.7134 C.3     1  UNL1        0.2542
     23 O           0.5457    1.9307   18.6578 O.3     1  UNL1       -0.4561
     24 N           4.8401   -2.4336   24.8624 N.3     1  UNL1       -0.2894
     25 H           4.2539   -3.1286   25.3248 H       1  UNL1        0.1237
     26 C           6.1891   -2.5019   25.5148 C.3     1  UNL1        0.1171
     27 C           6.4159   -3.4271   26.6735 C.ar    1  UNL1        0.0972
     28 C           6.3857   -2.8947   28.0755 C.ar    1  UNL1        0.0288
     29 C           6.6125   -3.8200   29.2342 C.ar    1  UNL1        0.0814
     30 C           6.8695   -5.2776   28.9908 C.ar    1  UNL1        0.2495
     31 N           6.8997   -5.8100   27.5888 N.ar    1  UNL1       -0.1100
     32 N           6.6729   -4.8848   26.4301 N.ar    1  UNL1       -0.1480
     33 O           7.0963   -6.2029   30.1495 O.3     1  UNL1       -0.4580
     34 C           7.0661   -5.6704   31.5515 C.3     1  UNL1        0.2191
     35 C           6.8091   -4.2127   31.7948 C.3     1  UNL1        0.1096
     36 S           6.5823   -3.2875   30.6362 S.3     1  UNL1       -0.1051
@<TRIPOS>BOND
     1    22    23    1
     2    23    11    1
     3    11    12   ar
     4    12    13   ar
     5    13    14   ar
     6    14    15   ar
     7    15    16   ar
     8    16    17   ar
     9    17    18    1
    10    17    19   ar
    11    19    10    1
    12    10     7    1
    13     7     8    1
    14     7     1    1
    15     1     2    1
    16     2     3    1
    17     3     4    1
    18     4    24    1
    19    24    26    1
    20    26    27    1
    21    27    28   ar
    22    28    29   ar
    23    29    30   ar
    24    30    31   ar
    25    31    32   ar
    26    30    33    1
    27    33    34    1
    28    34    35    1
    29    35    36    1
    30     4     5    1
    31     5     6    1
    32    19    20   ar
    33    20    21   ar
    34    21    11   ar
    35    20    14   ar
    36     6     1    1
    37    32    27   ar
    38    36    29    1
    39     8     9    1
    40    24    25    1
@<TRIPOS>MOLECULE
*****
 36 40 0 0 0
SMALL
GASTEIGER

@<TRIPOS>ATOM
      1 C           4.5873   -3.5160   21.4426 C.3     1  UNL1        0.2634
      2 O           3.8333   -2.3956   22.0954 O.3     1  UNL1       -0.3272
      3 C           4.1732   -1.9787   23.4956 C.3     1  UNL1        0.1630
      4 C           5.2671   -2.6821   24.2430 C.3     1  UNL1        0.1144
      5 C           6.0211   -3.8025   23.5902 C.3     1  UNL1        0.1630
      6 O           5.6812   -4.2195   22.1899 O.3     1  UNL1       -0.3272
      7 C           4.2474   -3.9330   20.0424 C.3     1  UNL1        0.1712
      8 O           4.7223   -5.2554   19.5175 O.3     1  UNL1       -0.3791
      9 H           4.4182   -5.3685   18.6033 H       1  UNL1        0.2106
     10 C           3.4325   -3.0274   19.1671 C.3     1  UNL1        0.0647
     11 C           1.2148    0.8550   19.6754 C.ar    1  UNL1        0.2250
     12 C           1.8087    2.1313   19.1577 C.ar    1  UNL1        0.0593
     13 C           3.1419    2.1135   18.4704 C.ar    1  UNL1        0.0254
     14 C           3.8812    0.8194   18.3010 C.ar    1  UNL1        0.0990
     15 N           5.2143    0.8017   17.6137 N.ar    1  UNL1       -0.2400
     16 C           5.9536   -0.4924   17.4443 C.ar    1  UNL1        0.1281
     17 C           5.3597   -1.7689   17.9621 C.ar    1  UNL1        0.1567
     18 F           6.0989   -3.0630   17.7926 F       1  UNL1       -0.2028
     19 C           4.0265   -1.7511   18.6493 C.ar    1  UNL1        0.0286
     20 C           3.2872   -0.4569   18.8187 C.ar    1  UNL1        0.1002
     21 N           1.9540   -0.4391   19.5060 N.ar    1  UNL1       -0.2104
     22 C          -0.6640    2.1591   20.9080 C.3     1  UNL1        0.2542
     23 O          -0.1184    0.8727   20.3627 O.3     1  UNL1       -0.4561
     24 N           5.6070   -2.2652   25.6432 N.3     1  UNL1       -0.2894
     25 H           6.6135   -2.3904   25.7516 H       1  UNL1        0.1237
     26 C           5.2910   -0.8749   26.1094 C.3     1  UNL1        0.1171
     27 C           4.1250   -0.6370   27.0225 C.ar    1  UNL1        0.0972
     28 C           2.9706    0.2026   26.5617 C.ar    1  UNL1        0.0288
     29 C           1.8046    0.4406   27.4749 C.ar    1  UNL1        0.0814
     30 C           1.7931   -0.1610   28.8489 C.ar    1  UNL1        0.2495
     31 N           2.9475   -1.0006   29.3098 N.ar    1  UNL1       -0.1100
     32 N           4.1135   -1.2386   28.3966 N.ar    1  UNL1       -0.1480
     33 O           0.6271    0.0769   29.7621 O.3     1  UNL1       -0.4580
     34 C          -0.5274    0.9165   29.3013 C.3     1  UNL1        0.2191
     35 C          -0.5158    1.5181   27.9272 C.3     1  UNL1        0.1096
     36 S           0.6502    1.2801   27.0141 S.3     1  UNL1       -0.1051
@<TRIPOS>BOND
     1    22    23    1
     2    23    11    1
     3    11    12   ar
     4    12    13   ar
     5    13    14   ar
     6    14    15   ar
     7    15    16   ar
     8    16    17   ar
     9    17    18    1
    10    17    19   ar
    11    19    10    1
    12    10     7    1
    13     7     8    1
    14     7     1    1
    15     1     2    1
    16     2     3    1
    17     3     4    1
    18     4    24    1
    19    24    26    1
    20    26    27    1
    21    27    28   ar
    22    28    29   ar
    23    29    30   ar
    24    30    31   ar
    25    31    32   ar
    26    30    33    1
    27    33    34    1
    28    34    35    1
    29    35    36    1
    30     4     5    1
    31     5     6    1
    32    19    20   ar
    33    20    21   ar
    34    21    11   ar
    35    20    14   ar
    36     6     1    1
    37    32    27   ar
    38    36    29    1
    39     8     9    1
    40    24    25    1
@<TRIPOS>MOLECULE
*****
 36 40 0 0 0
SMALL
GASTEIGER

@<TRIPOS>ATOM
      1 C           6.4771   -3.2788   31.5352 C.3     1  UNL1        0.2634
      2 O           6.7443   -4.6633   32.0468 O.3     1  UNL1       -0.3272
      3 C           7.0009   -5.7828   31.0820 C.3     1  UNL1        0.1630
      4 C           6.9903   -5.5178   29.6056 C.3     1  UNL1        0.1144
      5 C           6.7231   -4.1333   29.0940 C.3     1  UNL1        0.1630
      6 O           6.4665   -3.0138   30.0589 O.3     1  UNL1       -0.3272
      7 C           6.2205   -2.1593   32.5000 C.3     1  UNL1        0.1712
      8 O           7.2586   -1.0970   32.7095 O.3     1  UNL1       -0.3791
      9 H           6.9363   -0.4538   33.3601 H       1  UNL1        0.2106
     10 C           4.9258   -2.1021   33.2554 C.3     1  UNL1        0.0647
     11 C           2.2540   -0.0644   30.2621 C.ar    1  UNL1        0.2250
     12 C           1.6350    1.2619   30.5901 C.ar    1  UNL1        0.0593
     13 C           1.9066    1.9091   31.9157 C.ar    1  UNL1        0.0254
     14 C           2.7972    1.2299   32.9135 C.ar    1  UNL1        0.0990
     15 N           3.0687    1.8771   34.2392 N.ar    1  UNL1       -0.2400
     16 C           3.9593    1.1979   35.2369 C.ar    1  UNL1        0.1281
     17 C           4.5784   -0.1285   34.9090 C.ar    1  UNL1        0.1567
     18 F           5.4689   -0.8077   35.9067 F       1  UNL1       -0.2028
     19 C           4.3068   -0.7757   33.5833 C.ar    1  UNL1        0.0286
     20 C           3.4161   -0.0965   32.5855 C.ar    1  UNL1        0.1002
     21 N           3.1446   -0.7436   31.2599 N.ar    1  UNL1       -0.2104
     22 C           3.1065   -0.9435   27.9708 C.3     1  UNL1        0.2542
     23 O           1.9824   -0.7116   28.9364 O.3     1  UNL1       -0.4561
     24 N           7.2469   -6.6373   28.6408 N.3     1  UNL1       -0.2894
     25 H           6.4849   -6.6222   27.9629 H       1  UNL1        0.1237
     26 C           8.5244   -6.6727   27.8556 C.3     1  UNL1        0.1171
     27 C           8.4936   -6.5062   26.3652 C.ar    1  UNL1        0.0972
     28 C           8.4947   -5.1320   25.7639 C.ar    1  UNL1        0.0288
     29 C           8.4638   -4.9655   24.2734 C.ar    1  UNL1        0.0814
     30 C           8.4319   -6.1732   23.3844 C.ar    1  UNL1        0.2495
     31 N           8.4308   -7.5474   23.9857 N.ar    1  UNL1       -0.1100
     32 N           8.4616   -7.7139   25.4761 N.ar    1  UNL1       -0.1480
     33 O           8.4010   -6.0067   21.8939 O.3     1  UNL1       -0.4580
     34 C           8.4021   -4.6325   21.2926 C.3     1  UNL1        0.2191
     35 C           8.4340   -3.4248   22.1817 C.3     1  UNL1        0.1096
     36 S           8.4649   -3.5913   23.6721 S.3     1  UNL1       -0.1051
@<TRIPOS>BOND
     1    22    23    1
     2    23    11    1
     3    11    12   ar
     4    12    13   ar
     5    13    14   ar
     6    14    15   ar
     7    15    16   ar
     8    16    17   ar
     9    17    18    1
    10    17    19   ar
    11    19    10    1
    12    10     7    1
    13     7     8    1
    14     7     1    1
    15     1     2    1
    16     2     3    1
    17     3     4    1
    18     4    24    1
    19    24    26    1
    20    26    27    1
    21    27    28   ar
    22    28    29   ar
    23    29    30   ar
    24    30    31   ar
    25    31    32   ar
    26    30    33    1
    27    33    34    1
    28    34    35    1
    29    35    36    1
    30     4     5    1
    31     5     6    1
    32    19    20   ar
    33    20    21   ar
    34    21    11   ar
    35    20    14   ar
    36     6     1    1
    37    32    27   ar
    38    36    29    1
    39     8     9    1
    40    24    25    1
@<TRIPOS>MOLECULE
*****
 36 40 0 0 0
SMALL
GASTEIGER

@<TRIPOS>ATOM
      1 C           2.7418    0.0943   18.3837 C.3     1  UNL1        0.2634
      2 O           2.3919    1.5438   18.2211 O.3     1  UNL1       -0.3272
      3 C           1.2486    2.1306   18.9947 C.3     1  UNL1        0.1630
      4 C           0.4552    1.2679   19.9309 C.3     1  UNL1        0.1144
      5 C           0.8051   -0.1816   20.0934 C.3     1  UNL1        0.1630
      6 O           1.9485   -0.7684   19.3198 O.3     1  UNL1       -0.3272
      7 C           3.8851   -0.4925   17.6101 C.3     1  UNL1        0.1712
      8 O           3.6306   -1.1809   16.3019 O.3     1  UNL1       -0.3791
      9 H           4.4702   -1.5001   15.9358 H       1  UNL1        0.2106
     10 C           5.2830   -0.3910   18.1447 C.3     1  UNL1        0.0647
     11 C           4.5441   -3.7112   21.0909 C.ar    1  UNL1        0.2250
     12 C           4.7721   -3.4790   22.5551 C.ar    1  UNL1        0.0593
     13 C           5.2464   -2.1402   23.0373 C.ar    1  UNL1        0.0254
     14 C           5.4927   -1.0335   22.0553 C.ar    1  UNL1        0.0990
     15 N           5.9669    0.3054   22.5375 N.ar    1  UNL1       -0.2400
     16 C           6.2132    1.4121   21.5555 C.ar    1  UNL1        0.1281
     17 C           5.9852    1.1800   20.0911 C.ar    1  UNL1        0.1567
     18 F           6.2315    2.2867   19.1091 F       1  UNL1       -0.2028
     19 C           5.5110   -0.1589   19.6089 C.ar    1  UNL1        0.0286
     20 C           5.2647   -1.2656   20.5910 C.ar    1  UNL1        0.1002
     21 N           4.7904   -2.6045   20.1088 N.ar    1  UNL1       -0.2104
     22 C           4.0138   -5.3409   19.1382 C.3     1  UNL1        0.2542
     23 O           4.0699   -5.0501   20.6087 O.3     1  UNL1       -0.4561
     24 N          -0.6881    1.8548   20.7045 N.3     1  UNL1       -0.2894
     25 H          -0.3158    2.1376   21.6110 H       1  UNL1        0.1237
     26 C          -1.4374    3.0334   20.1573 C.3     1  UNL1        0.1171
     27 C          -2.8205    3.3380   20.6514 C.ar    1  UNL1        0.0972
     28 C          -3.0641    3.5488   22.1164 C.ar    1  UNL1        0.0288
     29 C          -4.4472    3.8534   22.6105 C.ar    1  UNL1        0.0814
     30 C          -5.5868    3.9473   21.6397 C.ar    1  UNL1        0.2495
     31 N          -5.3432    3.7364   20.1747 N.ar    1  UNL1       -0.1100
     32 N          -3.9601    3.4318   19.6805 N.ar    1  UNL1       -0.1480
     33 O          -6.9700    4.2519   22.1338 O.3     1  UNL1       -0.4580
     34 C          -7.2135    4.4627   23.5988 C.3     1  UNL1        0.2191
     35 C          -6.0739    4.3689   24.5697 C.3     1  UNL1        0.1096
     36 S          -4.6908    4.0643   24.0755 S.3     1  UNL1       -0.1051
@<TRIPOS>BOND
     1    22    23    1
     2    23    11    1
     3    11    12   ar
     4    12    13   ar
     5    13    14   ar
     6    14    15   ar
     7    15    16   ar
     8    16    17   ar
     9    17    18    1
    10    17    19   ar
    11    19    10    1
    12    10     7    1
    13     7     8    1
    14     7     1    1
    15     1     2    1
    16     2     3    1
    17     3     4    1
    18     4    24    1
    19    24    26    1
    20    26    27    1
    21    27    28   ar
    22    28    29   ar
    23    29    30   ar
    24    30    31   ar
    25    31    32   ar
    26    30    33    1
    27    33    34    1
    28    34    35    1
    29    35    36    1
    30     4     5    1
    31     5     6    1
    32    19    20   ar
    33    20    21   ar
    34    21    11   ar
    35    20    14   ar
    36     6     1    1
    37    32    27   ar
    38    36    29    1
    39     8     9    1
    40    24    25    1
