@<TRIPOS>MOLECULE
*****
 33 37 0 0 0
SMALL
GASTEIGER

@<TRIPOS>ATOM
      1 C         -10.3555  -17.4133   22.7388 C.ar    1  UNL1        0.0436
      2 C         -11.8200  -17.2488   23.0185 C.ar    1  UNL1        0.0142
      3 C         -12.8332  -17.8291   22.0769 C.ar    1  UNL1        0.0010
      4 C         -12.3819  -18.5738   20.8555 C.ar    1  UNL1       -0.0032
      5 C         -10.9175  -18.7383   20.5758 C.ar    1  UNL1       -0.0091
      6 C          -9.9043  -18.1580   21.5174 C.ar    1  UNL1       -0.0101
      7 C          -8.4398  -18.3224   21.2376 C.3     1  UNL1        0.0444
      8 C          -7.9885  -19.0671   20.0162 C.3     1  UNL1        0.0749
      9 N          -9.0018  -19.6474   19.0746 N.3     1  UNL1       -0.2934
     10 C         -10.4662  -19.4830   19.3544 C.3     1  UNL1        0.0954
     11 H          -8.8215  -20.6503   19.0295 H       1  UNL1        0.1236
     12 C          -7.3157  -15.6725   25.5636 C.3     1  UNL1        0.0610
     13 C          -8.3505  -16.6313   26.0733 C.3     1  UNL1        0.0374
     14 C          -9.3638  -17.2116   25.1316 C.3     1  UNL1        0.0922
     15 N          -9.3423  -16.8330   23.6804 N.pl3   1  UNL1       -0.3077
     16 C          -8.3075  -15.8741   23.1707 C.3     1  UNL1        0.0922
     17 C          -7.2942  -15.2939   24.1122 C.3     1  UNL1        0.0374
     18 C          -6.7198  -14.6496   27.8762 C.3     1  UNL1        0.0896
     19 N          -6.3025  -15.0922   26.5051 N.3     1  UNL1       -0.2715
     20 C          -4.8719  -14.9545   26.0756 C.3     1  UNL1        0.0896
     21 C          -6.5241  -19.2316   19.7365 C.3     1  UNL1        0.0886
     22 N          -5.6213  -19.8139   20.7833 N.3     1  UNL1       -0.2667
     23 C          -5.7005  -21.2750   21.1135 C.3     1  UNL1        0.0899
     24 C          -4.6393  -18.9353   21.4999 C.3     1  UNL1        0.0978
     25 C          -4.8908  -18.5347   22.9234 C.3     1  UNL1        0.0224
     26 C          -3.9087  -17.6561   23.6400 C.3     1  UNL1        0.0065
     27 C          -2.6752  -17.1779   22.9331 C.3     1  UNL1        0.0277
     28 C          -2.4236  -17.5784   21.5096 C.ar    1  UNL1       -0.0073
     29 C          -1.1901  -17.1002   20.8028 C.ar    1  UNL1       -0.0015
     30 C          -0.9386  -17.5007   19.3792 C.ar    1  UNL1        0.0203
     31 C          -1.9206  -18.3794   18.6626 C.ar    1  UNL1        0.0985
     32 N          -3.1542  -18.8576   19.3695 N.ar    1  UNL1       -0.2471
     33 C          -3.4057  -18.4571   20.7930 C.ar    1  UNL1        0.0695
@<TRIPOS>BOND
     1    18    19    1
     2    19    20    1
     3    19    12    1
     4    12    13    1
     5    13    14    1
     6    14    15    1
     7    15     1    1
     8     1     2   ar
     9     2     3   ar
    10     3     4   ar
    11     4     5   ar
    12     5     6   ar
    13     6     7    1
    14     7     8    1
    15     8    21    1
    16    21    22    1
    17    22    23    1
    18    24    22    1
    19    24    25    1
    20    25    26    1
    21    26    27    1
    22    27    28    1
    23    28    29   ar
    24    29    30   ar
    25    30    31   ar
    26    31    32   ar
    27    32    33   ar
    28     8     9    1
    29     9    10    1
    30    15    16    1
    31    16    17    1
    32    17    12    1
    33     6     1   ar
    34    33    24    1
    35    10     5    1
    36    33    28   ar
    37     9    11    1
@<TRIPOS>MOLECULE
*****
 33 37 0 0 0
SMALL
GASTEIGER

@<TRIPOS>ATOM
      1 C          -5.2441  -16.3480   24.5437 C.ar    1  UNL1        0.0436
      2 C          -4.6906  -16.2577   25.9349 C.ar    1  UNL1        0.0142
      3 C          -5.5798  -15.8462   27.0706 C.ar    1  UNL1        0.0010
      4 C          -7.0226  -15.5251   26.8151 C.ar    1  UNL1       -0.0032
      5 C          -7.5761  -15.6154   25.4239 C.ar    1  UNL1       -0.0091
      6 C          -6.6869  -16.0269   24.2882 C.ar    1  UNL1       -0.0101
      7 C          -7.2404  -16.1172   22.8969 C.3     1  UNL1        0.0444
      8 C          -8.6831  -15.7961   22.6415 C.3     1  UNL1        0.0749
      9 N          -9.5724  -15.3846   23.7772 N.3     1  UNL1       -0.2934
     10 C          -9.0189  -15.2943   25.1684 C.3     1  UNL1        0.0954
     11 H         -10.3397  -16.0560   23.8086 H       1  UNL1        0.1236
     12 C          -2.5763  -17.5825   21.1364 C.3     1  UNL1        0.0610
     13 C          -2.5198  -16.1790   21.6627 C.3     1  UNL1        0.0374
     14 C          -3.4091  -15.7675   22.7985 C.3     1  UNL1        0.0922
     15 N          -4.3548  -16.7595   23.4079 N.pl3   1  UNL1       -0.3077
     16 C          -4.4114  -18.1630   22.8816 C.3     1  UNL1        0.0922
     17 C          -3.5222  -18.5746   21.7459 C.3     1  UNL1        0.0374
     18 C          -2.2878  -18.5137   18.7282 C.3     1  UNL1        0.0896
     19 N          -1.6871  -17.9941   20.0007 N.3     1  UNL1       -0.2715
     20 C          -0.1973  -17.8859   20.1374 C.3     1  UNL1        0.0896
     21 C          -9.2367  -15.8864   21.2503 C.3     1  UNL1        0.0886
     22 N         -10.4841  -16.6774   20.9893 N.3     1  UNL1       -0.2667
     23 C         -11.0164  -16.7994   19.5922 C.3     1  UNL1        0.0899
     24 C         -11.1994  -17.3465   22.1254 C.3     1  UNL1        0.0978
     25 C         -12.5444  -16.8471   22.5630 C.3     1  UNL1        0.0224
     26 C         -13.2597  -17.5162   23.6991 C.3     1  UNL1        0.0065
     27 C         -12.6299  -18.6847   24.3976 C.3     1  UNL1        0.0277
     28 C         -11.2849  -19.1841   23.9601 C.ar    1  UNL1       -0.0073
     29 C         -10.6551  -20.3526   24.6586 C.ar    1  UNL1       -0.0015
     30 C          -9.3100  -20.8521   24.2210 C.ar    1  UNL1        0.0203
     31 C          -8.5948  -20.1830   23.0849 C.ar    1  UNL1        0.0985
     32 N          -9.2246  -19.0145   22.3864 N.ar    1  UNL1       -0.2471
     33 C         -10.5696  -18.5150   22.8239 C.ar    1  UNL1        0.0695
@<TRIPOS>BOND
     1    18    19    1
     2    19    20    1
     3    19    12    1
     4    12    13    1
     5    13    14    1
     6    14    15    1
     7    15     1    1
     8     1     2   ar
     9     2     3   ar
    10     3     4   ar
    11     4     5   ar
    12     5     6   ar
    13     6     7    1
    14     7     8    1
    15     8    21    1
    16    21    22    1
    17    22    23    1
    18    24    22    1
    19    24    25    1
    20    25    26    1
    21    26    27    1
    22    27    28    1
    23    28    29   ar
    24    29    30   ar
    25    30    31   ar
    26    31    32   ar
    27    32    33   ar
    28     8     9    1
    29     9    10    1
    30    15    16    1
    31    16    17    1
    32    17    12    1
    33     6     1   ar
    34    33    24    1
    35    10     5    1
    36    33    28   ar
    37     9    11    1
@<TRIPOS>MOLECULE
*****
 33 37 0 0 0
SMALL
GASTEIGER

@<TRIPOS>ATOM
      1 C         -11.2809   -3.2269   17.5169 C.ar    1  UNL1        0.0436
      2 C          -9.8736   -3.4072   17.0304 C.ar    1  UNL1        0.0142
      3 C          -9.2014   -4.7421   17.1573 C.ar    1  UNL1        0.0010
      4 C          -9.9366   -5.8968   17.7707 C.ar    1  UNL1       -0.0032
      5 C         -11.3440   -5.7165   18.2573 C.ar    1  UNL1       -0.0091
      6 C         -12.0161   -4.3816   18.1303 C.ar    1  UNL1       -0.0101
      7 C         -13.4236   -4.2012   18.6169 C.3     1  UNL1        0.0444
      8 C         -14.1588   -5.3558   19.2303 C.3     1  UNL1        0.0749
      9 N         -13.4866   -6.6908   19.3572 N.3     1  UNL1       -0.2934
     10 C         -12.0792   -6.8711   18.8707 C.3     1  UNL1        0.0954
     11 H         -14.0626   -7.3602   18.8468 H       1  UNL1        0.1236
     12 C         -13.2976    0.7779   17.1362 C.3     1  UNL1        0.0610
     13 C         -13.3088   -0.1801   15.9821 C.3     1  UNL1        0.0374
     14 C         -12.6365   -1.5151   16.1090 C.3     1  UNL1        0.0922
     15 N         -11.9532   -1.8920   17.3900 N.pl3   1  UNL1       -0.3077
     16 C         -11.9420   -0.9339   18.5441 C.3     1  UNL1        0.0922
     17 C         -12.6142    0.4010   18.4172 C.3     1  UNL1        0.0374
     18 C         -13.2056    3.2901   16.4803 C.3     1  UNL1        0.0896
     19 N         -13.9698    2.1128   17.0093 N.3     1  UNL1       -0.2715
     20 C         -15.4063    2.2705   17.4115 C.3     1  UNL1        0.0896
     21 C         -15.5662   -5.1755   19.7168 C.3     1  UNL1        0.0886
     22 N         -16.7185   -5.5764   18.8442 N.3     1  UNL1       -0.2667
     23 C         -17.0243   -4.7959   17.6002 C.3     1  UNL1        0.0899
     24 C         -17.5652   -6.7576   19.2156 C.3     1  UNL1        0.0978
     25 C         -18.8825   -6.5499   19.9023 C.3     1  UNL1        0.0224
     26 C         -19.7292   -7.7311   20.2737 C.3     1  UNL1        0.0065
     27 C         -19.2585   -9.1200   19.9584 C.3     1  UNL1        0.0277
     28 C         -17.9412   -9.3277   19.2717 C.ar    1  UNL1       -0.0073
     29 C         -17.4705  -10.7166   18.9564 C.ar    1  UNL1       -0.0015
     30 C         -16.1531  -10.9243   18.2697 C.ar    1  UNL1        0.0203
     31 C         -15.3065   -9.7431   17.8984 C.ar    1  UNL1        0.0985
     32 N         -15.7772   -8.3542   18.2136 N.ar    1  UNL1       -0.2471
     33 C         -17.0945   -8.1465   18.9003 C.ar    1  UNL1        0.0695
@<TRIPOS>BOND
     1    18    19    1
     2    19    20    1
     3    19    12    1
     4    12    13    1
     5    13    14    1
     6    14    15    1
     7    15     1    1
     8     1     2   ar
     9     2     3   ar
    10     3     4   ar
    11     4     5   ar
    12     5     6   ar
    13     6     7    1
    14     7     8    1
    15     8    21    1
    16    21    22    1
    17    22    23    1
    18    24    22    1
    19    24    25    1
    20    25    26    1
    21    26    27    1
    22    27    28    1
    23    28    29   ar
    24    29    30   ar
    25    30    31   ar
    26    31    32   ar
    27    32    33   ar
    28     8     9    1
    29     9    10    1
    30    15    16    1
    31    16    17    1
    32    17    12    1
    33     6     1   ar
    34    33    24    1
    35    10     5    1
    36    33    28   ar
    37     9    11    1
@<TRIPOS>MOLECULE
*****
 33 37 0 0 0
SMALL
GASTEIGER

@<TRIPOS>ATOM
      1 C          -5.3948  -16.0449   24.7857 C.ar    1  UNL1        0.0436
      2 C          -4.8478  -15.8104   26.1626 C.ar    1  UNL1        0.0142
      3 C          -5.7648  -15.3882   27.2720 C.ar    1  UNL1        0.0010
      4 C          -7.2288  -15.2005   27.0045 C.ar    1  UNL1       -0.0032
      5 C          -7.7758  -15.4350   25.6277 C.ar    1  UNL1       -0.0091
      6 C          -6.8588  -15.8572   24.5183 C.ar    1  UNL1       -0.0101
      7 C          -7.4057  -16.0916   23.1413 C.3     1  UNL1        0.0444
      8 C          -8.8697  -15.9039   22.8739 C.3     1  UNL1        0.0749
      9 N          -9.7867  -15.4818   23.9834 N.3     1  UNL1       -0.2934
     10 C          -9.2397  -15.2473   25.3602 C.3     1  UNL1        0.0954
     11 H         -10.4988  -16.2071   24.0690 H       1  UNL1        0.1236
     12 C          -2.6438  -17.3114   21.4572 C.3     1  UNL1        0.0610
     13 C          -2.8316  -15.8547   21.7617 C.3     1  UNL1        0.0374
     14 C          -3.7486  -15.4325   22.8712 C.3     1  UNL1        0.0922
     15 N          -4.4778  -16.4670   23.6762 N.pl3   1  UNL1       -0.3077
     16 C          -4.2900  -17.9238   23.3717 C.3     1  UNL1        0.0922
     17 C          -3.3731  -18.3460   22.2623 C.3     1  UNL1        0.0374
     18 C          -2.2452  -18.5917   19.2320 C.3     1  UNL1        0.0896
     19 N          -1.7269  -17.7336   20.3478 N.3     1  UNL1       -0.2715
     20 C          -0.2916  -17.2978   20.3542 C.3     1  UNL1        0.0896
     21 C          -9.4167  -16.1384   21.4970 C.3     1  UNL1        0.0886
     22 N          -9.7583  -17.5297   21.0526 N.3     1  UNL1       -0.2667
     23 C         -10.6903  -17.7401   19.8961 C.3     1  UNL1        0.0899
     24 C          -9.1681  -18.7107   21.7645 C.3     1  UNL1        0.0978
     25 C          -9.8960  -19.3302   22.9206 C.3     1  UNL1        0.0224
     26 C          -9.3058  -20.5111   23.6326 C.3     1  UNL1        0.0065
     27 C          -7.9876  -21.0726   23.1886 C.3     1  UNL1        0.0277
     28 C          -7.2597  -20.4532   22.0326 C.ar    1  UNL1       -0.0073
     29 C          -5.9416  -21.0147   21.5885 C.ar    1  UNL1       -0.0015
     30 C          -5.2137  -20.3952   20.4324 C.ar    1  UNL1        0.0203
     31 C          -5.8039  -19.2143   19.7205 C.ar    1  UNL1        0.0985
     32 N          -7.1220  -18.6528   20.1645 N.ar    1  UNL1       -0.2471
     33 C          -7.8500  -19.2722   21.3205 C.ar    1  UNL1        0.0695
@<TRIPOS>BOND
     1    18    19    1
     2    19    20    1
     3    19    12    1
     4    12    13    1
     5    13    14    1
     6    14    15    1
     7    15     1    1
     8     1     2   ar
     9     2     3   ar
    10     3     4   ar
    11     4     5   ar
    12     5     6   ar
    13     6     7    1
    14     7     8    1
    15     8    21    1
    16    21    22    1
    17    22    23    1
    18    24    22    1
    19    24    25    1
    20    25    26    1
    21    26    27    1
    22    27    28    1
    23    28    29   ar
    24    29    30   ar
    25    30    31   ar
    26    31    32   ar
    27    32    33   ar
    28     8     9    1
    29     9    10    1
    30    15    16    1
    31    16    17    1
    32    17    12    1
    33     6     1   ar
    34    33    24    1
    35    10     5    1
    36    33    28   ar
    37     9    11    1
@<TRIPOS>MOLECULE
*****
 33 37 0 0 0
SMALL
GASTEIGER

@<TRIPOS>ATOM
      1 C           3.3873   -1.5898   20.2702 C.ar    1  UNL1        0.0436
      2 C           3.7261   -2.3002   18.9933 C.ar    1  UNL1        0.0142
      3 C           4.6296   -3.4973   19.0179 C.ar    1  UNL1        0.0010
      4 C           5.1943   -3.9840   20.3195 C.ar    1  UNL1       -0.0032
      5 C           4.8556   -3.2736   21.5965 C.ar    1  UNL1       -0.0091
      6 C           3.9521   -2.0766   21.5718 C.ar    1  UNL1       -0.0101
      7 C           3.6133   -1.3661   22.8488 C.3     1  UNL1        0.0444
      8 C           4.1781   -1.8528   24.1504 C.3     1  UNL1        0.0749
      9 N           5.0816   -3.0500   24.1750 N.3     1  UNL1       -0.2934
     10 C           5.4204   -3.7603   22.8981 C.3     1  UNL1        0.0954
     11 H           4.6425   -3.7378   24.7870 H       1  UNL1        0.1236
     12 C           0.6767    2.0015   20.1963 C.3     1  UNL1        0.0610
     13 C           2.1607    2.1792   20.0698 C.3     1  UNL1        0.0374
     14 C           3.0643    0.9821   20.0944 C.3     1  UNL1        0.0922
     15 N           2.4838   -0.3927   20.2456 N.pl3   1  UNL1       -0.3077
     16 C           0.9997   -0.5705   20.3721 C.3     1  UNL1        0.0922
     17 C           0.0962    0.6266   20.3475 C.3     1  UNL1        0.0374
     18 C           0.3170    4.5407   19.7809 C.3     1  UNL1        0.0896
     19 N          -0.2268    3.1985   20.1717 N.3     1  UNL1       -0.2715
     20 C          -1.6742    3.0534   20.5380 C.3     1  UNL1        0.0896
     21 C           3.8393   -1.1425   25.4273 C.3     1  UNL1        0.0886
     22 N           3.6237    0.3419   25.4253 N.3     1  UNL1       -0.2667
     23 C           4.7998    1.2708   25.4899 C.3     1  UNL1        0.0899
     24 C           2.2320    0.8975   25.3588 C.3     1  UNL1        0.0978
     25 C           1.7131    1.4686   24.0724 C.3     1  UNL1        0.0224
     26 C           0.3214    2.0241   24.0058 C.3     1  UNL1        0.0065
     27 C          -0.5515    2.0087   25.2256 C.3     1  UNL1        0.0277
     28 C          -0.0327    1.4377   26.5119 C.ar    1  UNL1       -0.0073
     29 C          -0.9056    1.4222   27.7317 C.ar    1  UNL1       -0.0015
     30 C          -0.3867    0.8511   29.0181 C.ar    1  UNL1        0.0203
     31 C           1.0050    0.2956   29.0847 C.ar    1  UNL1        0.0985
     32 N           1.8779    0.3110   27.8649 N.ar    1  UNL1       -0.2471
     33 C           1.3591    0.8820   26.5785 C.ar    1  UNL1        0.0695
@<TRIPOS>BOND
     1    18    19    1
     2    19    20    1
     3    19    12    1
     4    12    13    1
     5    13    14    1
     6    14    15    1
     7    15     1    1
     8     1     2   ar
     9     2     3   ar
    10     3     4   ar
    11     4     5   ar
    12     5     6   ar
    13     6     7    1
    14     7     8    1
    15     8    21    1
    16    21    22    1
    17    22    23    1
    18    24    22    1
    19    24    25    1
    20    25    26    1
    21    26    27    1
    22    27    28    1
    23    28    29   ar
    24    29    30   ar
    25    30    31   ar
    26    31    32   ar
    27    32    33   ar
    28     8     9    1
    29     9    10    1
    30    15    16    1
    31    16    17    1
    32    17    12    1
    33     6     1   ar
    34    33    24    1
    35    10     5    1
    36    33    28   ar
    37     9    11    1
@<TRIPOS>MOLECULE
*****
 33 37 0 0 0
SMALL
GASTEIGER

@<TRIPOS>ATOM
      1 C          -5.0791  -16.1456   24.4645 C.ar    1  UNL1        0.0436
      2 C          -4.5137  -15.8270   25.8167 C.ar    1  UNL1        0.0142
      3 C          -5.4155  -15.3352   26.9098 C.ar    1  UNL1        0.0010
      4 C          -6.8827  -15.1619   26.6506 C.ar    1  UNL1       -0.0032
      5 C          -7.4482  -15.4804   25.2983 C.ar    1  UNL1       -0.0091
      6 C          -6.5464  -15.9723   24.2052 C.ar    1  UNL1       -0.0101
      7 C          -7.1118  -16.2909   22.8528 C.3     1  UNL1        0.0444
      8 C          -8.5790  -16.1176   22.5936 C.3     1  UNL1        0.0749
      9 N          -9.4808  -15.6257   23.6867 N.3     1  UNL1       -0.2934
     10 C          -8.9154  -15.3071   25.0390 C.3     1  UNL1        0.0954
     11 H         -10.1923  -16.3431   23.8266 H       1  UNL1        0.1236
     12 C          -2.3738  -17.6213   21.1851 C.3     1  UNL1        0.0610
     13 C          -2.3980  -16.1637   21.5384 C.3     1  UNL1        0.0374
     14 C          -3.2998  -15.6718   22.6315 C.3     1  UNL1        0.0922
     15 N          -4.1773  -16.6375   23.3713 N.pl3   1  UNL1       -0.3077
     16 C          -4.1531  -18.0951   23.0180 C.3     1  UNL1        0.0922
     17 C          -3.2514  -18.5870   21.9250 C.3     1  UNL1        0.0374
     18 C           0.0157  -17.9839   20.2321 C.3     1  UNL1        0.0896
     19 N          -1.4721  -18.1132   20.0920 N.3     1  UNL1       -0.2715
     20 C          -2.0582  -18.7345   18.8589 C.3     1  UNL1        0.0896
     21 C          -9.1445  -16.4362   21.2413 C.3     1  UNL1        0.0886
     22 N          -9.9207  -17.7026   21.0323 N.3     1  UNL1       -0.2667
     23 C         -10.4141  -18.0623   19.6621 C.3     1  UNL1        0.0899
     24 C         -10.2035  -18.6092   22.1933 C.3     1  UNL1        0.0978
     25 C          -9.2457  -19.7122   22.5343 C.3     1  UNL1        0.0224
     26 C          -9.5285  -20.6188   23.6953 C.3     1  UNL1        0.0065
     27 C         -10.7691  -20.4225   24.5154 C.3     1  UNL1        0.0277
     28 C         -11.7268  -19.3196   24.1744 C.ar    1  UNL1       -0.0073
     29 C         -12.9674  -19.1234   24.9945 C.ar    1  UNL1       -0.0015
     30 C         -13.9252  -18.0204   24.6535 C.ar    1  UNL1        0.0203
     31 C         -13.6424  -17.1138   23.4925 C.ar    1  UNL1        0.0985
     32 N         -12.4018  -17.3101   22.6724 N.ar    1  UNL1       -0.2471
     33 C         -11.4440  -18.4129   23.0133 C.ar    1  UNL1        0.0695
@<TRIPOS>BOND
     1    18    19    1
     2    19    20    1
     3    19    12    1
     4    12    13    1
     5    13    14    1
     6    14    15    1
     7    15     1    1
     8     1     2   ar
     9     2     3   ar
    10     3     4   ar
    11     4     5   ar
    12     5     6   ar
    13     6     7    1
    14     7     8    1
    15     8    21    1
    16    21    22    1
    17    22    23    1
    18    24    22    1
    19    24    25    1
    20    25    26    1
    21    26    27    1
    22    27    28    1
    23    28    29   ar
    24    29    30   ar
    25    30    31   ar
    26    31    32   ar
    27    32    33   ar
    28     8     9    1
    29     9    10    1
    30    15    16    1
    31    16    17    1
    32    17    12    1
    33     6     1   ar
    34    33    24    1
    35    10     5    1
    36    33    28   ar
    37     9    11    1
@<TRIPOS>MOLECULE
*****
 33 37 0 0 0
SMALL
GASTEIGER

@<TRIPOS>ATOM
      1 C         -11.6651   -3.1879   17.2055 C.ar    1  UNL1        0.0436
      2 C         -10.4629   -2.5611   16.5638 C.ar    1  UNL1        0.0142
      3 C          -9.2171   -3.3698   16.3546 C.ar    1  UNL1        0.0010
      4 C          -9.1734   -4.8054   16.7873 C.ar    1  UNL1       -0.0032
      5 C         -10.3755   -5.4322   17.4290 C.ar    1  UNL1       -0.0091
      6 C         -11.6213   -4.6235   17.6382 C.ar    1  UNL1       -0.0101
      7 C         -12.8235   -5.2504   18.2799 C.3     1  UNL1        0.0444
      8 C         -12.7798   -6.6860   18.7126 C.3     1  UNL1        0.0749
      9 N         -11.5339   -7.4947   18.5034 N.3     1  UNL1       -0.2934
     10 C         -10.3318   -6.8678   17.8617 C.3     1  UNL1        0.0954
     11 H         -11.7946   -8.2926   17.9240 H       1  UNL1        0.1236
     12 C         -15.4028   -0.7618   17.8329 C.3     1  UNL1        0.0610
     13 C         -14.3799   -0.8596   18.9257 C.3     1  UNL1        0.0374
     14 C         -13.1340   -1.6683   18.7165 C.3     1  UNL1        0.0922
     15 N         -12.9110   -2.3792   17.4147 N.pl3   1  UNL1       -0.3077
     16 C         -13.9339   -2.2814   16.3219 C.3     1  UNL1        0.0922
     17 C         -15.1798   -1.4727   16.5310 C.3     1  UNL1        0.0374
     18 C         -17.4798   -0.1608   19.2733 C.3     1  UNL1        0.0896
     19 N         -16.6487    0.0469   18.0420 N.3     1  UNL1       -0.2715
     20 C         -17.0635    1.0633   17.0198 C.3     1  UNL1        0.0896
     21 C         -13.9819   -7.3128   19.3544 C.3     1  UNL1        0.0886
     22 N         -15.1336   -7.7663   18.5071 N.3     1  UNL1       -0.2667
     23 C         -14.8851   -8.3014   17.1279 C.3     1  UNL1        0.0899
     24 C         -16.5338   -7.6848   19.0388 C.3     1  UNL1        0.0978
     25 C         -17.2049   -8.9142   19.5758 C.3     1  UNL1        0.0224
     26 C         -18.6051   -8.8326   20.1076 C.3     1  UNL1        0.0065
     27 C         -19.3342   -7.5218   20.1024 C.3     1  UNL1        0.0277
     28 C         -18.6631   -6.2924   19.5655 C.ar    1  UNL1       -0.0073
     29 C         -19.3922   -4.9815   19.5603 C.ar    1  UNL1       -0.0015
     30 C         -18.7211   -3.7522   19.0233 C.ar    1  UNL1        0.0203
     31 C         -17.3209   -3.8337   18.4916 C.ar    1  UNL1        0.0985
     32 N         -16.5918   -5.1446   18.4967 N.ar    1  UNL1       -0.2471
     33 C         -17.2629   -6.3739   19.0337 C.ar    1  UNL1        0.0695
@<TRIPOS>BOND
     1    18    19    1
     2    19    20    1
     3    19    12    1
     4    12    13    1
     5    13    14    1
     6    14    15    1
     7    15     1    1
     8     1     2   ar
     9     2     3   ar
    10     3     4   ar
    11     4     5   ar
    12     5     6   ar
    13     6     7    1
    14     7     8    1
    15     8    21    1
    16    21    22    1
    17    22    23    1
    18    24    22    1
    19    24    25    1
    20    25    26    1
    21    26    27    1
    22    27    28    1
    23    28    29   ar
    24    29    30   ar
    25    30    31   ar
    26    31    32   ar
    27    32    33   ar
    28     8     9    1
    29     9    10    1
    30    15    16    1
    31    16    17    1
    32    17    12    1
    33     6     1   ar
    34    33    24    1
    35    10     5    1
    36    33    28   ar
    37     9    11    1
@<TRIPOS>MOLECULE
*****
 33 37 0 0 0
SMALL
GASTEIGER

@<TRIPOS>ATOM
      1 C           8.4552   -6.0241   27.2697 C.ar    1  UNL1        0.0436
      2 C           9.2504   -7.2920   27.3698 C.ar    1  UNL1        0.0142
      3 C           9.5359   -8.0975   26.1371 C.ar    1  UNL1        0.0010
      4 C           9.0263   -7.6350   24.8042 C.ar    1  UNL1       -0.0032
      5 C           8.2311   -6.3671   24.7042 C.ar    1  UNL1       -0.0091
      6 C           7.9456   -5.5617   25.9369 C.ar    1  UNL1       -0.0101
      7 C           7.1504   -4.2937   25.8369 C.3     1  UNL1        0.0444
      8 C           6.6407   -3.8312   24.5040 C.3     1  UNL1        0.0749
      9 N           6.9263   -4.6368   23.2713 N.3     1  UNL1       -0.2934
     10 C           7.7214   -5.9047   23.3713 C.3     1  UNL1        0.0954
     11 H           7.4287   -4.0240   22.6290 H       1  UNL1        0.1236
     12 C           7.5985   -3.6076   30.9680 C.3     1  UNL1        0.0610
     13 C           8.8853   -3.4084   30.2233 C.3     1  UNL1        0.0374
     14 C           9.1708   -4.2139   28.9905 C.3     1  UNL1        0.0922
     15 N           8.1697   -5.2186   28.5025 N.pl3   1  UNL1       -0.3077
     16 C           6.8829   -5.4178   29.2472 C.3     1  UNL1        0.0922
     17 C           6.5973   -4.6124   30.4799 C.3     1  UNL1        0.0374
     18 C           8.4145   -2.0293   32.8634 C.3     1  UNL1        0.0896
     19 N           7.3129   -2.8022   32.2007 N.3     1  UNL1       -0.2715
     20 C           5.9258   -2.7696   32.7706 C.3     1  UNL1        0.0896
     21 C           5.8455   -2.5633   24.4040 C.3     1  UNL1        0.0886
     22 N           5.9529   -1.7055   23.1782 N.3     1  UNL1       -0.2667
     23 C           7.2343   -0.9867   22.8757 C.3     1  UNL1        0.0899
     24 C           4.7789   -1.5664   22.2549 C.3     1  UNL1        0.0978
     25 C           3.7632   -0.4880   22.4904 C.3     1  UNL1        0.0224
     26 C           2.5892   -0.3490   21.5671 C.3     1  UNL1        0.0065
     27 C           2.4309   -1.2883   20.4084 C.3     1  UNL1        0.0277
     28 C           3.4466   -2.3666   20.1729 C.ar    1  UNL1       -0.0073
     29 C           3.2883   -3.3059   19.0142 C.ar    1  UNL1       -0.0015
     30 C           4.3041   -4.3843   18.7787 C.ar    1  UNL1        0.0203
     31 C           5.4780   -4.5234   19.7020 C.ar    1  UNL1        0.0985
     32 N           5.6363   -3.5841   20.8607 N.ar    1  UNL1       -0.2471
     33 C           4.6206   -2.5057   21.0962 C.ar    1  UNL1        0.0695
@<TRIPOS>BOND
     1    18    19    1
     2    19    20    1
     3    19    12    1
     4    12    13    1
     5    13    14    1
     6    14    15    1
     7    15     1    1
     8     1     2   ar
     9     2     3   ar
    10     3     4   ar
    11     4     5   ar
    12     5     6   ar
    13     6     7    1
    14     7     8    1
    15     8    21    1
    16    21    22    1
    17    22    23    1
    18    24    22    1
    19    24    25    1
    20    25    26    1
    21    26    27    1
    22    27    28    1
    23    28    29   ar
    24    29    30   ar
    25    30    31   ar
    26    31    32   ar
    27    32    33   ar
    28     8     9    1
    29     9    10    1
    30    15    16    1
    31    16    17    1
    32    17    12    1
    33     6     1   ar
    34    33    24    1
    35    10     5    1
    36    33    28   ar
    37     9    11    1
@<TRIPOS>MOLECULE
*****
 33 37 0 0 0
SMALL
GASTEIGER

@<TRIPOS>ATOM
      1 C         -13.5908   -1.6884   18.0839 C.ar    1  UNL1        0.0436
      2 C         -12.7994   -0.4279   18.2704 C.ar    1  UNL1        0.0142
      3 C         -13.5002    0.8974   18.3185 C.ar    1  UNL1        0.0010
      4 C         -14.9924    0.9623   18.1802 C.ar    1  UNL1       -0.0032
      5 C         -15.7838   -0.2982   17.9937 C.ar    1  UNL1       -0.0091
      6 C         -15.0830   -1.6235   17.9456 C.ar    1  UNL1       -0.0101
      7 C         -15.8744   -2.8841   17.7591 C.3     1  UNL1        0.0444
      8 C         -17.3666   -2.8193   17.6207 C.3     1  UNL1        0.0749
      9 N         -18.0674   -1.4939   17.6689 N.3     1  UNL1       -0.2934
     10 C         -17.2760   -0.2334   17.8554 C.3     1  UNL1        0.0954
     11 H         -18.7330   -1.5405   18.4405 H       1  UNL1        0.1236
     12 C         -11.4885   -5.6646   17.9395 C.3     1  UNL1        0.0610
     13 C         -11.7629   -4.9147   16.6697 C.3     1  UNL1        0.0374
     14 C         -12.4637   -3.5893   16.7178 C.3     1  UNL1        0.0922
     15 N         -12.8900   -3.0138   18.0357 N.pl3   1  UNL1       -0.3077
     16 C         -12.6156   -3.7636   19.3056 C.3     1  UNL1        0.0922
     17 C         -11.9149   -5.0890   19.2575 C.3     1  UNL1        0.0374
     18 C          -9.6875   -7.2923   18.8650 C.3     1  UNL1        0.0896
     19 N         -10.7878   -6.9899   17.8914 N.3     1  UNL1       -0.2715
     20 C         -11.1872   -8.0129   16.8696 C.3     1  UNL1        0.0896
     21 C         -18.1580   -4.0798   17.4343 C.3     1  UNL1        0.0886
     22 N         -18.3367   -5.0298   18.5812 N.3     1  UNL1       -0.2667
     23 C         -19.3861   -4.7632   19.6194 C.3     1  UNL1        0.0899
     24 C         -17.4660   -6.2463   18.6900 C.3     1  UNL1        0.0978
     25 C         -16.0463   -6.1133   19.1555 C.3     1  UNL1        0.0224
     26 C         -15.1756   -7.3299   19.2643 C.3     1  UNL1        0.0065
     27 C         -15.7246   -8.6795   18.9077 C.3     1  UNL1        0.0277
     28 C         -17.1443   -8.8125   18.4422 C.ar    1  UNL1       -0.0073
     29 C         -17.6934  -10.1621   18.0856 C.ar    1  UNL1       -0.0015
     30 C         -19.1132  -10.2951   17.6201 C.ar    1  UNL1        0.0203
     31 C         -19.9838   -9.0785   17.5113 C.ar    1  UNL1        0.0985
     32 N         -19.4348   -7.7289   17.8680 N.ar    1  UNL1       -0.2471
     33 C         -18.0151   -7.5959   18.3334 C.ar    1  UNL1        0.0695
@<TRIPOS>BOND
     1    18    19    1
     2    19    20    1
     3    19    12    1
     4    12    13    1
     5    13    14    1
     6    14    15    1
     7    15     1    1
     8     1     2   ar
     9     2     3   ar
    10     3     4   ar
    11     4     5   ar
    12     5     6   ar
    13     6     7    1
    14     7     8    1
    15     8    21    1
    16    21    22    1
    17    22    23    1
    18    24    22    1
    19    24    25    1
    20    25    26    1
    21    26    27    1
    22    27    28    1
    23    28    29   ar
    24    29    30   ar
    25    30    31   ar
    26    31    32   ar
    27    32    33   ar
    28     8     9    1
    29     9    10    1
    30    15    16    1
    31    16    17    1
    32    17    12    1
    33     6     1   ar
    34    33    24    1
    35    10     5    1
    36    33    28   ar
    37     9    11    1
