@<TRIPOS>MOLECULE
*****
 35 38 0 0 0
SMALL
GASTEIGER

@<TRIPOS>ATOM
      1 C           0.3857    5.3397   17.9826 C.2     1  UNL1        0.2491
      2 O           0.2413    5.9275   16.6102 O.2     1  UNL1       -0.2699
      3 N          -0.1401    6.0818   19.1754 N.am    1  UNL1       -0.2742
      4 C          -0.8102    7.4117   18.9958 C.3     1  UNL1        0.1152
      5 C           0.0043    5.4940   20.5479 C.3     1  UNL1        0.0972
      6 C           1.2715    5.4215   21.3472 C.3     1  UNL1        0.0431
      7 C           0.9572    4.7582   22.6553 C.3     1  UNL1        0.0968
      8 N          -0.5044    4.4207   22.6645 N.am    1  UNL1       -0.2623
      9 C          -1.2467    3.7468   23.7803 C.2     1  UNL1        0.3073
     10 O          -2.7152    3.4727   23.6459 O.2     1  UNL1       -0.2523
     11 N          -0.5203    3.3471   25.0304 N.am    1  UNL1       -0.2626
     12 C           0.9393    3.5551   25.3067 C.3     1  UNL1        0.0964
     13 C           1.2356    3.0058   26.6707 C.3     1  UNL1        0.0390
     14 C          -0.0409    2.4584   27.2373 C.3     1  UNL1        0.0758
     15 C          -1.1261    2.6694   26.2235 C.3     1  UNL1        0.1106
     16 C          -1.0932    4.8755   21.3621 C.3     1  UNL1        0.1147
     17 N          -0.2036    1.8133   28.5817 N.3     1  UNL1       -0.2982
     18 H          -1.1439    2.0400   28.9052 H       1  UNL1        0.1232
     19 C          -0.0422    0.3290   28.7258 C.3     1  UNL1        0.0541
     20 C          -1.2531   -0.5524   28.8093 C.3     1  UNL1        0.0171
     21 C           1.3299   -0.2740   28.7863 C.3     1  UNL1        0.0171
     22 C           2.3961    1.3499   18.5215 C.ar    1  UNL1        0.0000
     23 C           3.2203    2.6007   18.4440 C.ar    1  UNL1        0.0001
     24 C           2.5502    3.9306   18.2644 C.ar    1  UNL1        0.0045
     25 C           1.0558    4.0097   18.1622 C.ar    1  UNL1        0.0536
     26 C           0.2316    2.7590   18.2397 C.ar    1  UNL1        0.0045
     27 C           0.9017    1.4290   18.4193 C.ar    1  UNL1        0.0001
     28 C           4.4065   -2.6398   19.0603 C.ar    1  UNL1       -0.0222
     29 C           3.4385   -2.1422   20.0925 C.ar    1  UNL1       -0.0043
     30 C           2.7684   -0.8123   19.9129 C.ar    1  UNL1       -0.0003
     31 C           3.0662    0.0200   18.7011 C.ar    1  UNL1       -0.0000
     32 C           4.0341   -0.4776   17.6689 C.ar    1  UNL1       -0.0003
     33 C           4.7043   -1.8075   17.8485 C.ar    1  UNL1       -0.0043
     34 C           4.3953   -5.2219   18.7733 C.3     1  UNL1        0.0050
     35 C           5.0766   -3.9697   19.2400 C.3     1  UNL1        0.0264
@<TRIPOS>BOND
     1    34    35    1
     2    35    28    1
     3    28    29   ar
     4    29    30   ar
     5    30    31   ar
     6    31    22    1
     7    22    23   ar
     8    23    24   ar
     9    24    25   ar
    10    25     1    1
    11     1     2    2
    12     1     3   am
    13     3     4    1
    14     5     3    1
    15     5     6    1
    16     6     7    1
    17     7     8    1
    18     8     9   am
    19     9    10    2
    20     9    11   am
    21    11    12    1
    22    12    13    1
    23    13    14    1
    24    14    17    1
    25    17    19    1
    26    19    20    1
    27    19    21    1
    28    14    15    1
    29     8    16    1
    30    25    26   ar
    31    26    27   ar
    32    31    32   ar
    33    32    33   ar
    34    33    28   ar
    35    27    22   ar
    36    16     5    1
    37    15    11    1
    38    17    18    1
@<TRIPOS>MOLECULE
*****
 35 38 0 0 0
SMALL
GASTEIGER

@<TRIPOS>ATOM
      1 C          -0.6940    4.9221   21.4749 C.2     1  UNL1        0.2491
      2 O          -1.0062    5.8751   20.3595 O.2     1  UNL1       -0.2699
      3 N          -1.1807    5.2087   22.8645 N.am    1  UNL1       -0.2742
      4 C          -1.9796    6.4483   23.1386 C.3     1  UNL1        0.1152
      5 C          -0.8686    4.2557   23.9800 C.3     1  UNL1        0.0972
      6 C          -1.7875    3.2012   24.5219 C.3     1  UNL1        0.0431
      7 C          -1.0695    2.4836   25.6263 C.3     1  UNL1        0.0968
      8 N           0.2932    3.0947   25.7670 N.am    1  UNL1       -0.2623
      9 C           1.3467    2.6829   26.7522 C.2     1  UNL1        0.3073
     10 O           2.6692    3.3903   26.7755 O.2     1  UNL1       -0.2523
     11 N           1.0777    1.5638   27.7140 N.am    1  UNL1       -0.2626
     12 C          -0.1904    0.7679   27.8083 C.3     1  UNL1        0.0964
     13 C          -0.0223   -0.2437   28.9030 C.3     1  UNL1        0.0390
     14 C           1.3495   -0.0731   29.4852 C.3     1  UNL1        0.0758
     15 C           2.0293    1.0440   28.7504 C.3     1  UNL1        0.1106
     16 C           0.4174    4.1899   24.7496 C.3     1  UNL1        0.1147
     17 N           1.9382   -0.8781   30.6056 N.3     1  UNL1       -0.2982
     18 H           2.0757   -1.8235   30.2482 H       1  UNL1        0.1232
     19 C           3.2359   -0.4581   31.2297 C.3     1  UNL1        0.0541
     20 C           4.5361   -0.8951   30.6226 C.3     1  UNL1        0.0171
     21 C           3.2335    0.3989   32.4607 C.3     1  UNL1        0.0171
     22 C           1.7028    1.2033   20.6527 C.ar    1  UNL1        0.0000
     23 C           0.2060    1.1664   20.5613 C.ar    1  UNL1        0.0001
     24 C          -0.5929    2.4060   20.8354 C.ar    1  UNL1        0.0045
     25 C           0.1049    3.6825   21.2009 C.ar    1  UNL1        0.0536
     26 C           1.6017    3.7194   21.2922 C.ar    1  UNL1        0.0045
     27 C           2.4006    2.4798   21.0181 C.ar    1  UNL1        0.0001
     28 C           4.0995   -2.5155   19.8304 C.ar    1  UNL1       -0.0222
     29 C           3.7116   -2.1691   21.2373 C.ar    1  UNL1       -0.0043
     30 C           2.9127   -0.9295   21.5114 C.ar    1  UNL1       -0.0003
     31 C           2.5017   -0.0363   20.3786 C.ar    1  UNL1       -0.0000
     32 C           2.8896   -0.3828   18.9717 C.ar    1  UNL1       -0.0003
     33 C           3.6885   -1.6224   18.6976 C.ar    1  UNL1       -0.0043
     34 C           4.2442   -4.9424   18.9143 C.3     1  UNL1        0.0050
     35 C           4.8984   -3.7551   19.5563 C.3     1  UNL1        0.0264
@<TRIPOS>BOND
     1    34    35    1
     2    35    28    1
     3    28    29   ar
     4    29    30   ar
     5    30    31   ar
     6    31    22    1
     7    22    23   ar
     8    23    24   ar
     9    24    25   ar
    10    25     1    1
    11     1     2    2
    12     1     3   am
    13     3     4    1
    14     5     3    1
    15     5     6    1
    16     6     7    1
    17     7     8    1
    18     8     9   am
    19     9    10    2
    20     9    11   am
    21    11    12    1
    22    12    13    1
    23    13    14    1
    24    14    17    1
    25    17    19    1
    26    19    20    1
    27    19    21    1
    28    14    15    1
    29     8    16    1
    30    25    26   ar
    31    26    27   ar
    32    31    32   ar
    33    32    33   ar
    34    33    28   ar
    35    27    22   ar
    36    16     5    1
    37    15    11    1
    38    17    18    1
@<TRIPOS>MOLECULE
*****
 35 38 0 0 0
SMALL
GASTEIGER

@<TRIPOS>ATOM
      1 C           4.9701    0.2845   35.7091 C.2     1  UNL1        0.2491
      2 O           5.3381   -0.0557   37.1229 O.2     1  UNL1       -0.2699
      3 N           4.2358    1.5580   35.4110 N.am    1  UNL1       -0.2742
      4 C           3.8695    2.4914   36.5267 C.3     1  UNL1        0.1152
      5 C           3.8678    1.8983   33.9972 C.3     1  UNL1        0.0972
      6 C           4.7909    2.4594   32.9565 C.3     1  UNL1        0.0431
      7 C           4.0057    2.6450   31.6920 C.3     1  UNL1        0.0968
      8 N           2.5972    2.1986   31.9512 N.am    1  UNL1       -0.2623
      9 C           1.4717    2.2115   30.9597 C.2     1  UNL1        0.3073
     10 O           0.1095    1.7320   31.3653 O.2     1  UNL1       -0.2523
     11 N           1.7083    2.7039   29.5627 N.am    1  UNL1       -0.2626
     12 C           3.0095    3.2113   29.0153 C.3     1  UNL1        0.0964
     13 C           2.7907    3.5963   27.5822 C.3     1  UNL1        0.0390
     14 C           1.3544    3.3269   27.2439 C.3     1  UNL1        0.0758
     15 C           0.6854    2.7754   28.4680 C.3     1  UNL1        0.1106
     16 C           2.5121    1.7371   33.3758 C.3     1  UNL1        0.1147
     17 N           0.7015    3.5669   25.9149 N.3     1  UNL1       -0.2982
     18 H           1.4518    3.6465   25.2285 H       1  UNL1        0.1232
     19 C          -0.2796    2.5713   25.3706 C.3     1  UNL1        0.0541
     20 C           0.1706    1.1796   25.0380 C.3     1  UNL1        0.0171
     21 C          -1.7107    2.9673   25.1589 C.3     1  UNL1        0.0171
     22 C           6.0690   -2.5155   32.3621 C.ar    1  UNL1        0.0000
     23 C           4.7094   -2.5950   32.9906 C.ar    1  UNL1        0.0001
     24 C           4.3431   -1.6617   34.1062 C.ar    1  UNL1        0.0045
     25 C           5.3364   -0.6488   34.5935 C.ar    1  UNL1        0.0536
     26 C           6.6961   -0.5694   33.9650 C.ar    1  UNL1        0.0045
     27 C           7.0624   -1.5027   32.8494 C.ar    1  UNL1        0.0001
     28 C           7.1679   -5.3155   29.0152 C.ar    1  UNL1       -0.0222
     29 C           6.7183   -3.9182   28.7069 C.ar    1  UNL1       -0.0043
     30 C           6.3519   -2.9848   29.8225 C.ar    1  UNL1       -0.0003
     31 C           6.4353   -3.4489   31.2465 C.ar    1  UNL1       -0.0000
     32 C           6.8850   -4.8462   31.5548 C.ar    1  UNL1       -0.0003
     33 C           7.2513   -5.7796   30.4391 C.ar    1  UNL1       -0.0043
     34 C           6.7793   -6.2021   26.6042 C.3     1  UNL1        0.0050
     35 C           7.5342   -6.2489   27.8995 C.3     1  UNL1        0.0264
@<TRIPOS>BOND
     1    34    35    1
     2    35    28    1
     3    28    29   ar
     4    29    30   ar
     5    30    31   ar
     6    31    22    1
     7    22    23   ar
     8    23    24   ar
     9    24    25   ar
    10    25     1    1
    11     1     2    2
    12     1     3   am
    13     3     4    1
    14     5     3    1
    15     5     6    1
    16     6     7    1
    17     7     8    1
    18     8     9   am
    19     9    10    2
    20     9    11   am
    21    11    12    1
    22    12    13    1
    23    13    14    1
    24    14    17    1
    25    17    19    1
    26    19    20    1
    27    19    21    1
    28    14    15    1
    29     8    16    1
    30    25    26   ar
    31    26    27   ar
    32    31    32   ar
    33    32    33   ar
    34    33    28   ar
    35    27    22   ar
    36    16     5    1
    37    15    11    1
    38    17    18    1
@<TRIPOS>MOLECULE
*****
 35 38 0 0 0
SMALL
GASTEIGER

@<TRIPOS>ATOM
      1 C          -0.0506    5.2639   19.2031 C.2     1  UNL1        0.2491
      2 O          -0.6773    6.5983   18.9263 O.2     1  UNL1       -0.2699
      3 N           0.7083    4.5531   18.1221 N.am    1  UNL1       -0.2742
      4 C           0.8406    5.1766   16.7642 C.3     1  UNL1        0.1152
      5 C           1.3350    3.2186   18.3988 C.3     1  UNL1        0.0972
      6 C           0.6266    1.8965   18.4068 C.3     1  UNL1        0.0431
      7 C           1.6340    0.8328   18.7291 C.3     1  UNL1        0.0968
      8 N           2.9650    1.4976   18.9203 N.am    1  UNL1       -0.2623
      9 C           4.2543    0.8088   19.2566 C.2     1  UNL1        0.3073
     10 O           5.5125    1.6094   19.4179 O.2     1  UNL1       -0.2523
     11 N           4.2855   -0.6807   19.4317 N.am    1  UNL1       -0.2626
     12 C           3.1139   -1.6083   19.3021 C.3     1  UNL1        0.0964
     13 C           3.5980   -3.0049   19.5574 C.3     1  UNL1        0.0390
     14 C           5.0689   -2.9403   19.8447 C.3     1  UNL1        0.0758
     15 C           5.4937   -1.5039   19.7670 C.3     1  UNL1        0.1106
     16 C           2.7802    2.9721   18.7162 C.3     1  UNL1        0.1147
     17 N           5.9586   -4.1074   20.1551 N.3     1  UNL1       -0.2982
     18 H           6.4378   -4.3511   19.2883 H       1  UNL1        0.1232
     19 C           7.0142   -3.9849   21.2137 C.3     1  UNL1        0.0541
     20 C           8.4596   -3.8887   20.8240 C.3     1  UNL1        0.0171
     21 C           6.6247   -3.9585   22.6620 C.3     1  UNL1        0.0171
     22 C          -0.4475    3.3932   23.2765 C.ar    1  UNL1        0.0000
     23 C          -1.5653    3.2724   22.2836 C.ar    1  UNL1        0.0001
     24 C          -1.4330    3.8959   20.9258 C.ar    1  UNL1        0.0045
     25 C          -0.1829    4.6403   20.5609 C.ar    1  UNL1        0.0536
     26 C           0.9348    4.7612   21.5538 C.ar    1  UNL1        0.0045
     27 C           0.8025    4.1376   22.9117 C.ar    1  UNL1        0.0001
     28 C          -0.8444    1.5225   27.3500 C.ar    1  UNL1       -0.0222
     29 C          -1.6608    2.7302   26.9965 C.ar    1  UNL1       -0.0043
     30 C          -1.5285    3.3537   25.6387 C.ar    1  UNL1       -0.0003
     31 C          -0.5798    2.7697   24.6344 C.ar    1  UNL1       -0.0000
     32 C           0.2367    1.5620   24.9879 C.ar    1  UNL1       -0.0003
     33 C           0.1044    0.9385   26.3457 C.ar    1  UNL1       -0.0043
     34 C          -1.4041   -0.5330   28.8371 C.3     1  UNL1        0.0050
     35 C          -0.9767    0.8990   28.7078 C.3     1  UNL1        0.0264
@<TRIPOS>BOND
     1    34    35    1
     2    35    28    1
     3    28    29   ar
     4    29    30   ar
     5    30    31   ar
     6    31    22    1
     7    22    23   ar
     8    23    24   ar
     9    24    25   ar
    10    25     1    1
    11     1     2    2
    12     1     3   am
    13     3     4    1
    14     5     3    1
    15     5     6    1
    16     6     7    1
    17     7     8    1
    18     8     9   am
    19     9    10    2
    20     9    11   am
    21    11    12    1
    22    12    13    1
    23    13    14    1
    24    14    17    1
    25    17    19    1
    26    19    20    1
    27    19    21    1
    28    14    15    1
    29     8    16    1
    30    25    26   ar
    31    26    27   ar
    32    31    32   ar
    33    32    33   ar
    34    33    28   ar
    35    27    22   ar
    36    16     5    1
    37    15    11    1
    38    17    18    1
@<TRIPOS>MOLECULE
*****
 35 38 0 0 0
SMALL
GASTEIGER

@<TRIPOS>ATOM
      1 C           6.2066   -1.5670   18.7592 C.2     1  UNL1        0.2491
      2 O           6.9007   -1.8972   17.4712 O.2     1  UNL1       -0.2699
      3 N           5.2547   -0.4096   18.8229 N.am    1  UNL1       -0.2742
      4 C           4.9969    0.4177   17.5985 C.3     1  UNL1        0.1152
      5 C           4.5605   -0.0794   20.1110 C.3     1  UNL1        0.0972
      6 C           5.2236    0.1449   21.4376 C.3     1  UNL1        0.0431
      7 C           4.1542    0.4474   22.4451 C.3     1  UNL1        0.0968
      8 N           2.8302    0.4101   21.7411 N.am    1  UNL1       -0.2623
      9 C           1.4903    0.6552   22.3694 C.2     1  UNL1        0.3073
     10 O           0.2462    0.5835   21.5346 O.2     1  UNL1       -0.2523
     11 N           1.3947    0.9721   23.8324 N.am    1  UNL1       -0.2626
     12 C           2.5455    1.0773   24.7888 C.3     1  UNL1        0.0964
     13 C           1.9935    1.4096   26.1434 C.3     1  UNL1        0.0390
     14 C           0.5016    1.5097   26.0241 C.3     1  UNL1        0.0758
     15 C           0.1315    1.2393   24.5959 C.3     1  UNL1        0.1106
     16 C           3.0813    0.0845   20.2986 C.3     1  UNL1        0.1147
     17 N          -0.4527    1.8249   27.1376 N.3     1  UNL1       -0.2982
     18 H          -1.3922    1.6638   26.7747 H       1  UNL1        0.1232
     19 C          -0.3581    1.0843   28.4386 C.3     1  UNL1        0.0541
     20 C           0.4662    1.6421   29.5609 C.3     1  UNL1        0.0171
     21 C          -1.0877   -0.2139   28.6174 C.3     1  UNL1        0.0171
     22 C           6.9801   -4.0489   22.4324 C.ar    1  UNL1        0.0000
     23 C           8.0569   -3.1568   21.8896 C.ar    1  UNL1        0.0001
     24 C           7.7991   -2.3296   20.6652 C.ar    1  UNL1        0.0045
     25 C           6.4644   -2.3943   19.9836 C.ar    1  UNL1        0.0536
     26 C           5.3876   -3.2863   20.5265 C.ar    1  UNL1        0.0045
     27 C           5.6455   -4.1136   21.7509 C.ar    1  UNL1        0.0001
     28 C           7.7535   -6.5307   26.1056 C.ar    1  UNL1       -0.0222
     29 C           6.9267   -5.2830   26.2039 C.ar    1  UNL1       -0.0043
     30 C           6.6689   -4.4558   24.9795 C.ar    1  UNL1       -0.0003
     31 C           7.2379   -4.8761   23.6568 C.ar    1  UNL1       -0.0000
     32 C           8.0647   -6.1238   23.5585 C.ar    1  UNL1       -0.0003
     33 C           8.3225   -6.9511   24.7829 C.ar    1  UNL1       -0.0043
     34 C           8.5366   -6.7095   28.5764 C.3     1  UNL1        0.0050
     35 C           8.0114   -7.3580   27.3300 C.3     1  UNL1        0.0264
@<TRIPOS>BOND
     1    34    35    1
     2    35    28    1
     3    28    29   ar
     4    29    30   ar
     5    30    31   ar
     6    31    22    1
     7    22    23   ar
     8    23    24   ar
     9    24    25   ar
    10    25     1    1
    11     1     2    2
    12     1     3   am
    13     3     4    1
    14     5     3    1
    15     5     6    1
    16     6     7    1
    17     7     8    1
    18     8     9   am
    19     9    10    2
    20     9    11   am
    21    11    12    1
    22    12    13    1
    23    13    14    1
    24    14    17    1
    25    17    19    1
    26    19    20    1
    27    19    21    1
    28    14    15    1
    29     8    16    1
    30    25    26   ar
    31    26    27   ar
    32    31    32   ar
    33    32    33   ar
    34    33    28   ar
    35    27    22   ar
    36    16     5    1
    37    15    11    1
    38    17    18    1
@<TRIPOS>MOLECULE
*****
 35 38 0 0 0
SMALL
GASTEIGER

@<TRIPOS>ATOM
      1 C           2.1568    0.8586   30.0829 C.2     1  UNL1        0.2491
      2 O           1.9999    1.0030   31.5676 O.2     1  UNL1       -0.2699
      3 N           3.3588    0.1595   29.5203 N.am    1  UNL1       -0.2742
      4 C           4.4037   -0.3953   30.4424 C.3     1  UNL1        0.1152
      5 C           3.5158    0.0150   28.0355 C.3     1  UNL1        0.0972
      6 C           3.3461   -1.2515   27.2500 C.3     1  UNL1        0.0431
      7 C           3.5955   -0.9375   25.8046 C.3     1  UNL1        0.0968
      8 N           3.9193    0.5232   25.6968 N.am    1  UNL1       -0.2623
      9 C           4.2367    1.2650   24.4322 C.2     1  UNL1        0.3073
     10 O           4.5423    2.7327   24.4803 O.2     1  UNL1       -0.2523
     11 N           4.2484    0.5389   23.1197 N.am    1  UNL1       -0.2626
     12 C           3.9643   -0.9199   22.9165 C.3     1  UNL1        0.0964
     13 C           4.0867   -1.2162   21.4511 C.3     1  UNL1        0.0390
     14 C           4.4463    0.0595   20.7487 C.3     1  UNL1        0.0758
     15 C           4.5463    1.1442   21.7800 C.3     1  UNL1        0.1106
     16 C           3.8700    1.1119   27.0755 C.3     1  UNL1        0.1147
     17 N           4.6673    0.2220   19.2740 N.3     1  UNL1       -0.2982
     18 H           5.4043   -0.4330   19.0128 H       1  UNL1        0.1232
     19 C           3.5333    0.0020   18.3171 C.3     1  UNL1        0.0541
     20 C           3.7627   -0.7581   17.0444 C.3     1  UNL1        0.0171
     21 C           2.1700    0.5422   18.6327 C.3     1  UNL1        0.0171
     22 C          -0.9780    2.5228   27.3165 C.ar    1  UNL1        0.0000
     23 C          -0.9928    1.0670   27.6774 C.ar    1  UNL1        0.0001
     24 C           0.0522    0.5122   28.5995 C.ar    1  UNL1        0.0045
     25 C           1.1119    1.4133   29.1607 C.ar    1  UNL1        0.0536
     26 C           1.1266    2.8691   28.7998 C.ar    1  UNL1        0.0045
     27 C           0.0817    3.4239   27.8777 C.ar    1  UNL1        0.0001
     28 C          -4.1129    4.1870   24.5500 C.ar    1  UNL1       -0.0222
     29 C          -4.3638    4.1435   26.0282 C.ar    1  UNL1       -0.0043
     30 C          -3.3189    3.5887   26.9504 C.ar    1  UNL1       -0.0003
     31 C          -2.0230    3.0775   26.3943 C.ar    1  UNL1       -0.0000
     32 C          -1.7720    3.1211   24.9161 C.ar    1  UNL1       -0.0003
     33 C          -2.8170    3.6758   23.9940 C.ar    1  UNL1       -0.0043
     34 C          -5.9284    3.8220   22.7278 C.3     1  UNL1        0.0050
     35 C          -5.1578    4.7417   23.6279 C.3     1  UNL1        0.0264
@<TRIPOS>BOND
     1    34    35    1
     2    35    28    1
     3    28    29   ar
     4    29    30   ar
     5    30    31   ar
     6    31    22    1
     7    22    23   ar
     8    23    24   ar
     9    24    25   ar
    10    25     1    1
    11     1     2    2
    12     1     3   am
    13     3     4    1
    14     5     3    1
    15     5     6    1
    16     6     7    1
    17     7     8    1
    18     8     9   am
    19     9    10    2
    20     9    11   am
    21    11    12    1
    22    12    13    1
    23    13    14    1
    24    14    17    1
    25    17    19    1
    26    19    20    1
    27    19    21    1
    28    14    15    1
    29     8    16    1
    30    25    26   ar
    31    26    27   ar
    32    31    32   ar
    33    32    33   ar
    34    33    28   ar
    35    27    22   ar
    36    16     5    1
    37    15    11    1
    38    17    18    1
@<TRIPOS>MOLECULE
*****
 35 38 0 0 0
SMALL
GASTEIGER

@<TRIPOS>ATOM
      1 C           5.1028   -2.0702   18.6948 C.2     1  UNL1        0.2491
      2 O           5.7882   -2.6263   17.4820 O.2     1  UNL1       -0.2699
      3 N           4.0320   -1.0312   18.5408 N.am    1  UNL1       -0.2742
      4 C           3.6466   -0.5483   17.1739 C.3     1  UNL1        0.1152
      5 C           3.3466   -0.4750   19.7536 C.3     1  UNL1        0.0972
      6 C           1.9333   -0.7525   20.1727 C.3     1  UNL1        0.0431
      7 C           1.6674    0.0073   21.4383 C.3     1  UNL1        0.0968
      8 N           2.9164    0.7545   21.8016 N.am    1  UNL1       -0.2623
      9 C           3.0960    1.6436   22.9962 C.2     1  UNL1        0.3073
     10 O           4.4097    2.3284   23.2306 O.2     1  UNL1       -0.2523
     11 N           1.9618    1.8478   23.9565 N.am    1  UNL1       -0.2626
     12 C           0.5976    1.2325   23.8533 C.3     1  UNL1        0.0964
     13 C          -0.2145    1.7076   25.0215 C.3     1  UNL1        0.0390
     14 C           0.6477    2.6163   25.8466 C.3     1  UNL1        0.0758
     15 C           1.9927    2.7030   25.1884 C.3     1  UNL1        0.1106
     16 C           3.9541    0.4564   20.7604 C.3     1  UNL1        0.1147
     17 N           0.2370    3.3157   27.1084 N.3     1  UNL1       -0.2982
     18 H          -0.7597    3.5152   27.0235 H       1  UNL1        0.1232
     19 C           0.4327    2.6446   28.4356 C.3     1  UNL1        0.0541
     20 C           1.0809    3.3900   29.5645 C.3     1  UNL1        0.0171
     21 C          -0.0197    1.2284   28.6340 C.3     1  UNL1        0.0171
     22 C           6.2591   -3.5189   22.7953 C.ar    1  UNL1        0.0000
     23 C           7.1949   -2.6410   22.0185 C.ar    1  UNL1        0.0001
     24 C           6.8095   -2.1581   20.6517 C.ar    1  UNL1        0.0045
     25 C           5.4882   -2.5531   20.0617 C.ar    1  UNL1        0.0536
     26 C           4.5524   -3.4310   20.8385 C.ar    1  UNL1        0.0045
     27 C           4.9378   -3.9139   22.2053 C.ar    1  UNL1        0.0001
     28 C           7.4154   -4.9676   26.8958 C.ar    1  UNL1       -0.0222
     29 C           7.6710   -5.8304   25.6958 C.ar    1  UNL1       -0.0043
     30 C           7.2856   -5.3475   24.3290 C.ar    1  UNL1       -0.0003
     31 C           6.6445   -4.0018   24.1622 C.ar    1  UNL1       -0.0000
     32 C           6.3889   -3.1389   25.3622 C.ar    1  UNL1       -0.0003
     33 C           6.7743   -3.6218   26.7290 C.ar    1  UNL1       -0.0043
     34 C           6.8012   -5.4142   29.3804 C.3     1  UNL1        0.0050
     35 C           7.8008   -5.4505   28.2627 C.3     1  UNL1        0.0264
@<TRIPOS>BOND
     1    34    35    1
     2    35    28    1
     3    28    29   ar
     4    29    30   ar
     5    30    31   ar
     6    31    22    1
     7    22    23   ar
     8    23    24   ar
     9    24    25   ar
    10    25     1    1
    11     1     2    2
    12     1     3   am
    13     3     4    1
    14     5     3    1
    15     5     6    1
    16     6     7    1
    17     7     8    1
    18     8     9   am
    19     9    10    2
    20     9    11   am
    21    11    12    1
    22    12    13    1
    23    13    14    1
    24    14    17    1
    25    17    19    1
    26    19    20    1
    27    19    21    1
    28    14    15    1
    29     8    16    1
    30    25    26   ar
    31    26    27   ar
    32    31    32   ar
    33    32    33   ar
    34    33    28   ar
    35    27    22   ar
    36    16     5    1
    37    15    11    1
    38    17    18    1
@<TRIPOS>MOLECULE
*****
 35 38 0 0 0
SMALL
GASTEIGER

@<TRIPOS>ATOM
      1 C           7.8666   -0.9781   33.5455 C.2     1  UNL1        0.2491
      2 O           9.0062   -1.0121   34.5203 O.2     1  UNL1       -0.2699
      3 N           6.7508    0.0072   33.7303 N.am    1  UNL1       -0.2742
      4 C           6.7746    0.9585   34.8898 C.3     1  UNL1        0.1152
      5 C           5.6112    0.0412   32.7555 C.3     1  UNL1        0.0972
      6 C           4.3276   -0.7260   32.8725 C.3     1  UNL1        0.0431
      7 C           3.4783   -0.3929   31.6819 C.3     1  UNL1        0.0968
      8 N           4.2369    0.5802   30.8289 N.am    1  UNL1       -0.2623
      9 C           3.7609    1.1797   29.5390 C.2     1  UNL1        0.3073
     10 O           4.6346    2.1439   28.7926 O.2     1  UNL1       -0.2523
     11 N           2.4113    0.8151   28.9954 N.am    1  UNL1       -0.2626
     12 C           1.4323   -0.1297   29.6270 C.3     1  UNL1        0.0964
     13 C           0.2196   -0.1976   28.7468 C.3     1  UNL1        0.0390
     14 C           0.4492    0.7052   27.5711 C.3     1  UNL1        0.0758
     15 C           1.8037    1.3311   27.7247 C.3     1  UNL1        0.1106
     16 C           5.5552    0.8485   31.4924 C.3     1  UNL1        0.1147
     17 N          -0.5077    0.9409   26.4403 N.3     1  UNL1       -0.2982
     18 H          -1.3091    1.4363   26.8311 H       1  UNL1        0.1232
     19 C          -0.0666    1.7149   25.2335 C.3     1  UNL1        0.0541
     20 C           0.8220    1.0692   24.2120 C.3     1  UNL1        0.0171
     21 C          -0.5140    3.1345   25.0481 C.3     1  UNL1        0.0171
     22 C           7.7953   -3.8320   30.0670 C.ar    1  UNL1        0.0000
     23 C           7.0629   -4.1719   31.3311 C.ar    1  UNL1        0.0001
     24 C           7.0867   -3.2206   32.4906 C.ar    1  UNL1        0.0045
     25 C           7.8428   -1.9294   32.3860 C.ar    1  UNL1        0.0536
     26 C           8.5753   -1.5895   31.1219 C.ar    1  UNL1        0.0045
     27 C           8.5515   -2.5408   29.9624 C.ar    1  UNL1        0.0001
     28 C           7.7240   -6.6859   26.5884 C.ar    1  UNL1       -0.0222
     29 C           6.4910   -5.9112   26.9484 C.ar    1  UNL1       -0.0043
     30 C           6.5148   -4.9599   28.1079 C.ar    1  UNL1       -0.0003
     31 C           7.7716   -4.7833   28.9075 C.ar    1  UNL1       -0.0000
     32 C           9.0045   -5.5579   28.5475 C.ar    1  UNL1       -0.0003
     33 C           8.9808   -6.5092   27.3880 C.ar    1  UNL1       -0.0043
     34 C           8.5865   -7.3964   24.2430 C.3     1  UNL1        0.0050
     35 C           7.7003   -7.6372   25.4289 C.3     1  UNL1        0.0264
@<TRIPOS>BOND
     1    34    35    1
     2    35    28    1
     3    28    29   ar
     4    29    30   ar
     5    30    31   ar
     6    31    22    1
     7    22    23   ar
     8    23    24   ar
     9    24    25   ar
    10    25     1    1
    11     1     2    2
    12     1     3   am
    13     3     4    1
    14     5     3    1
    15     5     6    1
    16     6     7    1
    17     7     8    1
    18     8     9   am
    19     9    10    2
    20     9    11   am
    21    11    12    1
    22    12    13    1
    23    13    14    1
    24    14    17    1
    25    17    19    1
    26    19    20    1
    27    19    21    1
    28    14    15    1
    29     8    16    1
    30    25    26   ar
    31    26    27   ar
    32    31    32   ar
    33    32    33   ar
    34    33    28   ar
    35    27    22   ar
    36    16     5    1
    37    15    11    1
    38    17    18    1
@<TRIPOS>MOLECULE
*****
 35 38 0 0 0
SMALL
GASTEIGER

@<TRIPOS>ATOM
      1 C           2.0094    2.9466   29.1879 C.2     1  UNL1        0.2491
      2 O           2.0351    3.3828   30.6228 O.2     1  UNL1       -0.2699
      3 N           3.2265    2.3230   28.5717 N.am    1  UNL1       -0.2742
      4 C           4.4692    2.1354   29.3904 C.3     1  UNL1        0.1152
      5 C           3.2008    1.8868   27.1367 C.3     1  UNL1        0.0972
      6 C           2.8508    2.7481   25.9595 C.3     1  UNL1        0.0431
      7 C           2.9544    1.9064   24.7223 C.3     1  UNL1        0.0968
      8 N           3.3684    0.5248   25.1348 N.am    1  UNL1       -0.2623
      9 C           3.5910   -0.6400   24.2163 C.2     1  UNL1        0.3073
     10 O           4.0054   -1.9683   24.7766 O.2     1  UNL1       -0.2523
     11 N           3.3992   -0.4766   22.7376 N.am    1  UNL1       -0.2626
     12 C           2.9889    0.7841   22.0358 C.3     1  UNL1        0.0964
     13 C           2.9201    0.4947   20.5656 C.3     1  UNL1        0.0390
     14 C           3.2879   -0.9448   20.3588 C.3     1  UNL1        0.0758
     15 C           3.5839   -1.5450   21.7012 C.3     1  UNL1        0.1106
     16 C           3.5207    0.5128   26.6269 C.3     1  UNL1        0.1147
     17 N           3.3489   -1.6586   19.0410 N.3     1  UNL1       -0.2982
     18 H           3.7104   -0.9903   18.3605 H       1  UNL1        0.1232
     19 C           4.1699   -2.9061   18.9011 C.3     1  UNL1        0.0541
     20 C           5.6252   -2.8106   18.5498 C.3     1  UNL1        0.0171
     21 C           3.5360   -4.2490   19.1125 C.3     1  UNL1        0.0171
     22 C          -1.7189    3.5094   26.7316 C.ar    1  UNL1        0.0000
     23 C          -0.8642    4.6920   27.0793 C.ar    1  UNL1        0.0001
     24 C           0.3785    4.5044   27.8981 C.ar    1  UNL1        0.0045
     25 C           0.7667    3.1342   28.3691 C.ar    1  UNL1        0.0536
     26 C          -0.0880    1.9516   28.0214 C.ar    1  UNL1        0.0045
     27 C          -1.3307    2.1392   27.2026 C.ar    1  UNL1        0.0001
     28 C          -5.4471    4.0721   24.2753 C.ar    1  UNL1       -0.0222
     29 C          -4.2106    3.5057   23.6428 C.ar    1  UNL1       -0.0043
     30 C          -2.9679    3.3181   24.4615 C.ar    1  UNL1       -0.0003
     31 C          -2.9616    3.6969   25.9128 C.ar    1  UNL1       -0.0000
     32 C          -4.1981    4.2633   26.5454 C.ar    1  UNL1       -0.0003
     33 C          -5.4409    4.4508   25.7267 C.ar    1  UNL1       -0.0043
     34 C          -6.5844    4.6425   22.0101 C.3     1  UNL1        0.0050
     35 C          -6.6899    4.2596   23.4566 C.3     1  UNL1        0.0264
@<TRIPOS>BOND
     1    34    35    1
     2    35    28    1
     3    28    29   ar
     4    29    30   ar
     5    30    31   ar
     6    31    22    1
     7    22    23   ar
     8    23    24   ar
     9    24    25   ar
    10    25     1    1
    11     1     2    2
    12     1     3   am
    13     3     4    1
    14     5     3    1
    15     5     6    1
    16     6     7    1
    17     7     8    1
    18     8     9   am
    19     9    10    2
    20     9    11   am
    21    11    12    1
    22    12    13    1
    23    13    14    1
    24    14    17    1
    25    17    19    1
    26    19    20    1
    27    19    21    1
    28    14    15    1
    29     8    16    1
    30    25    26   ar
    31    26    27   ar
    32    31    32   ar
    33    32    33   ar
    34    33    28   ar
    35    27    22   ar
    36    16     5    1
    37    15    11    1
    38    17    18    1
