@<TRIPOS>MOLECULE
*****
 24 26 0 0 0
SMALL
GASTEIGER

@<TRIPOS>ATOM
      1 N          -7.7637  -18.8345   22.2142 N.ar    1  UNL1       -0.2341
      2 N          -8.5065  -18.6933   23.5097 N.ar    1  UNL1       -0.1617
      3 C          -9.9689  -18.8701   23.2270 C.ar    1  UNL1        0.1696
      4 C         -10.1300  -19.1206   21.7569 C.ar    1  UNL1        0.0148
      5 C          -8.7670  -19.0986   21.1309 C.ar    1  UNL1        0.0579
      6 C          -8.6156  -19.3219   19.6554 C.3     1  UNL1        0.0456
      7 C          -9.8272  -19.5672   18.8059 C.3     1  UNL1        0.0066
      8 C         -11.1902  -19.5892   19.4318 C.3     1  UNL1        0.0052
      9 C         -11.3416  -19.3659   20.9073 C.3     1  UNL1        0.0291
     10 C          -3.3073  -18.5207   21.6727 C.ar    1  UNL1        0.0537
     11 C          -4.0011  -17.6656   22.6912 C.ar    1  UNL1        0.0061
     12 C          -5.4865  -17.7701   22.8717 C.ar    1  UNL1        0.0193
     13 C          -6.2782  -18.7299   22.0337 C.ar    1  UNL1        0.0824
     14 C          -5.5844  -19.5850   21.0153 C.ar    1  UNL1        0.0193
     15 C          -4.0990  -19.4805   20.8348 C.ar    1  UNL1        0.0061
     16 C           0.2283  -17.8208   20.0116 C.3     1  UNL1        0.1152
     17 N          -1.2572  -17.9254   20.1922 N.am    1  UNL1       -0.2726
     18 C          -2.1778  -17.5391   19.0727 C.3     1  UNL1        0.1152
     19 C          -1.8219  -18.4162   21.4922 C.2     1  UNL1        0.2491
     20 O          -0.9013  -18.8025   22.6117 O.2     1  UNL1       -0.2699
     21 C         -11.0761  -18.8075   24.2372 C.3     1  UNL1        0.4362
     22 F         -12.1832  -18.7447   25.2473 F       1  UNL1       -0.1644
     23 F         -11.4967  -17.4742   23.6935 F       1  UNL1       -0.1644
     24 F         -10.6555  -20.1406   24.7809 F       1  UNL1       -0.1644
@<TRIPOS>BOND
     1    16    17    1
     2    17    18    1
     3    17    19   am
     4    19    20    2
     5    19    10    1
     6    10    11   ar
     7    11    12   ar
     8    12    13   ar
     9    13     1    1
    10     1     2   ar
    11     2     3   ar
    12     3    21    1
    13    21    22    1
    14    21    23    1
    15    21    24    1
    16     3     4   ar
    17     4     5   ar
    18     5     6    1
    19     6     7    1
    20     7     8    1
    21     8     9    1
    22    13    14   ar
    23    14    15   ar
    24    15    10   ar
    25     5     1   ar
    26     9     4    1
@<TRIPOS>MOLECULE
*****
 24 26 0 0 0
SMALL
GASTEIGER

@<TRIPOS>ATOM
      1 N          -6.1222  -18.3700   22.3474 N.ar    1  UNL1       -0.2341
      2 N          -5.0901  -17.3575   22.7468 N.ar    1  UNL1       -0.1617
      3 C          -3.8023  -17.7150   22.0658 C.ar    1  UNL1        0.1696
      4 C          -4.0385  -18.9484   21.2455 C.ar    1  UNL1        0.0148
      5 C          -5.4723  -19.3533   21.4195 C.ar    1  UNL1        0.0579
      6 C          -6.0009  -20.5649   20.7107 C.3     1  UNL1        0.0456
      7 C          -5.0956  -21.3717   19.8278 C.3     1  UNL1        0.0066
      8 C          -3.6618  -20.9668   19.6537 C.3     1  UNL1        0.0052
      9 C          -3.1333  -19.7552   20.3626 C.3     1  UNL1        0.0291
     10 C         -10.4148  -18.4450   23.6959 C.ar    1  UNL1        0.0537
     11 C          -9.7625  -19.7013   23.1998 C.ar    1  UNL1        0.0061
     12 C          -8.3317  -19.6763   22.7503 C.ar    1  UNL1        0.0193
     13 C          -7.5531  -18.3950   22.7969 C.ar    1  UNL1        0.0824
     14 C          -8.2054  -17.1388   23.2930 C.ar    1  UNL1        0.0193
     15 C          -9.6363  -17.1637   23.7425 C.ar    1  UNL1        0.0061
     16 C         -14.3587  -18.0030   23.6799 C.3     1  UNL1        0.1152
     17 N         -12.9278  -17.9781   23.2305 N.am    1  UNL1       -0.2726
     18 C         -12.5792  -17.4614   21.8662 C.3     1  UNL1        0.1152
     19 C         -11.8457  -18.4699   24.1454 C.2     1  UNL1        0.2491
     20 O         -12.1943  -18.9867   25.5097 O.2     1  UNL1       -0.2699
     21 C          -2.5059  -16.9698   22.1843 C.3     1  UNL1        0.4362
     22 F          -1.2094  -16.2247   22.3028 F       1  UNL1       -0.1644
     23 F          -2.1814  -17.7331   23.4341 F       1  UNL1       -0.1644
     24 F          -2.8304  -16.2065   20.9345 F       1  UNL1       -0.1644
@<TRIPOS>BOND
     1    16    17    1
     2    17    18    1
     3    17    19   am
     4    19    20    2
     5    19    10    1
     6    10    11   ar
     7    11    12   ar
     8    12    13   ar
     9    13     1    1
    10     1     2   ar
    11     2     3   ar
    12     3    21    1
    13    21    22    1
    14    21    23    1
    15    21    24    1
    16     3     4   ar
    17     4     5   ar
    18     5     6    1
    19     6     7    1
    20     7     8    1
    21     8     9    1
    22    13    14   ar
    23    14    15   ar
    24    15    10   ar
    25     5     1   ar
    26     9     4    1
@<TRIPOS>MOLECULE
*****
 24 26 0 0 0
SMALL
GASTEIGER

@<TRIPOS>ATOM
      1 N         -13.4796   -5.2874   18.2485 N.ar    1  UNL1       -0.2341
      2 N         -13.3395   -3.7991   18.1251 N.ar    1  UNL1       -0.1617
      3 C         -11.8928   -3.4523   18.3171 C.ar    1  UNL1        0.1696
      4 C         -11.1389   -4.7262   18.5593 C.ar    1  UNL1        0.0148
      5 C         -12.1196   -5.8605   18.5169 C.ar    1  UNL1        0.0579
      6 C         -11.6475   -7.2684   18.7281 C.3     1  UNL1        0.0456
      7 C         -10.1947   -7.5422   18.9817 C.3     1  UNL1        0.0066
      8 C          -9.2140   -6.4080   19.0241 C.3     1  UNL1        0.0052
      9 C          -9.6861   -5.0000   18.8129 C.3     1  UNL1        0.0291
     10 C         -17.3080   -7.6235   17.8786 C.ar    1  UNL1        0.0537
     11 C         -16.4210   -7.4430   16.6825 C.ar    1  UNL1        0.0061
     12 C         -15.1449   -6.6643   16.8058 C.ar    1  UNL1        0.0193
     13 C         -14.7557   -6.0661   18.1252 C.ar    1  UNL1        0.0824
     14 C         -15.6427   -6.2466   19.3212 C.ar    1  UNL1        0.0193
     15 C         -16.9189   -7.0253   19.1980 C.ar    1  UNL1        0.0061
     16 C         -19.8585  -10.6640   17.8568 C.3     1  UNL1        0.1152
     17 N         -18.5824   -9.8852   17.9800 N.am    1  UNL1       -0.2726
     18 C         -17.3046  -10.5896   18.3280 C.3     1  UNL1        0.1152
     19 C         -18.5841   -8.4022   17.7553 C.2     1  UNL1        0.2491
     20 O         -19.8619   -7.6978   17.4074 O.2     1  UNL1       -0.2699
     21 C         -11.3035   -2.0736   18.2745 C.3     1  UNL1        0.4362
     22 F         -10.7143   -0.6948   18.2320 F       1  UNL1       -0.1644
     23 F         -12.0234   -1.7267   19.5440 F       1  UNL1       -0.1644
     24 F         -10.5837   -2.4204   17.0051 F       1  UNL1       -0.1644
@<TRIPOS>BOND
     1    16    17    1
     2    17    18    1
     3    17    19   am
     4    19    20    2
     5    19    10    1
     6    10    11   ar
     7    11    12   ar
     8    12    13   ar
     9    13     1    1
    10     1     2   ar
    11     2     3   ar
    12     3    21    1
    13    21    22    1
    14    21    23    1
    15    21    24    1
    16     3     4   ar
    17     4     5   ar
    18     5     6    1
    19     6     7    1
    20     7     8    1
    21     8     9    1
    22    13    14   ar
    23    14    15   ar
    24    15    10   ar
    25     5     1   ar
    26     9     4    1
@<TRIPOS>MOLECULE
*****
 24 26 0 0 0
SMALL
GASTEIGER

@<TRIPOS>ATOM
      1 N           2.8619   -1.4513   19.9949 N.ar    1  UNL1       -0.2341
      2 N           3.1318   -2.5536   19.0141 N.ar    1  UNL1       -0.1617
      3 C           3.9506   -3.6014   19.7081 C.ar    1  UNL1        0.1696
      4 C           4.1868   -3.1466   21.1179 C.ar    1  UNL1        0.0148
      5 C           3.5139   -1.8178   21.2951 C.ar    1  UNL1        0.0579
      6 C           3.5819   -1.1132   22.6176 C.3     1  UNL1        0.0456
      7 C           4.3227   -1.7374   23.7627 C.3     1  UNL1        0.0066
      8 C           4.9956   -3.0662   23.5855 C.3     1  UNL1        0.0052
      9 C           4.9277   -3.7708   22.2630 C.3     1  UNL1        0.0291
     10 C           0.5090    2.2971   19.1801 C.ar    1  UNL1        0.0537
     11 C          -0.0219    1.2716   20.1374 C.ar    1  UNL1        0.0061
     12 C           0.7624    0.0221   20.4090 C.ar    1  UNL1        0.0193
     13 C           2.0776   -0.2018   19.7233 C.ar    1  UNL1        0.0824
     14 C           2.6084    0.8237   18.7660 C.ar    1  UNL1        0.0193
     15 C           1.8242    2.0731   18.4944 C.ar    1  UNL1        0.0061
     16 C          -0.9318    5.9759   19.5542 C.3     1  UNL1        0.1152
     17 N          -0.1476    4.7264   19.8258 N.am    1  UNL1       -0.2726
     18 C           0.7643    4.6569   21.0147 C.3     1  UNL1        0.1152
     19 C          -0.2753    3.5465   18.9084 C.2     1  UNL1        0.2491
     20 O          -1.1871    3.6161   17.7195 O.2     1  UNL1       -0.2699
     21 C           4.4463   -4.8795   19.0993 C.3     1  UNL1        0.4362
     22 F           4.9421   -6.1576   18.4904 F       1  UNL1       -0.1644
     23 F           5.4549   -4.1080   18.3008 F       1  UNL1       -0.1644
     24 F           3.4379   -5.6510   19.8977 F       1  UNL1       -0.1644
@<TRIPOS>BOND
     1    16    17    1
     2    17    18    1
     3    17    19   am
     4    19    20    2
     5    19    10    1
     6    10    11   ar
     7    11    12   ar
     8    12    13   ar
     9    13     1    1
    10     1     2   ar
    11     2     3   ar
    12     3    21    1
    13    21    22    1
    14    21    23    1
    15    21    24    1
    16     3     4   ar
    17     4     5   ar
    18     5     6    1
    19     6     7    1
    20     7     8    1
    21     8     9    1
    22    13    14   ar
    23    14    15   ar
    24    15    10   ar
    25     5     1   ar
    26     9     4    1
@<TRIPOS>MOLECULE
*****
 24 26 0 0 0
SMALL
GASTEIGER

@<TRIPOS>ATOM
      1 N         -12.0117   -3.7198   18.0614 N.ar    1  UNL1       -0.2341
      2 N         -10.6844   -4.4143   18.1375 N.ar    1  UNL1       -0.1617
      3 C         -10.9352   -5.8609   18.4445 C.ar    1  UNL1        0.1696
      4 C         -12.4175   -6.0605   18.5581 C.ar    1  UNL1        0.0148
      5 C         -13.0828   -4.7372   18.3214 C.ar    1  UNL1        0.0579
      6 C         -14.5780   -4.6296   18.3732 C.3     1  UNL1        0.0456
      7 C         -15.4079   -5.8453   18.6616 C.3     1  UNL1        0.0066
      8 C         -14.7425   -7.1687   18.8984 C.3     1  UNL1        0.0052
      9 C         -13.2473   -7.2763   18.8466 C.3     1  UNL1        0.0291
     10 C         -12.6658    0.6491   17.2040 C.ar    1  UNL1        0.0537
     11 C         -13.1700    0.0525   18.4845 C.ar    1  UNL1        0.0061
     12 C         -12.9520   -1.4038   18.7703 C.ar    1  UNL1        0.0193
     13 C         -12.2297   -2.2635   17.7756 C.ar    1  UNL1        0.0824
     14 C         -11.7256   -1.6668   16.4951 C.ar    1  UNL1        0.0193
     15 C         -11.9436   -0.2105   16.2093 C.ar    1  UNL1        0.0061
     16 C         -14.3968    4.0224   16.0314 C.3     1  UNL1        0.1152
     17 N         -14.1787    2.5661   16.3173 N.am    1  UNL1       -0.2726
     18 C         -15.2555    1.5705   16.0024 C.3     1  UNL1        0.1152
     19 C         -12.8838    2.1054   16.9181 C.2     1  UNL1        0.2491
     20 O         -11.8069    3.1010   17.2330 O.2     1  UNL1       -0.2699
     21 C          -9.8875   -6.9218   18.6089 C.3     1  UNL1        0.4362
     22 F          -8.8400   -7.9828   18.7733 F       1  UNL1       -0.1644
     23 F         -10.5206   -7.7178   17.5063 F       1  UNL1       -0.1644
     24 F          -9.2546   -6.1259   19.7115 F       1  UNL1       -0.1644
@<TRIPOS>BOND
     1    16    17    1
     2    17    18    1
     3    17    19   am
     4    19    20    2
     5    19    10    1
     6    10    11   ar
     7    11    12   ar
     8    12    13   ar
     9    13     1    1
    10     1     2   ar
    11     2     3   ar
    12     3    21    1
    13    21    22    1
    14    21    23    1
    15    21    24    1
    16     3     4   ar
    17     4     5   ar
    18     5     6    1
    19     6     7    1
    20     7     8    1
    21     8     9    1
    22    13    14   ar
    23    14    15   ar
    24    15    10   ar
    25     5     1   ar
    26     9     4    1
@<TRIPOS>MOLECULE
*****
 24 26 0 0 0
SMALL
GASTEIGER

@<TRIPOS>ATOM
      1 N           6.8036   -4.4189   24.0906 N.ar    1  UNL1       -0.2341
      2 N           6.3450   -3.9110   25.4254 N.ar    1  UNL1       -0.1617
      3 C           6.9366   -4.7927   26.4850 C.ar    1  UNL1        0.1696
      4 C           7.7608   -5.8455   25.8050 C.ar    1  UNL1        0.0148
      5 C           7.6785   -5.6145   24.3252 C.ar    1  UNL1        0.0579
      6 C           8.4110   -6.5226   23.3825 C.3     1  UNL1        0.0456
      7 C           9.2257   -7.6618   23.9196 C.3     1  UNL1        0.0066
      8 C           9.3079   -7.8928   25.3994 C.3     1  UNL1        0.0052
      9 C           8.5755   -6.9847   26.3421 C.3     1  UNL1        0.0291
     10 C           5.7410   -2.6639   20.0855 C.ar    1  UNL1        0.0537
     11 C           7.1517   -2.5839   20.5889 C.ar    1  UNL1        0.0061
     12 C           7.5059   -3.1689   21.9239 C.ar    1  UNL1        0.0193
     13 C           6.4493   -3.8339   22.7556 C.ar    1  UNL1        0.0824
     14 C           5.0387   -3.9139   22.2521 C.ar    1  UNL1        0.0193
     15 C           4.6845   -3.3290   20.9170 C.ar    1  UNL1        0.0061
     16 C           4.2798   -0.1986   17.3401 C.3     1  UNL1        0.1152
     17 N           4.6341   -0.7837   18.6751 N.am    1  UNL1       -0.2726
     18 C           4.2356   -0.0734   19.9347 C.3     1  UNL1        0.1152
     19 C           5.3868   -2.0790   18.7504 C.2     1  UNL1        0.2491
     20 O           5.7852   -2.7892   17.4908 O.2     1  UNL1       -0.2699
     21 C           6.7388   -4.6472   27.9647 C.3     1  UNL1        0.4362
     22 F           6.5410   -4.5016   29.4445 F       1  UNL1       -0.1644
     23 F           7.7115   -3.5055   27.9825 F       1  UNL1       -0.1644
     24 F           5.7661   -5.7889   27.9470 F       1  UNL1       -0.1644
@<TRIPOS>BOND
     1    16    17    1
     2    17    18    1
     3    17    19   am
     4    19    20    2
     5    19    10    1
     6    10    11   ar
     7    11    12   ar
     8    12    13   ar
     9    13     1    1
    10     1     2   ar
    11     2     3   ar
    12     3    21    1
    13    21    22    1
    14    21    23    1
    15    21    24    1
    16     3     4   ar
    17     4     5   ar
    18     5     6    1
    19     6     7    1
    20     7     8    1
    21     8     9    1
    22    13    14   ar
    23    14    15   ar
    24    15    10   ar
    25     5     1   ar
    26     9     4    1
@<TRIPOS>MOLECULE
*****
 24 26 0 0 0
SMALL
GASTEIGER

@<TRIPOS>ATOM
      1 N         -13.0701   -3.2287   18.7334 N.ar    1  UNL1       -0.2341
      2 N         -11.6404   -3.6188   18.5016 N.ar    1  UNL1       -0.1617
      3 C         -11.5579   -5.1163   18.5315 C.ar    1  UNL1        0.1696
      4 C         -12.9366   -5.6516   18.7818 C.ar    1  UNL1        0.0148
      5 C         -13.8712   -4.4850   18.9065 C.ar    1  UNL1        0.0579
      6 C         -15.3309   -4.7173   19.1617 C.3     1  UNL1        0.0456
      7 C         -15.8561   -6.1163   19.2921 C.3     1  UNL1        0.0066
      8 C         -14.9215   -7.2829   19.1673 C.3     1  UNL1        0.0052
      9 C         -13.4617   -7.0505   18.9122 C.3     1  UNL1        0.0291
     10 C         -14.6744    0.9730   18.8831 C.ar    1  UNL1        0.0537
     11 C         -15.4826   -0.1588   19.4450 C.ar    1  UNL1        0.0061
     12 C         -14.9478   -1.5594   19.3951 C.ar    1  UNL1        0.0193
     13 C         -13.6048   -1.8281   18.7832 C.ar    1  UNL1        0.0824
     14 C         -12.7967   -0.6963   18.2214 C.ar    1  UNL1        0.0193
     15 C         -13.3315    0.7043   18.2713 C.ar    1  UNL1        0.0061
     16 C         -16.5737    4.3008   17.8496 C.3     1  UNL1        0.1152
     17 N         -16.0389    2.9003   17.7998 N.am    1  UNL1       -0.2726
     18 C         -16.3340    2.0265   16.6169 C.3     1  UNL1        0.1152
     19 C         -15.2091    2.3736   18.9329 C.2     1  UNL1        0.2491
     20 O         -14.9140    3.2474   20.1159 O.2     1  UNL1       -0.2699
     21 C         -10.3149   -5.9347   18.3440 C.3     1  UNL1        0.4362
     22 F          -9.0719   -6.7532   18.1566 F       1  UNL1       -0.1644
     23 F          -9.7476   -5.3631   19.6095 F       1  UNL1       -0.1644
     24 F         -10.8822   -6.5064   17.0786 F       1  UNL1       -0.1644
@<TRIPOS>BOND
     1    16    17    1
     2    17    18    1
     3    17    19   am
     4    19    20    2
     5    19    10    1
     6    10    11   ar
     7    11    12   ar
     8    12    13   ar
     9    13     1    1
    10     1     2   ar
    11     2     3   ar
    12     3    21    1
    13    21    22    1
    14    21    23    1
    15    21    24    1
    16     3     4   ar
    17     4     5   ar
    18     5     6    1
    19     6     7    1
    20     7     8    1
    21     8     9    1
    22    13    14   ar
    23    14    15   ar
    24    15    10   ar
    25     5     1   ar
    26     9     4    1
@<TRIPOS>MOLECULE
*****
 24 26 0 0 0
SMALL
GASTEIGER

@<TRIPOS>ATOM
      1 N         -13.7387   -4.8050   18.4293 N.ar    1  UNL1       -0.2341
      2 N         -12.3779   -5.2936   18.0299 N.ar    1  UNL1       -0.1617
      3 C         -12.4002   -6.7933   18.0483 C.ar    1  UNL1        0.1696
      4 C         -13.7747   -7.2316   18.4590 C.ar    1  UNL1        0.0148
      5 C         -14.6020   -6.0026   18.6945 C.ar    1  UNL1        0.0579
      6 C         -16.0344   -6.1330   19.1200 C.3     1  UNL1        0.0456
      7 C         -16.6396   -7.4922   19.3100 C.3     1  UNL1        0.0066
      8 C         -15.8123   -8.7211   19.0746 C.3     1  UNL1        0.0052
      9 C         -14.3799   -8.5908   18.6491 C.3     1  UNL1        0.0291
     10 C         -15.0084   -0.5014   18.7718 C.ar    1  UNL1        0.0537
     11 C         -15.1098   -1.4101   19.9608 C.ar    1  UNL1        0.0061
     12 C         -14.6865   -2.8447   19.8467 C.ar    1  UNL1        0.0193
     13 C         -14.1619   -3.3704   18.5434 C.ar    1  UNL1        0.0824
     14 C         -14.0606   -2.4617   17.3544 C.ar    1  UNL1        0.0193
     15 C         -14.4839   -1.0272   17.4686 C.ar    1  UNL1        0.0061
     16 C         -17.2922    2.7442   18.7935 C.3     1  UNL1        0.1152
     17 N         -16.8688    1.3097   18.6794 N.am    1  UNL1       -0.2726
     18 C         -17.8828    0.2518   18.3587 C.3     1  UNL1        0.1152
     19 C         -15.4317    0.9331   18.8859 C.2     1  UNL1        0.2491
     20 O         -14.4177    1.9910   19.2066 O.2     1  UNL1       -0.2699
     21 C         -11.2499   -7.6964   17.7145 C.3     1  UNL1        0.4362
     22 F         -10.0996   -8.5994   17.3807 F       1  UNL1       -0.1644
     23 F         -11.9261   -8.0839   16.4329 F       1  UNL1       -0.1644
     24 F         -10.5738   -7.3089   18.9961 F       1  UNL1       -0.1644
@<TRIPOS>BOND
     1    16    17    1
     2    17    18    1
     3    17    19   am
     4    19    20    2
     5    19    10    1
     6    10    11   ar
     7    11    12   ar
     8    12    13   ar
     9    13     1    1
    10     1     2   ar
    11     2     3   ar
    12     3    21    1
    13    21    22    1
    14    21    23    1
    15    21    24    1
    16     3     4   ar
    17     4     5   ar
    18     5     6    1
    19     6     7    1
    20     7     8    1
    21     8     9    1
    22    13    14   ar
    23    14    15   ar
    24    15    10   ar
    25     5     1   ar
    26     9     4    1
@<TRIPOS>MOLECULE
*****
 24 26 0 0 0
SMALL
GASTEIGER

@<TRIPOS>ATOM
      1 N           5.3970   -3.2565   23.0333 N.ar    1  UNL1       -0.2341
      2 N           5.6310   -4.2223   21.9097 N.ar    1  UNL1       -0.1617
      3 C           4.7463   -3.8252   20.7653 C.ar    1  UNL1        0.1696
      4 C           3.9656   -2.6139   21.1816 C.ar    1  UNL1        0.0148
      5 C           4.3678   -2.2624   22.5833 C.ar    1  UNL1        0.0579
      6 C           3.7448   -1.0826   23.2688 C.3     1  UNL1        0.0456
      7 C           2.7197   -0.2543   22.5526 C.3     1  UNL1        0.0066
      8 C           2.3176   -0.6057   21.1509 C.3     1  UNL1        0.0052
      9 C           2.9405   -1.7855   20.4654 C.3     1  UNL1        0.0291
     10 C           7.4265   -3.3286   27.0490 C.ar    1  UNL1        0.0537
     11 C           7.8589   -4.2800   25.9730 C.ar    1  UNL1        0.0061
     12 C           7.1825   -4.2560   24.6344 C.ar    1  UNL1        0.0193
     13 C           6.0735   -3.2805   24.3719 C.ar    1  UNL1        0.0824
     14 C           5.6412   -2.3292   25.4479 C.ar    1  UNL1        0.0193
     15 C           6.3176   -2.3532   26.7865 C.ar    1  UNL1        0.0061
     16 C           8.3506   -4.3696   30.7655 C.3     1  UNL1        0.1152
     17 N           7.6741   -4.3455   29.4269 N.am    1  UNL1       -0.2726
     18 C           6.5688   -5.3144   29.1277 C.3     1  UNL1        0.1152
     19 C           8.1030   -3.3526   28.3876 C.2     1  UNL1        0.2491
     20 O           9.2084   -2.3838   28.6868 O.2     1  UNL1       -0.2699
     21 C           4.6579   -4.5177   19.4377 C.3     1  UNL1        0.4362
     22 F           4.5694   -5.2103   18.1101 F       1  UNL1       -0.1644
     23 F           3.5522   -5.3843   19.9634 F       1  UNL1       -0.1644
     24 F           5.7635   -3.6511   18.9120 F       1  UNL1       -0.1644
@<TRIPOS>BOND
     1    16    17    1
     2    17    18    1
     3    17    19   am
     4    19    20    2
     5    19    10    1
     6    10    11   ar
     7    11    12   ar
     8    12    13   ar
     9    13     1    1
    10     1     2   ar
    11     2     3   ar
    12     3    21    1
    13    21    22    1
    14    21    23    1
    15    21    24    1
    16     3     4   ar
    17     4     5   ar
    18     5     6    1
    19     6     7    1
    20     7     8    1
    21     8     9    1
    22    13    14   ar
    23    14    15   ar
    24    15    10   ar
    25     5     1   ar
    26     9     4    1
