@<TRIPOS>MOLECULE
*****
 37 41 0 0 0
SMALL
GASTEIGER

@<TRIPOS>ATOM
      1 C          -5.9462  -19.4713   21.0204 C.3     1  UNL1        0.1411
      2 C          -5.2399  -19.7486   22.3143 C.3     1  UNL1        0.0448
      3 C          -3.7672  -19.4908   22.4350 C.3     1  UNL1        0.0255
      4 C          -4.4279  -19.4444   21.8812 C.3     1  UNL1        0.0045
      5 C          -5.1504  -19.4083   21.3208 C.3     1  UNL1        0.0008
      6 C          -5.2079  -19.1993   20.6408 C.3     1  UNL1        0.0078
      7 C          -5.1799  -18.9362   19.8472 C.3     1  UNL1        0.0588
      8 C          -3.7071  -18.6784   19.9679 C.ar    1  UNL1       -0.0231
      9 C          -2.9407  -18.1433   18.7948 C.ar    1  UNL1       -0.0045
     10 C          -1.4680  -17.8855   18.9156 C.ar    1  UNL1       -0.0003
     11 C          -0.7617  -18.1628   20.2095 C.ar    1  UNL1       -0.0003
     12 C          -1.5280  -18.6979   21.3826 C.ar    1  UNL1       -0.0046
     13 C          -3.0007  -18.9557   21.2619 C.ar    1  UNL1       -0.0262
     14 C          -7.0967  -19.9703   21.8434 C.3     1  UNL1        0.0577
     15 C          -8.2026  -19.0343   22.2318 C.3     1  UNL1        0.0757
     16 N          -9.4041  -19.5555   22.9631 N.3     1  UNL1       -0.2714
     17 C          -9.2505  -20.6593   23.9671 C.3     1  UNL1        0.0896
     18 C         -10.7591  -18.9728   22.6905 C.3     1  UNL1        0.0728
     19 C         -10.8930  -17.7642   21.8120 C.3     1  UNL1        0.0303
     20 C         -10.7107  -16.3925   22.3907 C.3     1  UNL1        0.1247
     21 C          -6.0406  -15.2241   24.6622 C.2     1  UNL1        0.1731
     22 C          -5.5703  -15.1541   26.0848 C.2     1  UNL1        0.0374
     23 C          -6.5215  -15.4552   27.2049 C.2     1  UNL1        0.0065
     24 C          -7.9430  -15.8264   26.9023 C.2     1  UNL1        0.0470
     25 C          -8.4133  -15.8964   25.4796 C.2     1  UNL1        0.2269
     26 N          -9.7460  -16.2317   24.8785 N.2     1  UNL1       -0.0385
     27 C          -9.6185  -16.1378   23.3868 C.2     1  UNL1        0.3469
     28 N          -8.2070  -15.7444   23.0661 N.2     1  UNL1       -0.0518
     29 C          -7.4621  -15.5952   24.3595 C.3     1  UNL1        0.3344
     30 C          -4.1064  -15.9631   23.0929 C.3     1  UNL1        0.2522
     31 O          -5.0895  -14.9229   23.5421 O.2     1  UNL1       -0.4709
     32 O          -7.0521  -19.3673   20.0123 O.3     1  UNL1       -0.4554
     33 C          -7.5611  -20.6009   19.3273 C.2     1  UNL1        0.3162
     34 O          -6.7652  -21.8711   19.3814 O.2     1  UNL1       -0.2501
     35 C          -8.8658  -20.5642   18.5884 C.3     1  UNL1        0.0991
     36 C          -9.0666  -21.4268   17.3777 C.3     1  UNL1        0.0116
     37 C          -9.9699  -19.6650   19.0600 C.3     1  UNL1        0.0116
@<TRIPOS>BOND
     1    30    31    1
     2    31    21    1
     3    21    22    2
     4    22    23    1
     5    23    24    2
     6    24    25    1
     7    25    26    2
     8    26    27    1
     9    27    20    1
    10    20    19    1
    11    19    18    1
    12    18    16    1
    13    16    17    1
    14    16    15    1
    15    15    14    1
    16     1    14    1
    17     1    32    1
    18    32    33    1
    19    33    34    2
    20    33    35    1
    21    35    36    1
    22    35    37    1
    23     1     2    1
    24     3     2    1
    25     3     4    1
    26     4     5    1
    27     5     6    1
    28     7     6    1
    29     7     8    1
    30     8     9   ar
    31     9    10   ar
    32    10    11   ar
    33    11    12   ar
    34    12    13   ar
    35    27    28    2
    36    28    29    1
    37    29    21    1
    38    29    25    1
    39     7     1    1
    40    13     8   ar
    41    13     3    1
@<TRIPOS>MOLECULE
*****
 37 41 0 0 0
SMALL
GASTEIGER

@<TRIPOS>ATOM
      1 C          -5.7880  -18.9983   21.2095 C.3     1  UNL1        0.1411
      2 C          -6.1991  -19.5550   22.5403 C.3     1  UNL1        0.0448
      3 C          -7.6220  -19.9687   22.7730 C.3     1  UNL1        0.0255
      4 C          -7.0934  -19.6383   22.1758 C.3     1  UNL1        0.0045
      5 C          -6.5053  -19.2900   21.5673 C.3     1  UNL1        0.0008
      6 C          -6.5979  -19.0781   20.8921 C.3     1  UNL1        0.0078
      7 C          -6.7997  -18.8553   20.1114 C.3     1  UNL1        0.0588
      8 C          -8.2227  -19.2690   20.3440 C.ar    1  UNL1       -0.0231
      9 C          -9.2344  -19.1260   19.2459 C.ar    1  UNL1       -0.0045
     10 C         -10.6573  -19.5397   19.4785 C.ar    1  UNL1       -0.0003
     11 C         -11.0684  -20.0964   20.8093 C.ar    1  UNL1       -0.0003
     12 C         -10.0567  -20.2394   21.9075 C.ar    1  UNL1       -0.0046
     13 C          -8.6338  -19.8257   21.6748 C.ar    1  UNL1       -0.0262
     14 C          -4.4751  -18.9410   21.9327 C.3     1  UNL1        0.0577
     15 C          -3.8247  -17.6166   22.2028 C.3     1  UNL1        0.0757
     16 N          -4.1245  -16.8791   23.4741 N.3     1  UNL1       -0.2714
     17 C          -3.8898  -17.5423   24.7990 C.3     1  UNL1        0.0896
     18 C          -4.6590  -15.4787   23.4206 C.3     1  UNL1        0.0728
     19 C          -6.0792  -15.2023   23.8167 C.3     1  UNL1        0.0303
     20 C          -7.0111  -16.3404   24.1099 C.3     1  UNL1        0.1247
     21 C         -12.0747  -17.3879   22.8458 C.2     1  UNL1        0.1731
     22 C         -12.9168  -17.1152   21.6349 C.2     1  UNL1        0.0374
     23 C         -12.3260  -16.4006   20.4558 C.2     1  UNL1        0.0065
     24 C         -10.8929  -15.9586   20.4877 C.2     1  UNL1        0.0470
     25 C         -10.0508  -16.2313   21.6987 C.2     1  UNL1        0.2269
     26 N          -8.6189  -15.9175   22.0167 N.2     1  UNL1       -0.0385
     27 C          -8.3247  -16.4382   23.3924 C.2     1  UNL1        0.3469
     28 N          -9.5749  -17.0738   23.9245 N.2     1  UNL1       -0.0518
     29 C         -10.6416  -16.9459   22.8777 C.3     1  UNL1        0.3344
     30 C         -14.1507  -18.1010   24.2358 C.3     1  UNL1        0.2522
     31 O         -12.6655  -18.1025   24.0249 O.2     1  UNL1       -0.4709
     32 O          -4.9209  -18.4217   20.1299 O.3     1  UNL1       -0.4554
     33 C          -3.7325  -19.1898   19.6321 C.2     1  UNL1        0.3162
     34 O          -3.8034  -20.6829   19.5071 O.2     1  UNL1       -0.2501
     35 C          -2.4734  -18.4648   19.2592 C.3     1  UNL1        0.0991
     36 C          -1.1788  -18.8164   19.9302 C.3     1  UNL1        0.0116
     37 C          -2.5089  -17.3883   18.2152 C.3     1  UNL1        0.0116
@<TRIPOS>BOND
     1    30    31    1
     2    31    21    1
     3    21    22    2
     4    22    23    1
     5    23    24    2
     6    24    25    1
     7    25    26    2
     8    26    27    1
     9    27    20    1
    10    20    19    1
    11    19    18    1
    12    18    16    1
    13    16    17    1
    14    16    15    1
    15    15    14    1
    16     1    14    1
    17     1    32    1
    18    32    33    1
    19    33    34    2
    20    33    35    1
    21    35    36    1
    22    35    37    1
    23     1     2    1
    24     3     2    1
    25     3     4    1
    26     4     5    1
    27     5     6    1
    28     7     6    1
    29     7     8    1
    30     8     9   ar
    31     9    10   ar
    32    10    11   ar
    33    11    12   ar
    34    12    13   ar
    35    27    28    2
    36    28    29    1
    37    29    21    1
    38    29    25    1
    39     7     1    1
    40    13     8   ar
    41    13     3    1
@<TRIPOS>MOLECULE
*****
 37 41 0 0 0
SMALL
GASTEIGER

@<TRIPOS>ATOM
      1 C          -9.2194  -17.0576   23.3364 C.3     1  UNL1        0.1411
      2 C          -8.0225  -16.6421   22.5334 C.3     1  UNL1        0.0448
      3 C          -6.8575  -15.9828   23.2101 C.3     1  UNL1        0.0255
      4 C          -7.6381  -16.3187   23.3623 C.3     1  UNL1        0.0045
      5 C          -8.4684  -16.6824   23.4875 C.3     1  UNL1        0.0008
      6 C          -8.8626  -16.7624   24.0771 C.3     1  UNL1        0.0078
      7 C          -9.2513  -16.8137   24.8160 C.3     1  UNL1        0.0588
      8 C          -8.0863  -16.1543   25.4928 C.ar    1  UNL1       -0.0231
      9 C          -8.1182  -15.9104   26.9725 C.ar    1  UNL1       -0.0045
     10 C          -6.9532  -15.2510   27.6491 C.ar    1  UNL1       -0.0003
     11 C          -5.7563  -14.8356   26.8461 C.ar    1  UNL1       -0.0003
     12 C          -5.7244  -15.0795   25.3665 C.ar    1  UNL1       -0.0046
     13 C          -6.8894  -15.7388   24.6898 C.ar    1  UNL1       -0.0262
     14 C          -9.6559  -17.4990   21.9709 C.3     1  UNL1        0.0577
     15 C          -9.4419  -18.9192   21.5377 C.3     1  UNL1        0.0757
     16 N          -9.3981  -19.2594   20.0775 N.3     1  UNL1       -0.2714
     17 C         -10.6667  -19.2965   19.2777 C.3     1  UNL1        0.0896
     18 C          -8.0860  -19.5624   19.4170 C.3     1  UNL1        0.0728
     19 C          -7.6343  -20.9846   19.2635 C.3     1  UNL1        0.0303
     20 C          -6.3828  -21.4519   19.9456 C.3     1  UNL1        0.1247
     21 C          -2.3495  -18.1048   20.8749 C.2     1  UNL1        0.1731
     22 C          -1.9844  -17.2192   22.0292 C.2     1  UNL1        0.0374
     23 C          -2.8602  -17.1738   23.2461 C.2     1  UNL1        0.0065
     24 C          -4.1012  -18.0140   23.3086 C.2     1  UNL1        0.0470
     25 C          -4.4664  -18.8996   22.1543 C.2     1  UNL1        0.2269
     26 N          -5.6190  -19.8331   21.9309 N.2     1  UNL1       -0.0385
     27 C          -5.4555  -20.4555   20.5760 C.2     1  UNL1        0.3469
     28 N          -4.2018  -19.9066   19.9619 N.2     1  UNL1       -0.0518
     29 C          -3.5905  -18.9450   20.9374 C.3     1  UNL1        0.3344
     30 C          -0.0150  -17.8190   19.7710 C.3     1  UNL1        0.2522
     31 O          -1.4737  -18.1502   19.6580 O.2     1  UNL1       -0.4709
     32 O         -10.5679  -17.6264   23.6651 O.3     1  UNL1       -0.4554
     33 C         -11.8090  -16.9600   23.1498 C.2     1  UNL1        0.3162
     34 O         -11.7743  -15.5136   22.7539 O.2     1  UNL1       -0.2501
     35 C         -13.0846  -17.7399   23.0303 C.3     1  UNL1        0.0991
     36 C         -13.5587  -18.2008   21.6839 C.3     1  UNL1        0.0116
     37 C         -13.8864  -18.0589   24.2573 C.3     1  UNL1        0.0116
@<TRIPOS>BOND
     1    30    31    1
     2    31    21    1
     3    21    22    2
     4    22    23    1
     5    23    24    2
     6    24    25    1
     7    25    26    2
     8    26    27    1
     9    27    20    1
    10    20    19    1
    11    19    18    1
    12    18    16    1
    13    16    17    1
    14    16    15    1
    15    15    14    1
    16     1    14    1
    17     1    32    1
    18    32    33    1
    19    33    34    2
    20    33    35    1
    21    35    36    1
    22    35    37    1
    23     1     2    1
    24     3     2    1
    25     3     4    1
    26     4     5    1
    27     5     6    1
    28     7     6    1
    29     7     8    1
    30     8     9   ar
    31     9    10   ar
    32    10    11   ar
    33    11    12   ar
    34    12    13   ar
    35    27    28    2
    36    28    29    1
    37    29    21    1
    38    29    25    1
    39     7     1    1
    40    13     8   ar
    41    13     3    1
@<TRIPOS>MOLECULE
*****
 37 41 0 0 0
SMALL
GASTEIGER

@<TRIPOS>ATOM
      1 C          -9.3494  -17.5079   23.1102 C.3     1  UNL1        0.1411
      2 C          -8.3727  -16.5855   22.4430 C.3     1  UNL1        0.0448
      3 C          -7.4510  -15.7416   23.2727 C.3     1  UNL1        0.0255
      4 C          -8.0806  -16.3295   23.3310 C.3     1  UNL1        0.0045
      5 C          -8.7496  -16.9534   23.3558 C.3     1  UNL1        0.0008
      6 C          -9.0777  -17.2692   23.9054 C.3     1  UNL1        0.0078
      7 C          -9.4044  -17.5865   24.6071 C.3     1  UNL1        0.0588
      8 C          -8.4827  -16.7427   25.4369 C.ar    1  UNL1       -0.0231
      9 C          -8.5377  -16.8213   26.9338 C.ar    1  UNL1       -0.0045
     10 C          -7.6161  -15.9775   27.7635 C.ar    1  UNL1       -0.0003
     11 C          -6.6394  -15.0550   27.0963 C.ar    1  UNL1       -0.0003
     12 C          -6.5844  -14.9764   25.5994 C.ar    1  UNL1       -0.0046
     13 C          -7.5060  -15.8202   24.7697 C.ar    1  UNL1       -0.0262
     14 C          -9.6725  -17.7828   21.6714 C.3     1  UNL1        0.0577
     15 C          -9.7430  -19.1967   21.1755 C.3     1  UNL1        0.0757
     16 N          -8.9981  -19.5947   19.9359 N.3     1  UNL1       -0.2714
     17 C          -9.7527  -19.9569   18.6911 C.3     1  UNL1        0.0896
     18 C          -7.4986  -19.6306   19.9411 C.3     1  UNL1        0.0728
     19 C          -6.7789  -20.8330   20.4763 C.3     1  UNL1        0.0303
     20 C          -5.3651  -21.1087   20.0580 C.3     1  UNL1        0.1247
     21 C          -2.6136  -16.8461   21.6686 C.2     1  UNL1        0.1731
     22 C          -1.2946  -16.2540   21.2690 C.2     1  UNL1        0.0374
     23 C          -0.4738  -16.9062   20.1963 C.2     1  UNL1        0.0065
     24 C          -0.9721  -18.1507   19.5231 C.2     1  UNL1        0.0470
     25 C          -2.2910  -18.7428   19.9227 C.2     1  UNL1        0.2269
     26 N          -3.0352  -19.9528   19.4409 N.2     1  UNL1       -0.0385
     27 C          -4.3159  -20.0484   20.2160 C.2     1  UNL1        0.3469
     28 N          -4.3633  -18.8974   21.1767 N.2     1  UNL1       -0.0518
     29 C          -3.1118  -18.0905   20.9955 C.3     1  UNL1        0.3344
     30 C          -4.0734  -17.0306   23.8099 C.3     1  UNL1        0.2522
     31 O          -3.4344  -16.1939   22.7414 O.2     1  UNL1       -0.4709
     32 O         -10.4383  -18.5258   23.2777 O.3     1  UNL1       -0.4554
     33 C         -11.8526  -18.0808   23.5049 C.2     1  UNL1        0.3162
     34 O         -12.6166  -18.5874   24.6922 O.2     1  UNL1       -0.2501
     35 C         -12.5028  -17.1292   22.5449 C.3     1  UNL1        0.0991
     36 C         -12.4292  -15.6509   22.7885 C.3     1  UNL1        0.0116
     37 C         -13.2267  -17.6559   21.3414 C.3     1  UNL1        0.0116
@<TRIPOS>BOND
     1    30    31    1
     2    31    21    1
     3    21    22    2
     4    22    23    1
     5    23    24    2
     6    24    25    1
     7    25    26    2
     8    26    27    1
     9    27    20    1
    10    20    19    1
    11    19    18    1
    12    18    16    1
    13    16    17    1
    14    16    15    1
    15    15    14    1
    16     1    14    1
    17     1    32    1
    18    32    33    1
    19    33    34    2
    20    33    35    1
    21    35    36    1
    22    35    37    1
    23     1     2    1
    24     3     2    1
    25     3     4    1
    26     4     5    1
    27     5     6    1
    28     7     6    1
    29     7     8    1
    30     8     9   ar
    31     9    10   ar
    32    10    11   ar
    33    11    12   ar
    34    12    13   ar
    35    27    28    2
    36    28    29    1
    37    29    21    1
    38    29    25    1
    39     7     1    1
    40    13     8   ar
    41    13     3    1
@<TRIPOS>MOLECULE
*****
 37 41 0 0 0
SMALL
GASTEIGER

@<TRIPOS>ATOM
      1 C          -8.5765  -16.4938   23.4448 C.3     1  UNL1        0.1411
      2 C          -8.6381  -15.9793   22.0371 C.3     1  UNL1        0.0448
      3 C          -9.9079  -16.1032   21.2482 C.3     1  UNL1        0.0255
      4 C          -9.5595  -16.2796   22.0182 C.3     1  UNL1        0.0045
      5 C          -9.1585  -16.4515   22.8226 C.3     1  UNL1        0.0008
      6 C          -9.4080  -16.7602   23.4158 C.3     1  UNL1        0.0078
      7 C          -9.7846  -17.1321   24.0636 C.3     1  UNL1        0.0588
      8 C         -11.0544  -17.2561   23.2747 C.ar    1  UNL1       -0.0231
      9 C         -12.2625  -17.8944   23.8935 C.ar    1  UNL1       -0.0045
     10 C         -13.5322  -18.0183   23.1046 C.ar    1  UNL1       -0.0003
     11 C         -13.5939  -17.5039   21.6969 C.ar    1  UNL1       -0.0003
     12 C         -12.3858  -16.8655   21.0782 C.ar    1  UNL1       -0.0046
     13 C         -11.1161  -16.7416   21.8670 C.ar    1  UNL1       -0.0262
     14 C          -7.1783  -15.9710   23.2970 C.3     1  UNL1        0.0577
     15 C          -6.0093  -16.8902   23.4933 C.3     1  UNL1        0.0757
     16 N          -4.6185  -16.4063   23.2077 N.3     1  UNL1       -0.2714
     17 C          -4.3510  -14.9378   23.0597 C.3     1  UNL1        0.0896
     18 C          -3.4953  -17.3909   23.0701 C.3     1  UNL1        0.0728
     19 C          -3.0810  -17.8708   21.7106 C.3     1  UNL1        0.0303
     20 C          -3.6741  -19.1275   21.1460 C.3     1  UNL1        0.1247
     21 C          -8.7518  -20.1680   22.3578 C.2     1  UNL1        0.1731
     22 C         -10.0391  -20.0702   21.5941 C.2     1  UNL1        0.0374
     23 C         -10.0337  -19.5898   20.1731 C.2     1  UNL1        0.0065
     24 C          -8.7407  -19.2071   19.5159 C.2     1  UNL1        0.0470
     25 C          -7.4534  -19.3049   20.2796 C.2     1  UNL1        0.2269
     26 N          -6.0350  -19.0000   19.8988 N.2     1  UNL1       -0.0385
     27 C          -5.1638  -19.2920   21.0845 C.2     1  UNL1        0.3469
     28 N          -6.0439  -19.7774   22.1980 N.2     1  UNL1       -0.0518
     29 C          -7.4589  -19.7853   21.7005 C.3     1  UNL1        0.3344
     30 C         -10.0324  -20.6386   24.5689 C.3     1  UNL1        0.2522
     31 O          -8.7573  -20.6485   23.7787 O.2     1  UNL1       -0.4709
     32 O          -8.0293  -16.8267   24.8011 O.3     1  UNL1       -0.4554
     33 C          -7.9425  -15.7642   25.8564 C.2     1  UNL1        0.3162
     34 O          -9.0373  -14.7474   25.9887 O.2     1  UNL1       -0.2501
     35 C          -6.7610  -15.7184   26.7793 C.3     1  UNL1        0.0991
     36 C          -6.7654  -16.5251   28.0439 C.3     1  UNL1        0.0116
     37 C          -5.5750  -14.8660   26.4376 C.3     1  UNL1        0.0116
@<TRIPOS>BOND
     1    30    31    1
     2    31    21    1
     3    21    22    2
     4    22    23    1
     5    23    24    2
     6    24    25    1
     7    25    26    2
     8    26    27    1
     9    27    20    1
    10    20    19    1
    11    19    18    1
    12    18    16    1
    13    16    17    1
    14    16    15    1
    15    15    14    1
    16     1    14    1
    17     1    32    1
    18    32    33    1
    19    33    34    2
    20    33    35    1
    21    35    36    1
    22    35    37    1
    23     1     2    1
    24     3     2    1
    25     3     4    1
    26     4     5    1
    27     5     6    1
    28     7     6    1
    29     7     8    1
    30     8     9   ar
    31     9    10   ar
    32    10    11   ar
    33    11    12   ar
    34    12    13   ar
    35    27    28    2
    36    28    29    1
    37    29    21    1
    38    29    25    1
    39     7     1    1
    40    13     8   ar
    41    13     3    1
@<TRIPOS>MOLECULE
*****
 37 41 0 0 0
SMALL
GASTEIGER

@<TRIPOS>ATOM
      1 C          -8.3726  -16.4573   23.4351 C.3     1  UNL1        0.1411
      2 C          -8.4598  -16.0568   21.9922 C.3     1  UNL1        0.0448
      3 C          -9.7483  -16.2265   21.2433 C.3     1  UNL1        0.0255
      4 C          -9.3848  -16.3452   22.0174 C.3     1  UNL1        0.0045
      5 C          -8.9679  -16.4573   22.8242 C.3     1  UNL1        0.0008
      6 C          -9.2076  -16.7139   23.4455 C.3     1  UNL1        0.0078
      7 C          -9.5739  -17.0274   24.1291 C.3     1  UNL1        0.0588
      8 C         -10.8625  -17.1972   23.3802 C.ar    1  UNL1       -0.0231
      9 C         -12.0639  -17.7674   24.0742 C.ar    1  UNL1       -0.0045
     10 C         -13.3523  -17.9371   23.3253 C.ar    1  UNL1       -0.0003
     11 C         -13.4395  -17.5366   21.8824 C.ar    1  UNL1       -0.0003
     12 C         -12.2382  -16.9664   21.1884 C.ar    1  UNL1       -0.0046
     13 C         -10.9497  -16.7967   21.9373 C.ar    1  UNL1       -0.0262
     14 C          -6.9721  -15.9670   23.2158 C.3     1  UNL1        0.0577
     15 C          -5.8089  -16.8761   23.4820 C.3     1  UNL1        0.0757
     16 N          -4.4243  -16.4584   23.0844 N.3     1  UNL1       -0.2714
     17 C          -4.0958  -15.0031   22.9278 C.3     1  UNL1        0.0896
     18 C          -3.3681  -17.4958   22.8433 C.3     1  UNL1        0.0728
     19 C          -3.1138  -17.9982   21.4529 C.3     1  UNL1        0.0303
     20 C          -3.7568  -19.2703   20.9858 C.3     1  UNL1        0.1247
     21 C          -8.9896  -19.7239   20.1212 C.2     1  UNL1        0.1731
     22 C         -10.1632  -20.0193   21.0073 C.2     1  UNL1        0.0374
     23 C          -9.9549  -20.2579   22.4735 C.2     1  UNL1        0.0065
     24 C          -8.5727  -20.2011   23.0535 C.2     1  UNL1        0.0470
     25 C          -7.3990  -19.9057   22.1674 C.2     1  UNL1        0.2269
     26 N          -5.9312  -19.7861   22.4525 N.2     1  UNL1       -0.0385
     27 C          -5.2325  -19.4736   21.1625 C.2     1  UNL1        0.3469
     28 N          -6.2684  -19.4001   20.0802 N.2     1  UNL1       -0.0518
     29 C          -7.6074  -19.6671   20.7013 C.3     1  UNL1        0.3344
     30 C          -9.1699  -20.6385   17.6961 C.3     1  UNL1        0.2522
     31 O          -9.1979  -19.4853   18.6551 O.2     1  UNL1       -0.4709
     32 O          -7.7991  -16.6875   24.8019 O.3     1  UNL1       -0.4554
     33 C          -7.4392  -15.5190   25.6709 C.2     1  UNL1        0.3162
     34 O          -6.7944  -14.3064   25.0678 O.2     1  UNL1       -0.2501
     35 C          -7.7242  -15.5631   27.1428 C.3     1  UNL1        0.0991
     36 C          -7.1517  -14.5141   28.0494 C.3     1  UNL1        0.0116
     37 C          -8.5816  -16.6563   27.7084 C.3     1  UNL1        0.0116
@<TRIPOS>BOND
     1    30    31    1
     2    31    21    1
     3    21    22    2
     4    22    23    1
     5    23    24    2
     6    24    25    1
     7    25    26    2
     8    26    27    1
     9    27    20    1
    10    20    19    1
    11    19    18    1
    12    18    16    1
    13    16    17    1
    14    16    15    1
    15    15    14    1
    16     1    14    1
    17     1    32    1
    18    32    33    1
    19    33    34    2
    20    33    35    1
    21    35    36    1
    22    35    37    1
    23     1     2    1
    24     3     2    1
    25     3     4    1
    26     4     5    1
    27     5     6    1
    28     7     6    1
    29     7     8    1
    30     8     9   ar
    31     9    10   ar
    32    10    11   ar
    33    11    12   ar
    34    12    13   ar
    35    27    28    2
    36    28    29    1
    37    29    21    1
    38    29    25    1
    39     7     1    1
    40    13     8   ar
    41    13     3    1
@<TRIPOS>MOLECULE
*****
 37 41 0 0 0
SMALL
GASTEIGER

@<TRIPOS>ATOM
      1 C          -6.1819  -19.2362   21.8101 C.3     1  UNL1        0.1411
      2 C          -5.5272  -18.5928   22.9965 C.3     1  UNL1        0.0448
      3 C          -4.0987  -18.1432   22.9126 C.3     1  UNL1        0.0255
      4 C          -4.7273  -18.5178   22.4544 C.3     1  UNL1        0.0045
      5 C          -5.4158  -18.9119   21.9982 C.3     1  UNL1        0.0008
      6 C          -5.4549  -19.1631   21.3313 C.3     1  UNL1        0.0078
      7 C          -5.4081  -19.4300   20.5399 C.3     1  UNL1        0.0588
      8 C          -3.9795  -18.9805   20.4560 C.ar    1  UNL1       -0.0231
      9 C          -3.2056  -19.1743   19.1857 C.ar    1  UNL1       -0.0045
     10 C          -1.7771  -18.7247   19.1018 C.ar    1  UNL1       -0.0003
     11 C          -1.1224  -18.0813   20.2882 C.ar    1  UNL1       -0.0003
     12 C          -1.8962  -17.8875   21.5584 C.ar    1  UNL1       -0.0046
     13 C          -3.3248  -18.3371   21.6423 C.ar    1  UNL1       -0.0262
     14 C          -7.3205  -19.2699   22.7861 C.3     1  UNL1        0.0577
     15 C          -8.3079  -20.3985   22.7479 C.3     1  UNL1        0.0757
     16 N          -9.6489  -20.2442   23.4021 N.3     1  UNL1       -0.2714
     17 C          -9.8568  -20.7228   24.8085 C.3     1  UNL1        0.0896
     18 C         -10.7819  -19.6113   22.6501 C.3     1  UNL1        0.0728
     19 C         -11.7252  -18.6831   23.3564 C.3     1  UNL1        0.0303
     20 C         -11.4446  -17.2100   23.3881 C.3     1  UNL1        0.1247
     21 C          -6.9432  -15.8291   25.8711 C.2     1  UNL1        0.1731
     22 C          -5.6395  -15.2519   25.4053 C.2     1  UNL1        0.0374
     23 C          -5.4287  -14.9523   23.9508 C.2     1  UNL1        0.0065
     24 C          -6.5220  -15.2300   22.9619 C.2     1  UNL1        0.0470
     25 C          -7.8257  -15.8071   23.4276 C.2     1  UNL1        0.2269
     26 N          -9.0768  -16.1840   22.6908 N.2     1  UNL1       -0.0385
     27 C         -10.0607  -16.7164   23.6901 C.2     1  UNL1        0.3469
     28 N          -9.4177  -16.6687   25.0444 N.2     1  UNL1       -0.0518
     29 C          -8.0364  -16.1067   24.8822 C.3     1  UNL1        0.3344
     30 C          -8.4584  -16.7044   27.7915 C.3     1  UNL1        0.2522
     31 O          -7.1539  -16.1286   27.3257 O.2     1  UNL1       -0.4709
     32 O          -7.2320  -19.8913   20.9628 O.3     1  UNL1       -0.4554
     33 C          -8.2682  -19.0548   20.2724 C.2     1  UNL1        0.3162
     34 O          -8.3517  -17.5834   20.5514 O.2     1  UNL1       -0.2501
     35 C          -9.2208  -19.6897   19.3032 C.3     1  UNL1        0.0991
     36 C          -8.7534  -20.8018   18.4116 C.3     1  UNL1        0.0116
     37 C         -10.6407  -19.2125   19.2254 C.3     1  UNL1        0.0116
@<TRIPOS>BOND
     1    30    31    1
     2    31    21    1
     3    21    22    2
     4    22    23    1
     5    23    24    2
     6    24    25    1
     7    25    26    2
     8    26    27    1
     9    27    20    1
    10    20    19    1
    11    19    18    1
    12    18    16    1
    13    16    17    1
    14    16    15    1
    15    15    14    1
    16     1    14    1
    17     1    32    1
    18    32    33    1
    19    33    34    2
    20    33    35    1
    21    35    36    1
    22    35    37    1
    23     1     2    1
    24     3     2    1
    25     3     4    1
    26     4     5    1
    27     5     6    1
    28     7     6    1
    29     7     8    1
    30     8     9   ar
    31     9    10   ar
    32    10    11   ar
    33    11    12   ar
    34    12    13   ar
    35    27    28    2
    36    28    29    1
    37    29    21    1
    38    29    25    1
    39     7     1    1
    40    13     8   ar
    41    13     3    1
@<TRIPOS>MOLECULE
*****
 37 41 0 0 0
SMALL
GASTEIGER

@<TRIPOS>ATOM
      1 C          -4.5124  -18.0099   22.5982 C.3     1  UNL1        0.1411
      2 C          -3.6714  -16.9205   23.1948 C.3     1  UNL1        0.0448
      3 C          -2.4082  -16.4885   22.5111 C.3     1  UNL1        0.0255
      4 C          -3.0699  -17.0389   22.4441 C.3     1  UNL1        0.0045
      5 C          -3.7850  -17.6086   22.4047 C.3     1  UNL1        0.0008
      6 C          -3.9628  -18.1075   21.9262 C.3     1  UNL1        0.0078
      7 C          -4.0901  -18.6673   21.3178 C.3     1  UNL1        0.0588
      8 C          -2.8269  -18.2354   20.6340 C.ar    1  UNL1       -0.0231
      9 C          -2.4046  -18.8928   19.3536 C.ar    1  UNL1       -0.0045
     10 C          -1.1414  -18.4608   18.6698 C.ar    1  UNL1       -0.0003
     11 C          -0.3004  -17.3714   19.2664 C.ar    1  UNL1       -0.0003
     12 C          -0.7227  -16.7140   20.5468 C.ar    1  UNL1       -0.0046
     13 C          -1.9859  -17.1460   21.2306 C.ar    1  UNL1       -0.0262
     14 C          -5.3247  -17.6926   23.8187 C.3     1  UNL1        0.0577
     15 C          -6.1195  -16.4220   23.8810 C.3     1  UNL1        0.0757
     16 N          -6.2832  -15.7030   25.1873 N.3     1  UNL1       -0.2714
     17 C          -5.1172  -15.5704   26.1216 C.3     1  UNL1        0.0896
     18 C          -7.6128  -15.1167   25.5592 C.3     1  UNL1        0.0728
     19 C          -8.3978  -15.6998   26.6968 C.3     1  UNL1        0.0303
     20 C          -8.8907  -17.1144   26.6205 C.3     1  UNL1        0.1247
     21 C         -10.9206  -17.5267   21.7170 C.2     1  UNL1        0.1731
     22 C         -11.3314  -18.6880   20.8612 C.2     1  UNL1        0.0374
     23 C         -11.1917  -20.0885   21.3799 C.2     1  UNL1        0.0065
     24 C         -10.6410  -20.3277   22.7545 C.2     1  UNL1        0.0470
     25 C         -10.2302  -19.1663   23.6104 C.2     1  UNL1        0.2269
     26 N          -9.6590  -19.0928   24.9954 N.2     1  UNL1       -0.0385
     27 C          -9.4458  -17.6468   25.3327 C.2     1  UNL1        0.3469
     28 N          -9.8852  -16.8267   24.1561 N.2     1  UNL1       -0.0518
     29 C         -10.3699  -17.7658   23.0917 C.3     1  UNL1        0.3344
     30 C         -11.4317  -15.8912   19.7641 C.3     1  UNL1        0.2522
     31 O         -11.0603  -16.1262   21.1983 O.2     1  UNL1       -0.4709
     32 O          -5.6354  -18.9891   22.4255 O.3     1  UNL1       -0.4554
     33 C          -6.6696  -18.7644   21.3625 C.2     1  UNL1        0.3162
     34 O          -7.3964  -17.4544   21.2882 O.2     1  UNL1       -0.2501
     35 C          -6.9770  -19.8497   20.3738 C.3     1  UNL1        0.0991
     36 C          -8.0999  -19.6761   19.3945 C.3     1  UNL1        0.0116
     37 C          -6.1615  -21.1086   20.3643 C.3     1  UNL1        0.0116
@<TRIPOS>BOND
     1    30    31    1
     2    31    21    1
     3    21    22    2
     4    22    23    1
     5    23    24    2
     6    24    25    1
     7    25    26    2
     8    26    27    1
     9    27    20    1
    10    20    19    1
    11    19    18    1
    12    18    16    1
    13    16    17    1
    14    16    15    1
    15    15    14    1
    16     1    14    1
    17     1    32    1
    18    32    33    1
    19    33    34    2
    20    33    35    1
    21    35    36    1
    22    35    37    1
    23     1     2    1
    24     3     2    1
    25     3     4    1
    26     4     5    1
    27     5     6    1
    28     7     6    1
    29     7     8    1
    30     8     9   ar
    31     9    10   ar
    32    10    11   ar
    33    11    12   ar
    34    12    13   ar
    35    27    28    2
    36    28    29    1
    37    29    21    1
    38    29    25    1
    39     7     1    1
    40    13     8   ar
    41    13     3    1
@<TRIPOS>MOLECULE
*****
 37 41 0 0 0
SMALL
GASTEIGER

@<TRIPOS>ATOM
      1 C           2.7232    0.5117   19.3765 C.3     1  UNL1        0.1411
      2 C           3.0971    0.2415   17.9492 C.3     1  UNL1        0.0448
      3 C           3.7451   -1.0591   17.5770 C.3     1  UNL1        0.0255
      4 C           3.4289   -0.6186   18.2488 C.3     1  UNL1        0.0045
      5 C           3.0854   -0.1238   18.9377 C.3     1  UNL1        0.0008
      6 C           3.0256   -0.2663   19.6345 C.3     1  UNL1        0.0078
      7 C           2.9973   -0.5187   20.4316 C.3     1  UNL1        0.0588
      8 C           3.6454   -1.8193   20.0594 C.ar    1  UNL1       -0.0231
      9 C           3.9195   -2.8496   21.1145 C.ar    1  UNL1       -0.0045
     10 C           4.5676   -4.1501   20.7423 C.ar    1  UNL1       -0.0003
     11 C           4.9415   -4.4203   19.3150 C.ar    1  UNL1       -0.0003
     12 C           4.6674   -3.3900   18.2599 C.ar    1  UNL1       -0.0046
     13 C           4.0193   -2.0895   18.6321 C.ar    1  UNL1       -0.0262
     14 C           2.2637    1.7900   18.7404 C.3     1  UNL1        0.0577
     15 C           3.0174    3.0634   18.9866 C.3     1  UNL1        0.0757
     16 N           3.0615    4.1254   17.9282 N.3     1  UNL1       -0.2714
     17 C           1.8315    4.9257   17.6171 C.3     1  UNL1        0.0896
     18 C           4.3355    4.3871   17.1810 C.3     1  UNL1        0.0728
     19 C           5.6240    3.7890   17.6628 C.3     1  UNL1        0.0303
     20 C           6.1475    2.5308   17.0360 C.3     1  UNL1        0.1247
     21 C           6.9629   -0.7040   21.1839 C.2     1  UNL1        0.1731
     22 C           7.5801   -2.0632   21.3308 C.2     1  UNL1        0.0374
     23 C           8.1234   -2.7743   20.1271 C.2     1  UNL1        0.0065
     24 C           8.0495   -2.1262   18.7763 C.2     1  UNL1        0.0470
     25 C           7.4322   -0.7670   18.6294 C.2     1  UNL1        0.2269
     26 N           7.2206    0.1154   17.4350 N.2     1  UNL1       -0.0385
     27 C           6.5465    1.3719   17.9006 C.2     1  UNL1        0.3469
     28 N           6.3415    1.2660   19.3828 N.2     1  UNL1       -0.0518
     29 C           6.8889   -0.0559   19.8332 C.3     1  UNL1        0.3344
     30 C           6.5283   -0.6240   23.7442 C.3     1  UNL1        0.2522
     31 O           6.4196    0.0072   22.3877 O.2     1  UNL1       -0.4709
     32 O           2.1897    1.2258   20.5829 O.3     1  UNL1       -0.4554
     33 C           0.7090    1.3652   20.7782 C.2     1  UNL1        0.3162
     34 O          -0.1982    0.2070   20.4858 O.2     1  UNL1       -0.2501
     35 C           0.1356    2.6626   21.2659 C.3     1  UNL1        0.0991
     36 C           0.9807    3.5973   22.0796 C.3     1  UNL1        0.0116
     37 C          -1.2829    3.0253   20.9400 C.3     1  UNL1        0.0116
@<TRIPOS>BOND
     1    30    31    1
     2    31    21    1
     3    21    22    2
     4    22    23    1
     5    23    24    2
     6    24    25    1
     7    25    26    2
     8    26    27    1
     9    27    20    1
    10    20    19    1
    11    19    18    1
    12    18    16    1
    13    16    17    1
    14    16    15    1
    15    15    14    1
    16     1    14    1
    17     1    32    1
    18    32    33    1
    19    33    34    2
    20    33    35    1
    21    35    36    1
    22    35    37    1
    23     1     2    1
    24     3     2    1
    25     3     4    1
    26     4     5    1
    27     5     6    1
    28     7     6    1
    29     7     8    1
    30     8     9   ar
    31     9    10   ar
    32    10    11   ar
    33    11    12   ar
    34    12    13   ar
    35    27    28    2
    36    28    29    1
    37    29    21    1
    38    29    25    1
    39     7     1    1
    40    13     8   ar
    41    13     3    1
