@<TRIPOS>MOLECULE
*****
 31 35 0 0 0
SMALL
GASTEIGER

@<TRIPOS>ATOM
      1 C           3.9049   -2.8511   20.1436 C.ar    1  UNL1        0.1385
      2 C           3.0855   -1.6130   20.3574 C.ar    1  UNL1        0.0374
      3 C           3.0614   -0.9530   21.7042 C.ar    1  UNL1        0.0090
      4 C           3.8567   -1.5311   22.8372 C.ar    1  UNL1        0.0231
      5 C           4.6759   -2.7691   22.6232 C.ar    1  UNL1        0.0064
      6 C           4.7001   -3.4292   21.2765 C.ar    1  UNL1        0.0348
      7 C           5.5349   -3.5041   23.6092 C.3     1  UNL1        0.1223
      8 N           5.7866   -3.1824   25.0526 N.am    1  UNL1       -0.2590
      9 C           6.7048   -4.1210   25.7779 C.2     1  UNL1        0.3075
     10 O           7.3048   -5.2907   25.0558 O.2     1  UNL1       -0.2523
     11 N           7.0229   -3.8896   27.2254 N.am    1  UNL1       -0.2612
     12 C           6.4228   -2.7198   27.9476 C.3     1  UNL1        0.1123
     13 C           6.7409   -2.4885   29.3951 C.3     1  UNL1        0.0942
     14 N           7.6590   -3.4269   30.1205 N.3     1  UNL1       -0.2660
     15 C           8.2591   -4.5968   29.3984 C.3     1  UNL1        0.0942
     16 C           7.9411   -4.8281   27.9509 C.3     1  UNL1        0.1123
     17 C           5.2416   -2.0465   25.8664 C.3     1  UNL1        0.1072
     18 C           4.3102   -0.9515   25.4379 C.3     1  UNL1        0.0837
     19 S           3.6938   -0.7221   24.0898 S.3     1  UNL1       -0.1121
     20 C           4.6618   -4.8065   18.6095 C.3     1  UNL1        0.2525
     21 O           3.9290   -3.5111   18.7968 O.3     1  UNL1       -0.4714
     22 C           7.9771   -3.1956   31.5680 C.3     1  UNL1        0.0993
     23 C           6.9970   -2.4749   32.4454 C.ar    1  UNL1       -0.0029
     24 C           5.6400   -3.0631   32.6948 C.ar    1  UNL1        0.0004
     25 C           4.6598   -2.3424   33.5723 C.ar    1  UNL1        0.0399
     26 C           5.0367   -1.0334   34.2002 C.ar    1  UNL1        0.1764
     27 C           6.3938   -0.4451   33.9508 C.ar    1  UNL1        0.1762
     28 C           7.3740   -1.1658   33.0734 C.ar    1  UNL1        0.0373
     29 O           6.4820    0.8512   34.7003 O.3     1  UNL1       -0.4346
     30 C           5.1794    1.0641   35.4130 C.3     1  UNL1        0.4294
     31 O           4.2862   -0.1006   35.1040 O.3     1  UNL1       -0.4346
@<TRIPOS>BOND
     1    20    21    1
     2    21     1    1
     3     1     2   ar
     4     2     3   ar
     5     3     4   ar
     6     4     5   ar
     7     5     6   ar
     8     5     7    1
     9     7     8    1
    10     8     9   am
    11     9    10    2
    12     9    11   am
    13    11    12    1
    14    12    13    1
    15    13    14    1
    16    14    22    1
    17    22    23    1
    18    23    24   ar
    19    24    25   ar
    20    25    26   ar
    21    26    27   ar
    22    27    28   ar
    23    27    29    1
    24    29    30    1
    25    30    31    1
    26    14    15    1
    27    15    16    1
    28     8    17    1
    29    17    18    1
    30    18    19    1
    31     6     1   ar
    32    16    11    1
    33    19     4    1
    34    28    23   ar
    35    31    26    1
@<TRIPOS>MOLECULE
*****
 31 35 0 0 0
SMALL
GASTEIGER

@<TRIPOS>ATOM
      1 C          -5.6724    4.7926   24.8161 C.ar    1  UNL1        0.1385
      2 C          -5.0893    4.5179   26.1706 C.ar    1  UNL1        0.0374
      3 C          -3.7013    3.9618   26.2909 C.ar    1  UNL1        0.0090
      4 C          -2.8965    3.6804   25.0567 C.ar    1  UNL1        0.0231
      5 C          -3.4796    3.9552   23.7024 C.ar    1  UNL1        0.0064
      6 C          -4.8675    4.5112   23.5820 C.ar    1  UNL1        0.0348
      7 C          -2.8534    3.7485   22.3550 C.3     1  UNL1        0.1223
      8 N          -1.4893    3.2159   22.0295 N.am    1  UNL1       -0.2590
      9 C          -1.1559    3.1293   20.5696 C.2     1  UNL1        0.3075
     10 O          -2.1612    3.5617   19.5438 O.2     1  UNL1       -0.2523
     11 N           0.1828    2.6102   20.1356 N.am    1  UNL1       -0.2612
     12 C           1.1881    2.1778   21.1615 C.3     1  UNL1        0.1123
     13 C           2.5269    1.6588   20.7275 C.3     1  UNL1        0.0942
     14 N           2.8603    1.5721   19.2677 N.3     1  UNL1       -0.2660
     15 C           1.8550    2.0045   18.2417 C.3     1  UNL1        0.0942
     16 C           0.5163    2.5236   18.6757 C.3     1  UNL1        0.1123
     17 C          -0.4148    2.7586   22.9708 C.3     1  UNL1        0.1072
     18 C          -0.4387    2.7209   24.4702 C.3     1  UNL1        0.0837
     19 S          -1.5432    3.1311   25.3985 S.3     1  UNL1       -0.1121
     20 C          -8.0809    4.6421   23.8538 C.3     1  UNL1        0.2525
     21 O          -7.0603    5.3487   24.6959 O.3     1  UNL1       -0.4714
     22 C           4.1990    1.0531   18.8336 C.3     1  UNL1        0.0993
     23 C           4.5633   -0.3810   19.0800 C.ar    1  UNL1       -0.0029
     24 C           5.9452   -0.7347   19.5437 C.ar    1  UNL1        0.0004
     25 C           6.3095   -2.1688   19.7901 C.ar    1  UNL1        0.0399
     26 C           5.2919   -3.2491   19.5728 C.ar    1  UNL1        0.1764
     27 C           3.9099   -2.8954   19.1091 C.ar    1  UNL1        0.1762
     28 C           3.5456   -1.4613   18.8627 C.ar    1  UNL1        0.0373
     29 O           3.1241   -4.1667   18.9818 O.3     1  UNL1       -0.4346
     30 C           4.0203   -5.3062   19.3668 C.3     1  UNL1        0.4294
     31 O           5.3601   -4.7391   19.7321 O.3     1  UNL1       -0.4346
@<TRIPOS>BOND
     1    20    21    1
     2    21     1    1
     3     1     2   ar
     4     2     3   ar
     5     3     4   ar
     6     4     5   ar
     7     5     6   ar
     8     5     7    1
     9     7     8    1
    10     8     9   am
    11     9    10    2
    12     9    11   am
    13    11    12    1
    14    12    13    1
    15    13    14    1
    16    14    22    1
    17    22    23    1
    18    23    24   ar
    19    24    25   ar
    20    25    26   ar
    21    26    27   ar
    22    27    28   ar
    23    27    29    1
    24    29    30    1
    25    30    31    1
    26    14    15    1
    27    15    16    1
    28     8    17    1
    29    17    18    1
    30    18    19    1
    31     6     1   ar
    32    16    11    1
    33    19     4    1
    34    28    23   ar
    35    31    26    1
@<TRIPOS>MOLECULE
*****
 31 35 0 0 0
SMALL
GASTEIGER

@<TRIPOS>ATOM
      1 C           4.7382   -3.4017   20.9589 C.ar    1  UNL1        0.1385
      2 C           5.0905   -3.3932   22.4169 C.ar    1  UNL1        0.0374
      3 C           4.4527   -2.3946   23.3368 C.ar    1  UNL1        0.0090
      4 C           3.4627   -1.4045   22.7985 C.ar    1  UNL1        0.0231
      5 C           3.1105   -1.4130   21.3406 C.ar    1  UNL1        0.0064
      6 C           3.7482   -2.4116   20.4207 C.ar    1  UNL1        0.0348
      7 C           2.1561   -0.5206   20.6037 C.3     1  UNL1        0.1223
      8 N           1.3183    0.6007   21.1431 N.am    1  UNL1       -0.2590
      9 C           0.4570    1.3099   20.1404 C.2     1  UNL1        0.3075
     10 O           0.4724    0.8824   18.7027 O.2     1  UNL1       -0.2523
     11 N          -0.4198    2.4465   20.5756 N.am    1  UNL1       -0.2612
     12 C          -0.4352    2.8739   22.0134 C.3     1  UNL1        0.1123
     13 C          -1.3120    4.0105   22.4486 C.3     1  UNL1        0.0942
     14 N          -2.1733    4.7197   21.4461 N.3     1  UNL1       -0.2660
     15 C          -2.1579    4.2923   20.0083 C.3     1  UNL1        0.0942
     16 C          -1.2811    3.1557   19.5731 C.3     1  UNL1        0.1123
     17 C           1.2279    1.1064   22.5522 C.3     1  UNL1        0.1072
     18 C           1.9530    0.6160   23.7703 C.3     1  UNL1        0.0837
     19 S           2.9476   -0.5015   23.8799 S.3     1  UNL1       -0.1121
     20 C           4.5933   -4.9723   18.8945 C.3     1  UNL1        0.2525
     21 O           5.3760   -4.4003   20.0391 O.3     1  UNL1       -0.4714
     22 C          -3.0501    5.8563   21.8812 C.3     1  UNL1        0.0993
     23 C          -4.4680    5.5942   22.2943 C.ar    1  UNL1       -0.0029
     24 C          -5.3170    4.6455   21.5012 C.ar    1  UNL1        0.0004
     25 C          -6.7350    4.3833   21.9142 C.ar    1  UNL1        0.0399
     26 C          -7.3039    5.0698   23.1204 C.ar    1  UNL1        0.1764
     27 C          -6.4549    6.0185   23.9136 C.ar    1  UNL1        0.1762
     28 C          -5.0369    6.2807   23.5005 C.ar    1  UNL1        0.0373
     29 O          -7.2835    6.5447   25.0478 O.3     1  UNL1       -0.4346
     30 C          -8.6447    5.9212   24.9557 C.3     1  UNL1        0.4294
     31 O          -8.6574    5.0097   23.7645 O.3     1  UNL1       -0.4346
@<TRIPOS>BOND
     1    20    21    1
     2    21     1    1
     3     1     2   ar
     4     2     3   ar
     5     3     4   ar
     6     4     5   ar
     7     5     6   ar
     8     5     7    1
     9     7     8    1
    10     8     9   am
    11     9    10    2
    12     9    11   am
    13    11    12    1
    14    12    13    1
    15    13    14    1
    16    14    22    1
    17    22    23    1
    18    23    24   ar
    19    24    25   ar
    20    25    26   ar
    21    26    27   ar
    22    27    28   ar
    23    27    29    1
    24    29    30    1
    25    30    31    1
    26    14    15    1
    27    15    16    1
    28     8    17    1
    29    17    18    1
    30    18    19    1
    31     6     1   ar
    32    16    11    1
    33    19     4    1
    34    28    23   ar
    35    31    26    1
@<TRIPOS>MOLECULE
*****
 31 35 0 0 0
SMALL
GASTEIGER

@<TRIPOS>ATOM
      1 C           6.9841   -4.6424   23.6619 C.ar    1  UNL1        0.1385
      2 C           7.1338   -4.2177   25.0928 C.ar    1  UNL1        0.0374
      3 C           6.2918   -3.1014   25.6359 C.ar    1  UNL1        0.0090
      4 C           5.3000   -2.4097   24.7480 C.ar    1  UNL1        0.0231
      5 C           5.1504   -2.8344   23.3173 C.ar    1  UNL1        0.0064
      6 C           5.9924   -3.9507   22.7742 C.ar    1  UNL1        0.0348
      7 C           4.2293   -2.2831   22.2695 C.3     1  UNL1        0.1223
      8 N           3.2305   -1.1709   22.3939 N.am    1  UNL1       -0.2590
      9 C           2.4534   -0.8521   21.1511 C.2     1  UNL1        0.3075
     10 O           2.7008   -1.6288   19.8919 O.2     1  UNL1       -0.2523
     11 N           1.4288    0.2433   21.1675 N.am    1  UNL1       -0.2612
     12 C           1.1814    1.0200   22.4267 C.3     1  UNL1        0.1123
     13 C           0.1568    2.1154   22.4432 C.3     1  UNL1        0.0942
     14 N          -0.6203    2.4342   21.2005 N.3     1  UNL1       -0.2660
     15 C          -0.3729    1.6576   19.9412 C.3     1  UNL1        0.0942
     16 C           0.6517    0.5622   19.9248 C.3     1  UNL1        0.1123
     17 C           2.9060   -0.3355   23.5966 C.3     1  UNL1        0.1072
     18 C           3.5002   -0.4057   24.9721 C.3     1  UNL1        0.0837
     19 S           4.5657   -1.3289   25.4846 S.3     1  UNL1       -0.1121
     20 C           8.8071   -5.4901   22.0164 C.3     1  UNL1        0.2525
     21 O           7.8261   -5.7586   23.1190 O.3     1  UNL1       -0.4714
     22 C          -1.6448    3.5297   21.2169 C.3     1  UNL1        0.0993
     23 C          -2.6538    3.5964   22.3248 C.ar    1  UNL1       -0.0029
     24 C          -4.0850    3.2349   22.0584 C.ar    1  UNL1        0.0004
     25 C          -5.0941    3.3015   23.1663 C.ar    1  UNL1        0.0399
     26 C          -4.6719    3.7297   24.5405 C.ar    1  UNL1        0.1764
     27 C          -3.2407    4.0912   24.8069 C.ar    1  UNL1        0.1762
     28 C          -2.2316    4.0245   23.6990 C.ar    1  UNL1        0.0373
     29 O          -3.1206    4.4746   26.2520 O.3     1  UNL1       -0.4346
     30 C          -4.4777    4.3501   26.8789 C.3     1  UNL1        0.4294
     31 O          -5.4364    3.8897   25.8212 O.3     1  UNL1       -0.4346
@<TRIPOS>BOND
     1    20    21    1
     2    21     1    1
     3     1     2   ar
     4     2     3   ar
     5     3     4   ar
     6     4     5   ar
     7     5     6   ar
     8     5     7    1
     9     7     8    1
    10     8     9   am
    11     9    10    2
    12     9    11   am
    13    11    12    1
    14    12    13    1
    15    13    14    1
    16    14    22    1
    17    22    23    1
    18    23    24   ar
    19    24    25   ar
    20    25    26   ar
    21    26    27   ar
    22    27    28   ar
    23    27    29    1
    24    29    30    1
    25    30    31    1
    26    14    15    1
    27    15    16    1
    28     8    17    1
    29    17    18    1
    30    18    19    1
    31     6     1   ar
    32    16    11    1
    33    19     4    1
    34    28    23   ar
    35    31    26    1
@<TRIPOS>MOLECULE
*****
 31 35 0 0 0
SMALL
GASTEIGER

@<TRIPOS>ATOM
      1 C           2.1957   -0.7543   19.8379 C.ar    1  UNL1        0.1385
      2 C           3.0803   -1.8131   19.2494 C.ar    1  UNL1        0.0374
      3 C           4.0377   -2.5635   20.1270 C.ar    1  UNL1        0.0090
      4 C           4.1105   -2.2550   21.5932 C.ar    1  UNL1        0.0231
      5 C           3.2260   -1.1962   22.1816 C.ar    1  UNL1        0.0064
      6 C           2.2685   -0.4458   21.3040 C.ar    1  UNL1        0.0348
      7 C           3.1394   -0.7355   23.6065 C.3     1  UNL1        0.1223
      8 N           3.9162   -1.2199   24.7949 N.am    1  UNL1       -0.2590
      9 C           3.5954   -0.5511   26.0986 C.2     1  UNL1        0.3075
     10 O           2.5546    0.5278   26.1520 O.2     1  UNL1       -0.2523
     11 N           4.3154   -0.9611   27.3490 N.am    1  UNL1       -0.2612
     12 C           5.3562   -2.0401   27.2956 C.3     1  UNL1        0.1123
     13 C           6.0762   -2.4501   28.5459 C.3     1  UNL1        0.0942
     14 N           5.7554   -1.7814   29.8497 N.3     1  UNL1       -0.2660
     15 C           4.7146   -0.7025   29.9032 C.3     1  UNL1        0.0942
     16 C           3.9946   -0.2924   28.6528 C.3     1  UNL1        0.1123
     17 C           4.9712   -2.2845   24.8517 C.3     1  UNL1        0.1072
     18 C           5.5102   -3.1278   23.7344 C.3     1  UNL1        0.0837
     19 S           5.1271   -3.1147   22.2842 S.3     1  UNL1       -0.1121
     20 C           1.4864    1.4410   18.6431 C.3     1  UNL1        0.2525
     21 O           1.2383   -0.0039   18.9602 O.3     1  UNL1       -0.4714
     22 C           6.4754   -2.1915   31.1000 C.3     1  UNL1        0.0993
     23 C           5.9801   -1.7268   32.4374 C.ar    1  UNL1       -0.0029
     24 C           4.7219   -2.3056   33.0136 C.ar    1  UNL1        0.0004
     25 C           4.2264   -1.8410   34.3510 C.ar    1  UNL1        0.0399
     26 C           4.9892   -0.7976   35.1123 C.ar    1  UNL1        0.1764
     27 C           6.2474   -0.2188   34.5361 C.ar    1  UNL1        0.1762
     28 C           6.7428   -0.6834   33.1986 C.ar    1  UNL1        0.0373
     29 O           6.7830    0.7881   35.5103 O.3     1  UNL1       -0.4346
     30 C           5.8559    0.8317   36.6887 C.3     1  UNL1        0.4294
     31 O           4.7472   -0.1483   36.4427 O.3     1  UNL1       -0.4346
@<TRIPOS>BOND
     1    20    21    1
     2    21     1    1
     3     1     2   ar
     4     2     3   ar
     5     3     4   ar
     6     4     5   ar
     7     5     6   ar
     8     5     7    1
     9     7     8    1
    10     8     9   am
    11     9    10    2
    12     9    11   am
    13    11    12    1
    14    12    13    1
    15    13    14    1
    16    14    22    1
    17    22    23    1
    18    23    24   ar
    19    24    25   ar
    20    25    26   ar
    21    26    27   ar
    22    27    28   ar
    23    27    29    1
    24    29    30    1
    25    30    31    1
    26    14    15    1
    27    15    16    1
    28     8    17    1
    29    17    18    1
    30    18    19    1
    31     6     1   ar
    32    16    11    1
    33    19     4    1
    34    28    23   ar
    35    31    26    1
@<TRIPOS>MOLECULE
*****
 31 35 0 0 0
SMALL
GASTEIGER

@<TRIPOS>ATOM
      1 C           3.8559   -1.7526   19.3533 C.ar    1  UNL1        0.1385
      2 C           2.9761   -0.6540   19.8719 C.ar    1  UNL1        0.0374
      3 C           2.9232   -0.3669   21.3433 C.ar    1  UNL1        0.0090
      4 C           3.7502   -1.1785   22.2960 C.ar    1  UNL1        0.0231
      5 C           4.6299   -2.2770   21.7773 C.ar    1  UNL1        0.0064
      6 C           4.6828   -2.5642   20.3060 C.ar    1  UNL1        0.0348
      7 C           5.5279   -3.1988   22.5481 C.3     1  UNL1        0.1223
      8 N           5.7678   -3.2495   24.0280 N.am    1  UNL1       -0.2590
      9 C           6.7343   -4.2973   24.4950 C.2     1  UNL1        0.3075
     10 O           7.3899   -5.2093   23.5010 O.2     1  UNL1       -0.2523
     11 N           7.0450   -4.4330   25.9562 N.am    1  UNL1       -0.2612
     12 C           6.3893   -3.5209   26.9503 C.3     1  UNL1        0.1123
     13 C           6.7001   -3.6566   28.4115 C.3     1  UNL1        0.0942
     14 N           7.6665   -4.7043   28.8786 N.3     1  UNL1       -0.2660
     15 C           8.3223   -5.6164   27.8845 C.3     1  UNL1        0.0942
     16 C           8.0115   -5.4807   26.4233 C.3     1  UNL1        0.1123
     17 C           5.1690   -2.3911   25.1024 C.3     1  UNL1        0.1072
     18 C           4.1824   -1.2699   24.9625 C.3     1  UNL1        0.0837
     19 S           3.5510   -0.7302   23.7135 S.3     1  UNL1       -0.1121
     20 C           3.9142   -0.9084   16.8969 C.3     1  UNL1        0.2525
     21 O           3.9088   -2.0396   17.8820 O.3     1  UNL1       -0.4714
     22 C           7.9773   -4.8400   30.3397 C.3     1  UNL1        0.0993
     23 C           7.5403   -3.7751   31.3015 C.ar    1  UNL1       -0.0029
     24 C           8.4821   -2.6688   31.6741 C.ar    1  UNL1        0.0004
     25 C           8.0452   -1.6038   32.6359 C.ar    1  UNL1        0.0399
     26 C           6.6664   -1.6453   33.2251 C.ar    1  UNL1        0.1764
     27 C           5.7245   -2.7516   32.8525 C.ar    1  UNL1        0.1762
     28 C           6.1615   -3.8166   31.8906 C.ar    1  UNL1        0.0373
     29 O           4.4365   -2.5315   33.5889 O.3     1  UNL1       -0.4346
     30 C           4.5822   -1.2891   34.4167 C.3     1  UNL1        0.4294
     31 O           5.9604   -0.7414   34.1919 O.3     1  UNL1       -0.4346
@<TRIPOS>BOND
     1    20    21    1
     2    21     1    1
     3     1     2   ar
     4     2     3   ar
     5     3     4   ar
     6     4     5   ar
     7     5     6   ar
     8     5     7    1
     9     7     8    1
    10     8     9   am
    11     9    10    2
    12     9    11   am
    13    11    12    1
    14    12    13    1
    15    13    14    1
    16    14    22    1
    17    22    23    1
    18    23    24   ar
    19    24    25   ar
    20    25    26   ar
    21    26    27   ar
    22    27    28   ar
    23    27    29    1
    24    29    30    1
    25    30    31    1
    26    14    15    1
    27    15    16    1
    28     8    17    1
    29    17    18    1
    30    18    19    1
    31     6     1   ar
    32    16    11    1
    33    19     4    1
    34    28    23   ar
    35    31    26    1
@<TRIPOS>MOLECULE
*****
 31 35 0 0 0
SMALL
GASTEIGER

@<TRIPOS>ATOM
      1 C          -5.4720    4.9875   26.0062 C.ar    1  UNL1        0.1385
      2 C          -6.5624    4.8365   24.9873 C.ar    1  UNL1        0.0374
      3 C          -6.2312    4.3855   23.5956 C.ar    1  UNL1        0.0090
      4 C          -4.8096    4.0854   23.2228 C.ar    1  UNL1        0.0231
      5 C          -3.7193    4.2364   24.2417 C.ar    1  UNL1        0.0064
      6 C          -4.0504    4.6874   25.6334 C.ar    1  UNL1        0.0348
      7 C          -2.2481    3.9915   24.0805 C.3     1  UNL1        0.1223
      8 N          -1.5041    3.5351   22.8605 N.am    1  UNL1       -0.2590
      9 C          -0.0207    3.3828   23.0221 C.2     1  UNL1        0.3075
     10 O           0.6246    3.6818   24.3427 O.2     1  UNL1       -0.2523
     11 N           0.8175    2.9315   21.8629 N.am    1  UNL1       -0.2612
     12 C           0.1722    2.6325   20.5421 C.3     1  UNL1        0.1123
     13 C           1.0104    2.1813   19.3829 C.3     1  UNL1        0.0942
     14 N           2.4938    2.0289   19.5444 N.3     1  UNL1       -0.2660
     15 C           3.1392    2.3279   20.8651 C.3     1  UNL1        0.0942
     16 C           2.3010    2.7792   22.0243 C.3     1  UNL1        0.1123
     17 C          -2.0475    3.2110   21.5006 C.3     1  UNL1        0.1072
     18 C          -3.4690    3.2631   21.0245 C.3     1  UNL1        0.0837
     19 S          -4.6983    3.6523   21.7910 S.3     1  UNL1       -0.1121
     20 C          -7.0430    6.2445   27.6499 C.3     1  UNL1        0.2525
     21 O          -5.8033    5.4385   27.3979 O.3     1  UNL1       -0.4714
     22 C           3.3320    1.5776   18.3852 C.3     1  UNL1        0.0993
     23 C           3.9203    0.1979   18.3772 C.ar    1  UNL1       -0.0029
     24 C           5.3016   -0.0253   17.8369 C.ar    1  UNL1        0.0004
     25 C           5.8901   -1.4050   17.8289 C.ar    1  UNL1        0.0399
     26 C           5.0971   -2.5616   18.3613 C.ar    1  UNL1        0.1764
     27 C           3.7157   -2.3385   18.9016 C.ar    1  UNL1        0.1762
     28 C           3.1273   -0.9587   18.9096 C.ar    1  UNL1        0.0373
     29 O           3.1765   -3.6622   19.3565 O.3     1  UNL1       -0.4346
     30 C           4.2246   -4.7035   19.0974 C.3     1  UNL1        0.4294
     31 O           5.4116   -4.0233   18.4822 O.3     1  UNL1       -0.4346
@<TRIPOS>BOND
     1    20    21    1
     2    21     1    1
     3     1     2   ar
     4     2     3   ar
     5     3     4   ar
     6     4     5   ar
     7     5     6   ar
     8     5     7    1
     9     7     8    1
    10     8     9   am
    11     9    10    2
    12     9    11   am
    13    11    12    1
    14    12    13    1
    15    13    14    1
    16    14    22    1
    17    22    23    1
    18    23    24   ar
    19    24    25   ar
    20    25    26   ar
    21    26    27   ar
    22    27    28   ar
    23    27    29    1
    24    29    30    1
    25    30    31    1
    26    14    15    1
    27    15    16    1
    28     8    17    1
    29    17    18    1
    30    18    19    1
    31     6     1   ar
    32    16    11    1
    33    19     4    1
    34    28    23   ar
    35    31    26    1
@<TRIPOS>MOLECULE
*****
 31 35 0 0 0
SMALL
GASTEIGER

@<TRIPOS>ATOM
      1 C           5.6314   -0.3081   17.8008 C.ar    1  UNL1        0.1385
      2 C           5.3695   -1.5613   18.5824 C.ar    1  UNL1        0.0374
      3 C           4.0947   -1.7082   19.3592 C.ar    1  UNL1        0.0090
      4 C           3.0818   -0.6017   19.3543 C.ar    1  UNL1        0.0231
      5 C           3.3437    0.6514   18.5728 C.ar    1  UNL1        0.0064
      6 C           4.6184    0.7983   17.7960 C.ar    1  UNL1        0.0348
      7 C           2.4743    1.8659   18.4339 C.3     1  UNL1        0.1223
      8 N           1.1283    2.1271   19.0424 N.am    1  UNL1       -0.2590
      9 C           0.5097    3.4523   18.7091 C.2     1  UNL1        0.3075
     10 O           1.2360    4.4165   17.8187 O.2     1  UNL1       -0.2523
     11 N          -0.8354    3.8134   19.2663 N.am    1  UNL1       -0.2612
     12 C          -1.5618    2.8492   20.1568 C.3     1  UNL1        0.1123
     13 C          -2.9068    3.2102   20.7140 C.3     1  UNL1        0.0942
     14 N          -3.5255    4.5353   20.3808 N.3     1  UNL1       -0.2660
     15 C          -2.7992    5.4996   19.4904 C.3     1  UNL1        0.0942
     16 C          -1.4542    5.1385   18.9332 C.3     1  UNL1        0.1123
     17 C           0.3194    1.2384   19.9399 C.3     1  UNL1        0.1072
     18 C           0.6565   -0.1311   20.4507 C.3     1  UNL1        0.0837
     19 S           1.8859   -0.9500   20.1901 S.3     1  UNL1       -0.1121
     20 C           7.2372    1.1455   16.3661 C.3     1  UNL1        0.2525
     21 O           6.9061   -0.1613   17.0240 O.3     1  UNL1       -0.4714
     22 C          -4.8706    4.8963   20.9380 C.3     1  UNL1        0.0993
     23 C          -5.0867    4.9166   22.4222 C.ar    1  UNL1       -0.0029
     24 C          -6.3998    4.4722   22.9949 C.ar    1  UNL1        0.0004
     25 C          -6.6161    4.4924   24.4791 C.ar    1  UNL1        0.0399
     26 C          -5.5191    4.9571   25.3906 C.ar    1  UNL1        0.1764
     27 C          -4.2059    5.4015   24.8178 C.ar    1  UNL1        0.1762
     28 C          -3.9897    5.3812   23.3336 C.ar    1  UNL1        0.0373
     29 O          -3.3165    5.8050   25.9562 O.3     1  UNL1       -0.4346
     30 C          -4.0799    5.6101   27.2326 C.3     1  UNL1        0.4294
     31 O          -5.4412    5.0860   26.8830 O.3     1  UNL1       -0.4346
@<TRIPOS>BOND
     1    20    21    1
     2    21     1    1
     3     1     2   ar
     4     2     3   ar
     5     3     4   ar
     6     4     5   ar
     7     5     6   ar
     8     5     7    1
     9     7     8    1
    10     8     9   am
    11     9    10    2
    12     9    11   am
    13    11    12    1
    14    12    13    1
    15    13    14    1
    16    14    22    1
    17    22    23    1
    18    23    24   ar
    19    24    25   ar
    20    25    26   ar
    21    26    27   ar
    22    27    28   ar
    23    27    29    1
    24    29    30    1
    25    30    31    1
    26    14    15    1
    27    15    16    1
    28     8    17    1
    29    17    18    1
    30    18    19    1
    31     6     1   ar
    32    16    11    1
    33    19     4    1
    34    28    23   ar
    35    31    26    1
@<TRIPOS>MOLECULE
*****
 31 35 0 0 0
SMALL
GASTEIGER

@<TRIPOS>ATOM
      1 C           4.2790   -1.8008   19.2745 C.ar    1  UNL1        0.1385
      2 C           3.9393   -1.2918   17.9050 C.ar    1  UNL1        0.0374
      3 C           2.9093   -0.2139   17.7396 C.ar    1  UNL1        0.0090
      4 C           2.2191    0.3551   18.9438 C.ar    1  UNL1        0.0231
      5 C           2.5588   -0.1539   20.3132 C.ar    1  UNL1        0.0064
      6 C           3.5887   -1.2318   20.4786 C.ar    1  UNL1        0.0348
      7 C           1.9942    0.2721   21.6360 C.3     1  UNL1        0.1223
      8 N           0.9503    1.3124   21.9159 N.am    1  UNL1       -0.2590
      9 C           0.5968    1.5072   23.3606 C.2     1  UNL1        0.3075
     10 O           1.2758    0.6860   24.4162 O.2     1  UNL1       -0.2523
     11 N          -0.4359    2.5233   23.7495 N.am    1  UNL1       -0.2612
     12 C          -1.1150    3.3445   22.6937 C.3     1  UNL1        0.1123
     13 C          -2.1476    4.3605   23.0826 C.3     1  UNL1        0.0942
     14 N          -2.5012    4.5554   24.5272 N.3     1  UNL1       -0.2660
     15 C          -1.8222    3.7342   25.5830 C.3     1  UNL1        0.0942
     16 C          -0.7895    2.7182   25.1941 C.3     1  UNL1        0.1123
     17 C           0.2134    2.1834   20.9423 C.3     1  UNL1        0.1072
     18 C           0.3382    2.2295   19.4482 C.3     1  UNL1        0.0837
     19 S           1.2309    1.4158   18.5587 S.3     1  UNL1       -0.1121
     20 C           4.9767   -4.2955   19.0760 C.3     1  UNL1        0.2525
     21 O           5.3089   -2.8787   19.4398 O.3     1  UNL1       -0.4714
     22 C          -3.5339    5.5714   24.9161 C.3     1  UNL1        0.0993
     23 C          -4.9812    5.3255   24.6084 C.ar    1  UNL1       -0.0029
     24 C          -5.3639    4.3832   23.5059 C.ar    1  UNL1        0.0004
     25 C          -6.8112    4.1372   23.1981 C.ar    1  UNL1        0.0399
     26 C          -7.8758    4.8336   23.9928 C.ar    1  UNL1        0.1764
     27 C          -7.4932    5.7759   25.0954 C.ar    1  UNL1        0.1762
     28 C          -6.0458    6.0219   25.4031 C.ar    1  UNL1        0.0373
     29 O          -8.7542    6.3144   25.7034 O.3     1  UNL1       -0.4346
     30 C          -9.9163    5.7049   24.9768 C.3     1  UNL1        0.4294
     31 O          -9.3735    4.7897   23.9196 O.3     1  UNL1       -0.4346
@<TRIPOS>BOND
     1    20    21    1
     2    21     1    1
     3     1     2   ar
     4     2     3   ar
     5     3     4   ar
     6     4     5   ar
     7     5     6   ar
     8     5     7    1
     9     7     8    1
    10     8     9   am
    11     9    10    2
    12     9    11   am
    13    11    12    1
    14    12    13    1
    15    13    14    1
    16    14    22    1
    17    22    23    1
    18    23    24   ar
    19    24    25   ar
    20    25    26   ar
    21    26    27   ar
    22    27    28   ar
    23    27    29    1
    24    29    30    1
    25    30    31    1
    26    14    15    1
    27    15    16    1
    28     8    17    1
    29    17    18    1
    30    18    19    1
    31     6     1   ar
    32    16    11    1
    33    19     4    1
    34    28    23   ar
    35    31    26    1
