@<TRIPOS>MOLECULE
*****
 21 23 0 0 0
SMALL
GASTEIGER

@<TRIPOS>ATOM
      1 C          -5.9614  -19.5412   21.5592 C.3     1  UNL1        0.0591
      2 C          -5.0346  -18.5292   22.1649 C.3     1  UNL1        0.0418
      3 C          -5.5828  -17.4334   23.0303 C.ar    1  UNL1       -0.0245
      4 C          -4.6560  -16.4214   23.6359 C.ar    1  UNL1       -0.0045
      5 C          -5.2042  -15.3257   24.5013 C.ar    1  UNL1       -0.0003
      6 C          -6.6792  -15.2421   24.7610 C.ar    1  UNL1       -0.0003
      7 C          -7.6060  -16.2541   24.1554 C.ar    1  UNL1       -0.0043
      8 C          -7.0578  -17.3497   23.2900 C.ar    1  UNL1       -0.0223
      9 C          -7.9846  -18.3618   22.6843 C.3     1  UNL1        0.0456
     10 C          -7.4364  -19.4575   21.8189 C.3     1  UNL1        0.0248
     11 C          -9.4596  -18.2781   22.9440 C.ar    1  UNL1       -0.0175
     12 C         -10.0416  -18.9102   24.1735 C.ar    1  UNL1       -0.0030
     13 C         -11.5166  -18.8265   24.4333 C.ar    1  UNL1        0.0119
     14 C         -12.4095  -18.1108   23.4634 C.ar    1  UNL1        0.0682
     15 CL        -13.8845  -18.0271   23.7231 Cl      1  UNL1       -0.0814
     16 C         -11.8274  -17.4788   22.2339 C.ar    1  UNL1        0.0679
     17 CL        -12.7203  -16.7630   21.2641 Cl      1  UNL1       -0.0814
     18 C         -10.3524  -17.5625   21.9742 C.ar    1  UNL1        0.0083
     19 C          -4.0876  -20.4634   20.0138 C.3     1  UNL1        0.0859
     20 N          -5.4132  -20.6370   20.6938 N.3     1  UNL1       -0.2971
     21 H          -5.3359  -21.4663   21.2825 H       1  UNL1        0.1233
@<TRIPOS>BOND
     1    19    20    1
     2     1    20    1
     3     1     2    1
     4     2     3    1
     5     3     4   ar
     6     4     5   ar
     7     5     6   ar
     8     6     7   ar
     9     7     8   ar
    10     8     9    1
    11     9    11    1
    12    11    12   ar
    13    12    13   ar
    14    13    14   ar
    15    14    15    1
    16    14    16   ar
    17    16    17    1
    18    16    18   ar
    19     9    10    1
    20    10     1    1
    21     8     3   ar
    22    18    11   ar
    23    20    21    1
@<TRIPOS>MOLECULE
*****
 21 23 0 0 0
SMALL
GASTEIGER

@<TRIPOS>ATOM
      1 C         -12.0550  -17.9207   22.4524 C.3     1  UNL1        0.0591
      2 C         -11.6760  -18.7136   21.2369 C.3     1  UNL1        0.0418
      3 C         -10.2322  -18.8620   20.8583 C.ar    1  UNL1       -0.0245
      4 C          -9.8532  -19.6549   19.6427 C.ar    1  UNL1       -0.0045
      5 C          -8.4094  -19.8033   19.2642 C.ar    1  UNL1       -0.0003
      6 C          -7.3445  -19.1588   20.1012 C.ar    1  UNL1       -0.0003
      7 C          -7.7235  -18.3659   21.3168 C.ar    1  UNL1       -0.0043
      8 C          -9.1673  -18.2175   21.6953 C.ar    1  UNL1       -0.0223
      9 C          -9.5463  -17.4246   22.9110 C.3     1  UNL1        0.0456
     10 C         -10.9901  -17.2762   23.2895 C.3     1  UNL1        0.0248
     11 C          -8.4814  -16.7800   23.7480 C.ar    1  UNL1       -0.0175
     12 C          -7.1488  -16.4507   23.1431 C.ar    1  UNL1       -0.0030
     13 C          -6.0839  -15.8062   23.9802 C.ar    1  UNL1        0.0119
     14 C          -6.3517  -15.4910   25.4221 C.ar    1  UNL1        0.0682
     15 CL         -5.2868  -14.8465   26.2591 Cl      1  UNL1       -0.0814
     16 C          -7.6842  -15.8203   26.0269 C.ar    1  UNL1        0.0679
     17 CL         -7.9519  -15.5051   27.4688 Cl      1  UNL1       -0.0814
     18 C          -8.7491  -16.4648   25.1898 C.ar    1  UNL1        0.0083
     19 C         -13.9479  -18.1091   24.2220 C.3     1  UNL1        0.0859
     20 N         -13.4989  -17.7723   22.8310 N.3     1  UNL1       -0.2971
     21 H         -13.7467  -16.7960   22.6699 H       1  UNL1        0.1233
@<TRIPOS>BOND
     1    19    20    1
     2     1    20    1
     3     1     2    1
     4     2     3    1
     5     3     4   ar
     6     4     5   ar
     7     5     6   ar
     8     6     7   ar
     9     7     8   ar
    10     8     9    1
    11     9    11    1
    12    11    12   ar
    13    12    13   ar
    14    13    14   ar
    15    14    15    1
    16    14    16   ar
    17    16    17    1
    18    16    18   ar
    19     9    10    1
    20    10     1    1
    21     8     3   ar
    22    18    11   ar
    23    20    21    1
@<TRIPOS>MOLECULE
*****
 21 23 0 0 0
SMALL
GASTEIGER

@<TRIPOS>ATOM
      1 C          -5.6000  -16.2376   23.9321 C.3     1  UNL1        0.0591
      2 C          -4.6405  -17.1920   23.2854 C.3     1  UNL1        0.0418
      3 C          -5.1543  -18.2820   22.3921 C.ar    1  UNL1       -0.0245
      4 C          -4.1947  -19.2365   21.7453 C.ar    1  UNL1       -0.0045
      5 C          -4.7086  -20.3264   20.8521 C.ar    1  UNL1       -0.0003
      6 C          -6.1820  -20.4619   20.6056 C.ar    1  UNL1       -0.0003
      7 C          -7.1415  -19.5075   21.2523 C.ar    1  UNL1       -0.0043
      8 C          -6.6277  -18.4176   22.1456 C.ar    1  UNL1       -0.0223
      9 C          -7.5872  -17.4631   22.7924 C.3     1  UNL1        0.0456
     10 C          -7.0734  -16.3731   23.6856 C.3     1  UNL1        0.0248
     11 C          -9.0606  -17.5986   22.5458 C.ar    1  UNL1       -0.0175
     12 C          -9.8758  -18.5458   23.3754 C.ar    1  UNL1       -0.0030
     13 C         -11.3492  -18.6814   23.1289 C.ar    1  UNL1        0.0119
     14 C         -12.0074  -17.8696   22.0528 C.ar    1  UNL1        0.0682
     15 CL        -13.4808  -18.0051   21.8063 Cl      1  UNL1       -0.0814
     16 C         -11.1922  -16.9224   21.2233 C.ar    1  UNL1        0.0679
     17 CL        -11.8503  -16.1107   20.1471 Cl      1  UNL1       -0.0814
     18 C          -9.7188  -16.7869   21.4698 C.ar    1  UNL1        0.0083
     19 C          -5.5432  -15.0691   26.2519 C.3     1  UNL1        0.0859
     20 N          -5.0862  -15.1476   24.8255 N.3     1  UNL1       -0.2971
     21 H          -4.0704  -15.2383   24.8463 H       1  UNL1        0.1233
@<TRIPOS>BOND
     1    19    20    1
     2     1    20    1
     3     1     2    1
     4     2     3    1
     5     3     4   ar
     6     4     5   ar
     7     5     6   ar
     8     6     7   ar
     9     7     8   ar
    10     8     9    1
    11     9    11    1
    12    11    12   ar
    13    12    13   ar
    14    13    14   ar
    15    14    15    1
    16    14    16   ar
    17    16    17    1
    18    16    18   ar
    19     9    10    1
    20    10     1    1
    21     8     3   ar
    22    18    11   ar
    23    20    21    1
@<TRIPOS>MOLECULE
*****
 21 23 0 0 0
SMALL
GASTEIGER

@<TRIPOS>ATOM
      1 C          -8.0961  -19.2642   20.6640 C.3     1  UNL1        0.0591
      2 C          -9.4392  -18.9470   20.0763 C.3     1  UNL1        0.0418
      3 C         -10.3440  -17.9651   20.7600 C.ar    1  UNL1       -0.0245
      4 C         -11.6871  -17.6479   20.1723 C.ar    1  UNL1       -0.0045
      5 C         -12.5918  -16.6660   20.8559 C.ar    1  UNL1       -0.0003
      6 C         -12.1534  -16.0014   22.1272 C.ar    1  UNL1       -0.0003
      7 C         -10.8103  -16.3186   22.7148 C.ar    1  UNL1       -0.0043
      8 C          -9.9056  -17.3005   22.0312 C.ar    1  UNL1       -0.0223
      9 C          -8.5624  -17.6178   22.6189 C.3     1  UNL1        0.0456
     10 C          -7.6577  -18.5996   21.9352 C.3     1  UNL1        0.0248
     11 C          -8.1240  -16.9532   23.8901 C.ar    1  UNL1       -0.0175
     12 C          -8.9841  -17.0382   25.1161 C.ar    1  UNL1       -0.0030
     13 C          -8.5457  -16.3736   26.3874 C.ar    1  UNL1        0.0119
     14 C          -7.2473  -15.6239   26.4326 C.ar    1  UNL1        0.0682
     15 CL         -6.8089  -14.9593   27.7039 Cl      1  UNL1       -0.0814
     16 C          -6.3872  -15.5389   25.2066 C.ar    1  UNL1        0.0679
     17 CL         -5.0888  -14.7891   25.2519 Cl      1  UNL1       -0.0814
     18 C          -6.8256  -16.2035   23.9354 C.ar    1  UNL1        0.0083
     19 C          -5.8283  -20.5260   20.5406 C.3     1  UNL1        0.0859
     20 N          -7.1913  -20.2461   19.9803 N.3     1  UNL1       -0.2971
     21 H          -7.6881  -21.1366   19.9557 H       1  UNL1        0.1233
@<TRIPOS>BOND
     1    19    20    1
     2     1    20    1
     3     1     2    1
     4     2     3    1
     5     3     4   ar
     6     4     5   ar
     7     5     6   ar
     8     6     7   ar
     9     7     8   ar
    10     8     9    1
    11     9    11    1
    12    11    12   ar
    13    12    13   ar
    14    13    14   ar
    15    14    15    1
    16    14    16   ar
    17    16    17    1
    18    16    18   ar
    19     9    10    1
    20    10     1    1
    21     8     3   ar
    22    18    11   ar
    23    20    21    1
@<TRIPOS>MOLECULE
*****
 21 23 0 0 0
SMALL
GASTEIGER

@<TRIPOS>ATOM
      1 C          -8.1158  -15.9222   24.4575 C.3     1  UNL1        0.0591
      2 C          -9.5902  -16.1237   24.2693 C.3     1  UNL1        0.0418
      3 C         -10.0886  -17.1598   23.3058 C.ar    1  UNL1       -0.0245
      4 C         -11.5631  -17.3613   23.1177 C.ar    1  UNL1       -0.0045
      5 C         -12.0615  -18.3973   22.1542 C.ar    1  UNL1       -0.0003
      6 C         -11.0854  -19.2318   21.3790 C.ar    1  UNL1       -0.0003
      7 C          -9.6110  -19.0303   21.5672 C.ar    1  UNL1       -0.0043
      8 C          -9.1126  -17.9943   22.5306 C.ar    1  UNL1       -0.0223
      9 C          -7.6381  -17.7927   22.7188 C.3     1  UNL1        0.0456
     10 C          -7.1398  -16.7567   23.6822 C.3     1  UNL1        0.0248
     11 C          -6.6621  -18.6272   21.9436 C.ar    1  UNL1       -0.0175
     12 C          -7.1368  -19.4557   20.7866 C.ar    1  UNL1       -0.0030
     13 C          -6.1608  -20.2902   20.0114 C.ar    1  UNL1        0.0119
     14 C          -4.7101  -20.2962   20.3931 C.ar    1  UNL1        0.0682
     15 CL         -3.7341  -21.1308   19.6178 Cl      1  UNL1       -0.0814
     16 C          -4.2355  -19.4678   21.5500 C.ar    1  UNL1        0.0679
     17 CL         -2.7849  -19.4739   21.9317 Cl      1  UNL1       -0.0814
     18 C          -5.2115  -18.6333   22.3252 C.ar    1  UNL1        0.0083
     19 C          -6.9024  -15.3065   26.6708 C.3     1  UNL1        0.0859
     20 N          -7.6173  -14.8862   25.4210 N.3     1  UNL1       -0.2971
     21 H          -6.9757  -14.2863   24.9024 H       1  UNL1        0.1233
@<TRIPOS>BOND
     1    19    20    1
     2     1    20    1
     3     1     2    1
     4     2     3    1
     5     3     4   ar
     6     4     5   ar
     7     5     6   ar
     8     6     7   ar
     9     7     8   ar
    10     8     9    1
    11     9    11    1
    12    11    12   ar
    13    12    13   ar
    14    13    14   ar
    15    14    15    1
    16    14    16   ar
    17    16    17    1
    18    16    18   ar
    19     9    10    1
    20    10     1    1
    21     8     3   ar
    22    18    11   ar
    23    20    21    1
@<TRIPOS>MOLECULE
*****
 21 23 0 0 0
SMALL
GASTEIGER

@<TRIPOS>ATOM
      1 C          -8.9946  -16.3082   23.7702 C.3     1  UNL1        0.0591
      2 C         -10.1313  -16.7588   22.9014 C.3     1  UNL1        0.0418
      3 C          -9.8831  -17.7301   21.7855 C.ar    1  UNL1       -0.0245
      4 C         -11.0198  -18.1807   20.9168 C.ar    1  UNL1       -0.0045
      5 C         -10.7716  -19.1520   19.8010 C.ar    1  UNL1       -0.0003
      6 C          -9.3867  -19.6726   19.5540 C.ar    1  UNL1       -0.0003
      7 C          -8.2500  -19.2220   20.4228 C.ar    1  UNL1       -0.0043
      8 C          -8.4982  -18.2507   21.5386 C.ar    1  UNL1       -0.0223
      9 C          -7.3615  -17.8000   22.4074 C.3     1  UNL1        0.0456
     10 C          -7.6097  -16.8288   23.5232 C.3     1  UNL1        0.0248
     11 C          -5.9766  -18.3207   22.1604 C.ar    1  UNL1       -0.0175
     12 C          -4.8278  -17.8153   22.9820 C.ar    1  UNL1       -0.0030
     13 C          -3.4429  -18.3359   22.7350 C.ar    1  UNL1        0.0119
     14 C          -3.2068  -19.3619   21.6665 C.ar    1  UNL1        0.0682
     15 CL         -1.8219  -19.8825   21.4195 Cl      1  UNL1       -0.0814
     16 C          -4.3556  -19.8672   20.8450 C.ar    1  UNL1        0.0679
     17 CL         -4.1195  -20.8932   19.7764 Cl      1  UNL1       -0.0814
     18 C          -5.7405  -19.3466   21.0920 C.ar    1  UNL1        0.0083
     19 C          -8.4114  -15.3987   26.1330 C.3     1  UNL1        0.0859
     20 N          -9.2428  -15.3369   24.8861 N.3     1  UNL1       -0.2971
     21 H          -9.1195  -14.4025   24.4960 H       1  UNL1        0.1233
@<TRIPOS>BOND
     1    19    20    1
     2     1    20    1
     3     1     2    1
     4     2     3    1
     5     3     4   ar
     6     4     5   ar
     7     5     6   ar
     8     6     7   ar
     9     7     8   ar
    10     8     9    1
    11     9    11    1
    12    11    12   ar
    13    12    13   ar
    14    13    14   ar
    15    14    15    1
    16    14    16   ar
    17    16    17    1
    18    16    18   ar
    19     9    10    1
    20    10     1    1
    21     8     3   ar
    22    18    11   ar
    23    20    21    1
@<TRIPOS>MOLECULE
*****
 21 23 0 0 0
SMALL
GASTEIGER

@<TRIPOS>ATOM
      1 C         -11.7444  -16.3894   20.3335 C.3     1  UNL1        0.0591
      2 C         -12.7608  -16.7491   21.3763 C.3     1  UNL1        0.0418
      3 C         -12.3540  -17.5563   22.5734 C.ar    1  UNL1       -0.0245
      4 C         -13.3704  -17.9160   23.6161 C.ar    1  UNL1       -0.0045
      5 C         -12.9635  -18.7231   24.8131 C.ar    1  UNL1       -0.0003
      6 C         -11.5402  -19.1706   24.9674 C.ar    1  UNL1       -0.0003
      7 C         -10.5237  -18.8110   23.9246 C.ar    1  UNL1       -0.0043
      8 C         -10.9306  -18.0038   22.7276 C.ar    1  UNL1       -0.0223
      9 C          -9.9141  -17.6441   21.6848 C.3     1  UNL1        0.0456
     10 C         -10.3210  -16.8369   20.4878 C.3     1  UNL1        0.0248
     11 C          -8.4907  -18.0916   21.8390 C.ar    1  UNL1       -0.0175
     12 C          -7.5519  -17.3172   22.7160 C.ar    1  UNL1       -0.0030
     13 C          -6.1286  -17.7647   22.8702 C.ar    1  UNL1        0.0119
     14 C          -5.6440  -18.9866   22.1475 C.ar    1  UNL1        0.0682
     15 CL         -4.2207  -19.4341   22.3018 Cl      1  UNL1       -0.0814
     16 C          -6.5828  -19.7609   21.2706 C.ar    1  UNL1        0.0679
     17 CL         -6.0983  -20.9829   20.5479 Cl      1  UNL1       -0.0814
     18 C          -8.0062  -19.3134   21.1164 C.ar    1  UNL1        0.0083
     19 C         -11.1230  -14.7992   18.3751 C.3     1  UNL1        0.0859
     20 N         -12.1512  -15.5822   19.1364 N.3     1  UNL1       -0.2971
     21 H         -12.5766  -16.2312   18.4744 H       1  UNL1        0.1233
@<TRIPOS>BOND
     1    19    20    1
     2     1    20    1
     3     1     2    1
     4     2     3    1
     5     3     4   ar
     6     4     5   ar
     7     5     6   ar
     8     6     7   ar
     9     7     8   ar
    10     8     9    1
    11     9    11    1
    12    11    12   ar
    13    12    13   ar
    14    13    14   ar
    15    14    15    1
    16    14    16   ar
    17    16    17    1
    18    16    18   ar
    19     9    10    1
    20    10     1    1
    21     8     3   ar
    22    18    11   ar
    23    20    21    1
@<TRIPOS>MOLECULE
*****
 21 23 0 0 0
SMALL
GASTEIGER

@<TRIPOS>ATOM
      1 C          -5.7450  -15.5694   25.0250 C.3     1  UNL1        0.0591
      2 C          -4.5211  -16.2820   24.5309 C.3     1  UNL1        0.0418
      3 C          -4.6382  -17.3064   23.4414 C.ar    1  UNL1       -0.0245
      4 C          -3.4143  -18.0190   22.9472 C.ar    1  UNL1       -0.0045
      5 C          -3.5314  -19.0434   21.8578 C.ar    1  UNL1       -0.0003
      6 C          -4.8725  -19.3552   21.2625 C.ar    1  UNL1       -0.0003
      7 C          -6.0964  -18.6426   21.7567 C.ar    1  UNL1       -0.0043
      8 C          -5.9793  -17.6182   22.8461 C.ar    1  UNL1       -0.0223
      9 C          -7.2032  -16.9056   23.3403 C.3     1  UNL1        0.0456
     10 C          -7.0861  -15.8812   24.4297 C.3     1  UNL1        0.0248
     11 C          -8.5443  -17.2174   22.7450 C.ar    1  UNL1       -0.0175
     12 C          -9.2850  -16.1659   21.9732 C.ar    1  UNL1       -0.0030
     13 C         -10.6261  -16.4777   21.3779 C.ar    1  UNL1        0.0119
     14 C         -11.2264  -17.8410   21.5544 C.ar    1  UNL1        0.0682
     15 CL        -12.5674  -18.1528   20.9591 Cl      1  UNL1       -0.0814
     16 C         -10.4856  -18.8924   22.3262 C.ar    1  UNL1        0.0679
     17 CL        -11.0859  -20.2557   22.5028 Cl      1  UNL1       -0.0814
     18 C          -9.1446  -18.5806   22.9215 C.ar    1  UNL1        0.0083
     19 C          -6.4507  -14.6789   27.3615 C.3     1  UNL1        0.0859
     20 N          -5.6279  -14.5450   26.1145 N.3     1  UNL1       -0.2971
     21 H          -4.6506  -14.5357   26.4061 H       1  UNL1        0.1233
@<TRIPOS>BOND
     1    19    20    1
     2     1    20    1
     3     1     2    1
     4     2     3    1
     5     3     4   ar
     6     4     5   ar
     7     5     6   ar
     8     6     7   ar
     9     7     8   ar
    10     8     9    1
    11     9    11    1
    12    11    12   ar
    13    12    13   ar
    14    13    14   ar
    15    14    15    1
    16    14    16   ar
    17    16    17    1
    18    16    18   ar
    19     9    10    1
    20    10     1    1
    21     8     3   ar
    22    18    11   ar
    23    20    21    1
@<TRIPOS>MOLECULE
*****
 21 23 0 0 0
SMALL
GASTEIGER

@<TRIPOS>ATOM
      1 C         -11.3473  -17.2844   20.3952 C.3     1  UNL1        0.0591
      2 C         -12.0667  -17.5463   21.6850 C.3     1  UNL1        0.0418
      3 C         -11.3838  -18.3054   22.7839 C.ar    1  UNL1       -0.0245
      4 C         -12.1032  -18.5673   24.0738 C.ar    1  UNL1       -0.0045
      5 C         -11.4203  -19.3263   25.1726 C.ar    1  UNL1       -0.0003
      6 C         -10.0180  -19.8234   24.9816 C.ar    1  UNL1       -0.0003
      7 C          -9.2986  -19.5615   23.6918 C.ar    1  UNL1       -0.0043
      8 C          -9.9815  -18.8025   22.5929 C.ar    1  UNL1       -0.0223
      9 C          -9.2621  -18.5405   21.3030 C.3     1  UNL1        0.0456
     10 C          -9.9450  -17.7814   20.2041 C.3     1  UNL1        0.0248
     11 C          -7.8598  -19.0375   21.1119 C.ar    1  UNL1       -0.0175
     12 C          -7.5601  -20.0434   20.0402 C.ar    1  UNL1       -0.0030
     13 C          -6.1578  -20.5405   19.8492 C.ar    1  UNL1        0.0119
     14 C          -5.0552  -20.0317   20.7299 C.ar    1  UNL1        0.0682
     15 CL         -3.6529  -20.5288   20.5388 Cl      1  UNL1       -0.0814
     16 C          -5.3550  -19.0259   21.8015 C.ar    1  UNL1        0.0679
     17 CL         -4.2524  -18.5171   22.6822 Cl      1  UNL1       -0.0814
     18 C          -6.7573  -18.5288   21.9926 C.ar    1  UNL1        0.0083
     19 C         -11.4613  -15.2220   18.8192 C.3     1  UNL1        0.0859
     20 N         -12.0302  -16.5253   19.2962 N.3     1  UNL1       -0.2971
     21 H         -12.0642  -17.1454   18.4871 H       1  UNL1        0.1233
@<TRIPOS>BOND
     1    19    20    1
     2     1    20    1
     3     1     2    1
     4     2     3    1
     5     3     4   ar
     6     4     5   ar
     7     5     6   ar
     8     6     7   ar
     9     7     8   ar
    10     8     9    1
    11     9    11    1
    12    11    12   ar
    13    12    13   ar
    14    13    14   ar
    15    14    15    1
    16    14    16   ar
    17    16    17    1
    18    16    18   ar
    19     9    10    1
    20    10     1    1
    21     8     3   ar
    22    18    11   ar
    23    20    21    1
