@<TRIPOS>MOLECULE
*****
 27 29 0 0 0
SMALL
GASTEIGER

@<TRIPOS>ATOM
      1 C          -5.6625  -16.7988   23.4568 C.ar    1  UNL1        0.0482
      2 C          -5.1777  -16.0794   24.6804 C.ar    1  UNL1        0.0142
      3 C          -6.1635  -15.5548   25.6819 C.ar    1  UNL1       -0.0001
      4 C          -7.6341  -15.7497   25.4598 C.ar    1  UNL1        0.0131
      5 C          -8.1190  -16.4692   24.2361 C.ar    1  UNL1        0.0321
      6 S          -9.5895  -16.6640   24.0140 S.2     1  UNL1       -0.0869
      7 C         -10.0744  -17.3835   22.7903 C.ar    1  UNL1        0.0325
      8 C         -11.5450  -17.5784   22.5682 C.ar    1  UNL1        0.0066
      9 C         -12.0298  -18.2979   21.3446 C.ar    1  UNL1        0.0005
     10 C         -11.0440  -18.8225   20.3431 C.ar    1  UNL1        0.0001
     11 C          -9.5734  -18.6276   20.5652 C.ar    1  UNL1        0.0037
     12 C          -9.0886  -17.9081   21.7888 C.ar    1  UNL1        0.0450
     13 C          -7.6180  -17.7132   22.0110 C.ar    1  UNL1        0.1977
     14 O          -6.6322  -18.2378   21.0095 O.2     1  UNL1       -0.2865
     15 C          -7.1332  -16.9937   23.2346 C.ar    1  UNL1        0.0578
     16 C          -8.6199  -15.2251   26.4613 C.3     1  UNL1        0.1641
     17 O          -8.1338  -14.5762   27.7232 O.3     1  UNL1       -0.3772
     18 H          -7.6803  -15.2353   28.2717 H       1  UNL1        0.2109
     19 N          -4.6767  -17.3234   22.4553 N.pl3   1  UNL1       -0.3314
     20 H          -4.8733  -17.2622   21.4925 H       1  UNL1        0.1469
     21 C          -3.3915  -17.9412   22.9206 C.3     1  UNL1        0.1046
     22 C          -2.6144  -18.8372   22.0022 C.3     1  UNL1        0.0935
     23 N          -2.5221  -18.5143   20.5403 N.3     1  UNL1       -0.2712
     24 C          -0.1080  -17.7803   19.9208 C.3     1  UNL1        0.0188
     25 C          -1.5666  -17.4607   20.0638 C.3     1  UNL1        0.0722
     26 C          -3.3852  -19.2451   19.5549 C.3     1  UNL1        0.0722
     27 C          -4.0899  -20.5043   19.9643 C.3     1  UNL1        0.0188
@<TRIPOS>BOND
     1    24    25    1
     2    25    23    1
     3    23    26    1
     4    26    27    1
     5    23    22    1
     6    22    21    1
     7    21    19    1
     8    19     1    1
     9     1     2   ar
    10     2     3   ar
    11     3     4   ar
    12     4    16    1
    13    16    17    1
    14     4     5   ar
    15     5     6   ar
    16     6     7   ar
    17     7     8   ar
    18     8     9   ar
    19     9    10   ar
    20    10    11   ar
    21    11    12   ar
    22    12    13   ar
    23    13    14    2
    24    13    15   ar
    25    15     1   ar
    26    15     5   ar
    27    12     7   ar
    28    19    20    1
    29    17    18    1
@<TRIPOS>MOLECULE
*****
 27 29 0 0 0
SMALL
GASTEIGER

@<TRIPOS>ATOM
      1 C          -8.1166  -18.4580   21.2930 C.ar    1  UNL1        0.0482
      2 C          -9.3364  -19.1208   20.7249 C.ar    1  UNL1        0.0142
      3 C         -10.6228  -19.1121   21.4964 C.ar    1  UNL1       -0.0001
      4 C         -10.6893  -18.4405   22.8360 C.ar    1  UNL1        0.0131
      5 C          -9.4695  -17.7777   23.4042 C.ar    1  UNL1        0.0321
      6 S          -9.5361  -17.1062   24.7438 S.2     1  UNL1       -0.0869
      7 C          -8.3162  -16.4433   25.3119 C.ar    1  UNL1        0.0325
      8 C          -8.3828  -15.7718   26.6515 C.ar    1  UNL1        0.0066
      9 C          -7.1630  -15.1090   27.2196 C.ar    1  UNL1        0.0005
     10 C          -5.8767  -15.1178   26.4481 C.ar    1  UNL1        0.0001
     11 C          -5.8101  -15.7893   25.1085 C.ar    1  UNL1        0.0037
     12 C          -7.0299  -16.4521   24.5404 C.ar    1  UNL1        0.0450
     13 C          -6.9634  -17.1236   23.2007 C.ar    1  UNL1        0.1977
     14 O          -5.6770  -17.1324   22.4292 O.2     1  UNL1       -0.2865
     15 C          -8.1832  -17.7864   22.6326 C.ar    1  UNL1        0.0578
     16 C         -11.9757  -18.4318   23.6075 C.3     1  UNL1        0.1641
     17 O         -13.1599  -17.6753   23.0827 O.3     1  UNL1       -0.3772
     18 H         -12.9633  -16.7255   23.0842 H       1  UNL1        0.2109
     19 N          -6.8303  -18.4667   20.5215 N.pl3   1  UNL1       -0.3314
     20 H          -6.4120  -17.6172   20.2522 H       1  UNL1        0.1469
     21 C          -6.1812  -19.7699   20.1602 C.3     1  UNL1        0.1046
     22 C          -4.9085  -20.1866   20.8358 C.3     1  UNL1        0.0935
     23 N          -3.6612  -19.3738   20.6526 N.3     1  UNL1       -0.2712
     24 C          -2.3954  -18.1197   22.5434 C.3     1  UNL1        0.0188
     25 C          -2.6122  -19.3578   21.7247 C.3     1  UNL1        0.0722
     26 C          -3.4629  -18.5770   19.3972 C.3     1  UNL1        0.0722
     27 C          -2.0770  -18.2298   18.9404 C.3     1  UNL1        0.0188
@<TRIPOS>BOND
     1    24    25    1
     2    25    23    1
     3    23    26    1
     4    26    27    1
     5    23    22    1
     6    22    21    1
     7    21    19    1
     8    19     1    1
     9     1     2   ar
    10     2     3   ar
    11     3     4   ar
    12     4    16    1
    13    16    17    1
    14     4     5   ar
    15     5     6   ar
    16     6     7   ar
    17     7     8   ar
    18     8     9   ar
    19     9    10   ar
    20    10    11   ar
    21    11    12   ar
    22    12    13   ar
    23    13    14    2
    24    13    15   ar
    25    15     1   ar
    26    15     5   ar
    27    12     7   ar
    28    19    20    1
    29    17    18    1
@<TRIPOS>MOLECULE
*****
 27 29 0 0 0
SMALL
GASTEIGER

@<TRIPOS>ATOM
      1 C          -5.6431  -18.5709   22.2553 C.ar    1  UNL1        0.0482
      2 C          -4.5493  -17.9214   23.0502 C.ar    1  UNL1        0.0142
      3 C          -4.8486  -16.7176   23.8936 C.ar    1  UNL1       -0.0001
      4 C          -6.2416  -16.1633   23.9422 C.ar    1  UNL1        0.0131
      5 C          -7.3354  -16.8129   23.1473 C.ar    1  UNL1        0.0321
      6 S          -8.7283  -16.2586   23.1959 S.2     1  UNL1       -0.0869
      7 C          -9.8221  -16.9081   22.4010 C.ar    1  UNL1        0.0325
      8 C         -11.2151  -16.3539   22.4495 C.ar    1  UNL1        0.0066
      9 C         -12.3088  -17.0034   21.6546 C.ar    1  UNL1        0.0005
     10 C         -12.0096  -18.2072   20.8112 C.ar    1  UNL1        0.0001
     11 C         -10.6166  -18.7614   20.7627 C.ar    1  UNL1        0.0037
     12 C          -9.5229  -18.1119   21.5575 C.ar    1  UNL1        0.0450
     13 C          -8.1298  -18.6661   21.5090 C.ar    1  UNL1        0.1977
     14 O          -7.8306  -19.8699   20.6656 O.2     1  UNL1       -0.2865
     15 C          -7.0361  -18.0166   22.3039 C.ar    1  UNL1        0.0578
     16 C          -6.5408  -14.9596   24.7856 C.3     1  UNL1        0.1641
     17 O          -5.5703  -14.5249   25.8435 O.3     1  UNL1       -0.3772
     18 H          -5.5235  -15.2014   26.5370 H       1  UNL1        0.2109
     19 N          -5.3438  -19.7746   21.4119 N.pl3   1  UNL1       -0.3314
     20 H          -5.7234  -20.6507   21.6521 H       1  UNL1        0.1469
     21 C          -4.4662  -19.6437   20.2025 C.3     1  UNL1        0.1046
     22 C          -2.9747  -19.7106   20.3474 C.3     1  UNL1        0.0935
     23 N          -2.1422  -18.4862   20.1073 N.3     1  UNL1       -0.2712
     24 C          -1.8065  -16.3116   21.4888 C.3     1  UNL1        0.0188
     25 C          -1.5162  -17.7661   21.2647 C.3     1  UNL1        0.0722
     26 C          -1.9356  -17.9819   18.7098 C.3     1  UNL1        0.0722
     27 C          -2.8844  -16.9769   18.1272 C.3     1  UNL1        0.0188
@<TRIPOS>BOND
     1    24    25    1
     2    25    23    1
     3    23    26    1
     4    26    27    1
     5    23    22    1
     6    22    21    1
     7    21    19    1
     8    19     1    1
     9     1     2   ar
    10     2     3   ar
    11     3     4   ar
    12     4    16    1
    13    16    17    1
    14     4     5   ar
    15     5     6   ar
    16     6     7   ar
    17     7     8   ar
    18     8     9   ar
    19     9    10   ar
    20    10    11   ar
    21    11    12   ar
    22    12    13   ar
    23    13    14    2
    24    13    15   ar
    25    15     1   ar
    26    15     5   ar
    27    12     7   ar
    28    19    20    1
    29    17    18    1
@<TRIPOS>MOLECULE
*****
 27 29 0 0 0
SMALL
GASTEIGER

@<TRIPOS>ATOM
      1 C          -7.7711  -18.8698   20.7180 C.ar    1  UNL1        0.0482
      2 C          -7.1132  -19.9250   19.8790 C.ar    1  UNL1        0.0142
      3 C          -5.6834  -20.3010   20.1322 C.ar    1  UNL1       -0.0001
      4 C          -4.9114  -19.6219   21.2243 C.ar    1  UNL1        0.0131
      5 C          -5.5692  -18.5666   22.0633 C.ar    1  UNL1        0.0321
      6 S          -4.7972  -17.8875   23.1554 S.2     1  UNL1       -0.0869
      7 C          -5.4551  -16.8323   23.9944 C.ar    1  UNL1        0.0325
      8 C          -4.6831  -16.1532   25.0865 C.ar    1  UNL1        0.0066
      9 C          -5.3410  -15.0980   25.9254 C.ar    1  UNL1        0.0005
     10 C          -6.7708  -14.7220   25.6722 C.ar    1  UNL1        0.0001
     11 C          -7.5428  -15.4011   24.5801 C.ar    1  UNL1        0.0037
     12 C          -6.8850  -16.4563   23.7412 C.ar    1  UNL1        0.0450
     13 C          -7.6570  -17.1355   22.6491 C.ar    1  UNL1        0.1977
     14 O          -9.0868  -16.7595   22.3959 O.2     1  UNL1       -0.2865
     15 C          -6.9991  -18.1906   21.8101 C.ar    1  UNL1        0.0578
     16 C          -3.4815  -19.9979   21.4775 C.3     1  UNL1        0.1641
     17 O          -2.3808  -19.3109   20.7249 O.3     1  UNL1       -0.3772
     18 H          -2.4435  -19.5359   19.7834 H       1  UNL1        0.2109
     19 N          -9.2010  -18.4938   20.4648 N.pl3   1  UNL1       -0.3314
     20 H          -9.4688  -17.5465   20.4678 H       1  UNL1        0.1469
     21 C         -10.2228  -19.5612   20.2069 C.3     1  UNL1        0.1046
     22 C         -11.0345  -20.1123   21.3416 C.3     1  UNL1        0.0935
     23 N         -11.2995  -19.2687   22.5532 N.3     1  UNL1       -0.2712
     24 C         -13.2755  -17.9442   23.5979 C.3     1  UNL1        0.0188
     25 C         -12.2922  -18.1464   22.4832 C.3     1  UNL1        0.0722
     26 C         -10.5717  -19.5473   23.8349 C.3     1  UNL1        0.0722
     27 C          -9.3352  -20.3965   23.8260 C.3     1  UNL1        0.0188
@<TRIPOS>BOND
     1    24    25    1
     2    25    23    1
     3    23    26    1
     4    26    27    1
     5    23    22    1
     6    22    21    1
     7    21    19    1
     8    19     1    1
     9     1     2   ar
    10     2     3   ar
    11     3     4   ar
    12     4    16    1
    13    16    17    1
    14     4     5   ar
    15     5     6   ar
    16     6     7   ar
    17     7     8   ar
    18     8     9   ar
    19     9    10   ar
    20    10    11   ar
    21    11    12   ar
    22    12    13   ar
    23    13    14    2
    24    13    15   ar
    25    15     1   ar
    26    15     5   ar
    27    12     7   ar
    28    19    20    1
    29    17    18    1
@<TRIPOS>MOLECULE
*****
 27 29 0 0 0
SMALL
GASTEIGER

@<TRIPOS>ATOM
      1 C          -6.5001  -18.9448   21.4522 C.ar    1  UNL1        0.0482
      2 C          -5.8821  -19.9548   20.5314 C.ar    1  UNL1        0.0142
      3 C          -6.7145  -20.6090   19.4687 C.ar    1  UNL1       -0.0001
      4 C          -8.1647  -20.2534   19.3269 C.ar    1  UNL1        0.0131
      5 C          -8.7828  -19.2433   20.2478 C.ar    1  UNL1        0.0321
      6 S         -10.2330  -18.8877   20.1061 S.2     1  UNL1       -0.0869
      7 C         -10.8511  -17.8776   21.0270 C.ar    1  UNL1        0.0325
      8 C         -12.3014  -17.5220   20.8852 C.ar    1  UNL1        0.0066
      9 C         -12.9193  -16.5120   21.8060 C.ar    1  UNL1        0.0005
     10 C         -12.0870  -15.8577   22.8687 C.ar    1  UNL1        0.0001
     11 C         -10.6368  -16.2134   23.0105 C.ar    1  UNL1        0.0037
     12 C         -10.0188  -17.2234   22.0896 C.ar    1  UNL1        0.0450
     13 C          -8.5684  -17.5791   22.2313 C.ar    1  UNL1        0.1977
     14 O          -7.7361  -16.9248   23.2940 O.2     1  UNL1       -0.2865
     15 C          -7.9505  -18.5891   21.3105 C.ar    1  UNL1        0.0578
     16 C          -8.9970  -20.9076   18.2643 C.3     1  UNL1        0.1641
     17 O          -8.6113  -22.2568   17.7342 O.3     1  UNL1       -0.3772
     18 H          -7.7675  -22.1889   17.2606 H       1  UNL1        0.2109
     19 N          -5.6678  -18.2905   22.5148 N.pl3   1  UNL1       -0.3314
     20 H          -6.0397  -17.5482   23.0440 H       1  UNL1        0.1469
     21 C          -4.2689  -18.7672   22.7713 C.3     1  UNL1        0.1046
     22 C          -3.1105  -17.8356   22.5705 C.3     1  UNL1        0.0935
     23 N          -2.3021  -17.9052   21.3090 N.3     1  UNL1       -0.2712
     24 C          -2.8850  -19.0448   19.0481 C.3     1  UNL1        0.0188
     25 C          -2.3574  -19.1333   20.4495 C.3     1  UNL1        0.0722
     26 C          -1.4383  -16.7466   20.9068 C.3     1  UNL1        0.0722
     27 C          -0.1709  -16.9862   20.1413 C.3     1  UNL1        0.0188
@<TRIPOS>BOND
     1    24    25    1
     2    25    23    1
     3    23    26    1
     4    26    27    1
     5    23    22    1
     6    22    21    1
     7    21    19    1
     8    19     1    1
     9     1     2   ar
    10     2     3   ar
    11     3     4   ar
    12     4    16    1
    13    16    17    1
    14     4     5   ar
    15     5     6   ar
    16     6     7   ar
    17     7     8   ar
    18     8     9   ar
    19     9    10   ar
    20    10    11   ar
    21    11    12   ar
    22    12    13   ar
    23    13    14    2
    24    13    15   ar
    25    15     1   ar
    26    15     5   ar
    27    12     7   ar
    28    19    20    1
    29    17    18    1
@<TRIPOS>MOLECULE
*****
 27 29 0 0 0
SMALL
GASTEIGER

@<TRIPOS>ATOM
      1 C         -11.4627   -3.9938   19.0399 C.ar    1  UNL1        0.0482
      2 C         -10.0641   -4.3162   18.6041 C.ar    1  UNL1        0.0142
      3 C          -9.7445   -5.6740   18.0526 C.ar    1  UNL1       -0.0001
      4 C         -10.8235   -6.7095   17.9368 C.ar    1  UNL1        0.0131
      5 C         -12.2222   -6.3872   18.3726 C.ar    1  UNL1        0.0321
      6 S         -13.3013   -7.4226   18.2568 S.2     1  UNL1       -0.0869
      7 C         -14.7000   -7.1003   18.6925 C.ar    1  UNL1        0.0325
      8 C         -15.7790   -8.1358   18.5767 C.ar    1  UNL1        0.0066
      9 C         -17.1776   -7.8134   19.0125 C.ar    1  UNL1        0.0005
     10 C         -17.4972   -6.4556   19.5640 C.ar    1  UNL1        0.0001
     11 C         -16.4182   -5.4201   19.6798 C.ar    1  UNL1        0.0037
     12 C         -15.0196   -5.7425   19.2440 C.ar    1  UNL1        0.0450
     13 C         -13.9405   -4.7070   19.3598 C.ar    1  UNL1        0.1977
     14 O         -14.2601   -3.3492   19.9113 O.2     1  UNL1       -0.2865
     15 C         -12.5418   -5.0293   18.9241 C.ar    1  UNL1        0.0578
     16 C         -10.5039   -8.0673   17.3853 C.3     1  UNL1        0.1641
     17 O          -9.6055   -8.9945   18.1489 O.3     1  UNL1       -0.3772
     18 H          -8.7114   -8.6201   18.1867 H       1  UNL1        0.2109
     19 N         -11.7823   -2.6360   19.5914 N.pl3   1  UNL1       -0.3314
     20 H         -12.1598   -2.5487   20.4964 H       1  UNL1        0.1469
     21 C         -11.5268   -1.4112   18.7640 C.3     1  UNL1        0.1046
     22 C         -12.0160   -1.3476   17.3474 C.3     1  UNL1        0.0935
     23 N         -13.4882   -1.3683   17.0607 N.3     1  UNL1       -0.2712
     24 C         -15.5769   -2.8404   16.5909 C.3     1  UNL1        0.0188
     25 C         -14.1107   -2.5733   16.4201 C.3     1  UNL1        0.0722
     26 C         -14.3380   -0.1839   17.4147 C.3     1  UNL1        0.0722
     27 C         -14.8299   -0.0071   18.8206 C.3     1  UNL1        0.0188
@<TRIPOS>BOND
     1    24    25    1
     2    25    23    1
     3    23    26    1
     4    26    27    1
     5    23    22    1
     6    22    21    1
     7    21    19    1
     8    19     1    1
     9     1     2   ar
    10     2     3   ar
    11     3     4   ar
    12     4    16    1
    13    16    17    1
    14     4     5   ar
    15     5     6   ar
    16     6     7   ar
    17     7     8   ar
    18     8     9   ar
    19     9    10   ar
    20    10    11   ar
    21    11    12   ar
    22    12    13   ar
    23    13    14    2
    24    13    15   ar
    25    15     1   ar
    26    15     5   ar
    27    12     7   ar
    28    19    20    1
    29    17    18    1
@<TRIPOS>MOLECULE
*****
 27 29 0 0 0
SMALL
GASTEIGER

@<TRIPOS>ATOM
      1 C          -7.2124  -18.4313   21.1398 C.ar    1  UNL1        0.0482
      2 C          -6.2152  -19.1379   20.2702 C.ar    1  UNL1        0.0142
      3 C          -4.7677  -19.1697   20.6623 C.ar    1  UNL1       -0.0001
      4 C          -4.3174  -18.4950   21.9240 C.ar    1  UNL1        0.0131
      5 C          -5.3146  -17.7884   22.7937 C.ar    1  UNL1        0.0321
      6 S          -4.8644  -17.1137   24.0554 S.2     1  UNL1       -0.0869
      7 C          -5.8616  -16.4071   24.9251 C.ar    1  UNL1        0.0325
      8 C          -5.4113  -15.7324   26.1868 C.ar    1  UNL1        0.0066
      9 C          -6.4085  -15.0259   27.0565 C.ar    1  UNL1        0.0005
     10 C          -7.8560  -14.9940   26.6644 C.ar    1  UNL1        0.0001
     11 C          -8.3063  -15.6687   25.4027 C.ar    1  UNL1        0.0037
     12 C          -7.3091  -16.3753   24.5330 C.ar    1  UNL1        0.0450
     13 C          -7.7594  -17.0500   23.2713 C.ar    1  UNL1        0.1977
     14 O          -9.2069  -17.0182   22.8792 O.2     1  UNL1       -0.2865
     15 C          -6.7621  -17.7566   22.4016 C.ar    1  UNL1        0.0578
     16 C          -2.8699  -18.5269   22.3160 C.3     1  UNL1        0.1641
     17 O          -1.9638  -17.3950   21.9319 O.3     1  UNL1       -0.3772
     18 H          -1.8700  -17.3692   20.9668 H       1  UNL1        0.2109
     19 N          -8.6599  -18.3995   20.7477 N.pl3   1  UNL1       -0.3314
     20 H          -9.0636  -17.5624   20.4230 H       1  UNL1        0.1469
     21 C          -9.4923  -19.6431   20.8505 C.3     1  UNL1        0.1046
     22 C         -10.9612  -19.5408   21.1366 C.3     1  UNL1        0.0935
     23 N         -11.6813  -18.2449   20.9087 N.3     1  UNL1       -0.2712
     24 C         -11.5825  -15.9531   19.6888 C.3     1  UNL1        0.0188
     25 C         -11.4085  -17.4429   19.6708 C.3     1  UNL1        0.0722
     26 C         -12.6743  -17.7509   21.9187 C.3     1  UNL1        0.0722
     27 C         -12.5438  -18.1533   23.3577 C.3     1  UNL1        0.0188
@<TRIPOS>BOND
     1    24    25    1
     2    25    23    1
     3    23    26    1
     4    26    27    1
     5    23    22    1
     6    22    21    1
     7    21    19    1
     8    19     1    1
     9     1     2   ar
    10     2     3   ar
    11     3     4   ar
    12     4    16    1
    13    16    17    1
    14     4     5   ar
    15     5     6   ar
    16     6     7   ar
    17     7     8   ar
    18     8     9   ar
    19     9    10   ar
    20    10    11   ar
    21    11    12   ar
    22    12    13   ar
    23    13    14    2
    24    13    15   ar
    25    15     1   ar
    26    15     5   ar
    27    12     7   ar
    28    19    20    1
    29    17    18    1
@<TRIPOS>MOLECULE
*****
 27 29 0 0 0
SMALL
GASTEIGER

@<TRIPOS>ATOM
      1 C         -15.9986   -4.3659   19.8008 C.ar    1  UNL1        0.0482
      2 C         -17.2960   -5.1182   19.8275 C.ar    1  UNL1        0.0142
      3 C         -17.3177   -6.5870   19.5240 C.ar    1  UNL1       -0.0001
      4 C         -16.0420   -7.3035   19.1938 C.ar    1  UNL1        0.0131
      5 C         -14.7445   -6.5512   19.1671 C.ar    1  UNL1        0.0321
      6 S         -13.4688   -7.2678   18.8369 S.2     1  UNL1       -0.0869
      7 C         -12.1712   -6.5155   18.8102 C.ar    1  UNL1        0.0325
      8 C         -10.8955   -7.2320   18.4800 C.ar    1  UNL1        0.0066
      9 C          -9.5981   -6.4798   18.4532 C.ar    1  UNL1        0.0005
     10 C          -9.5764   -5.0109   18.7567 C.ar    1  UNL1        0.0001
     11 C         -10.8522   -4.2944   19.0870 C.ar    1  UNL1        0.0037
     12 C         -12.1496   -5.0467   19.1137 C.ar    1  UNL1        0.0450
     13 C         -13.4254   -4.3301   19.4439 C.ar    1  UNL1        0.1977
     14 O         -13.4037   -2.8613   19.7474 O.2     1  UNL1       -0.2865
     15 C         -14.7228   -5.0824   19.4706 C.ar    1  UNL1        0.0578
     16 C         -16.0637   -8.7723   18.8903 C.3     1  UNL1        0.1641
     17 O         -16.2785   -9.7635   19.9955 O.3     1  UNL1       -0.3772
     18 H         -15.5254   -9.7350   20.6062 H       1  UNL1        0.2109
     19 N         -15.9769   -2.8971   20.1043 N.pl3   1  UNL1       -0.3314
     20 H         -15.2592   -2.5204   20.6631 H       1  UNL1        0.1469
     21 C         -17.0487   -2.0021   19.5564 C.3     1  UNL1        0.1046
     22 C         -16.8484   -1.3107   18.2405 C.3     1  UNL1        0.0935
     23 N         -15.4706   -0.9035   17.8093 N.3     1  UNL1       -0.2712
     24 C         -15.2147   -3.0481   16.3652 C.3     1  UNL1        0.0188
     25 C         -14.7728   -1.6585   16.7170 C.3     1  UNL1        0.0722
     26 C         -14.7906    0.2587   18.4704 C.3     1  UNL1        0.0722
     27 C         -13.3081    0.4390   18.3303 C.3     1  UNL1        0.0188
@<TRIPOS>BOND
     1    24    25    1
     2    25    23    1
     3    23    26    1
     4    26    27    1
     5    23    22    1
     6    22    21    1
     7    21    19    1
     8    19     1    1
     9     1     2   ar
    10     2     3   ar
    11     3     4   ar
    12     4    16    1
    13    16    17    1
    14     4     5   ar
    15     5     6   ar
    16     6     7   ar
    17     7     8   ar
    18     8     9   ar
    19     9    10   ar
    20    10    11   ar
    21    11    12   ar
    22    12    13   ar
    23    13    14    2
    24    13    15   ar
    25    15     1   ar
    26    15     5   ar
    27    12     7   ar
    28    19    20    1
    29    17    18    1
@<TRIPOS>MOLECULE
*****
 27 29 0 0 0
SMALL
GASTEIGER

@<TRIPOS>ATOM
      1 C         -16.3629   -5.8801   19.4084 C.ar    1  UNL1        0.0482
      2 C         -17.4343   -4.8576   19.6462 C.ar    1  UNL1        0.0142
      3 C         -17.0712   -3.4086   19.7826 C.ar    1  UNL1       -0.0001
      4 C         -15.6367   -2.9822   19.6811 C.ar    1  UNL1        0.0131
      5 C         -14.5652   -4.0047   19.4432 C.ar    1  UNL1        0.0321
      6 S         -13.1308   -3.5782   19.3417 S.2     1  UNL1       -0.0869
      7 C         -12.0593   -4.6008   19.1038 C.ar    1  UNL1        0.0325
      8 C         -10.6248   -4.1743   19.0023 C.ar    1  UNL1        0.0066
      9 C          -9.5535   -5.1968   18.7645 C.ar    1  UNL1        0.0005
     10 C          -9.9166   -6.6458   18.6282 C.ar    1  UNL1        0.0001
     11 C         -11.3511   -7.0723   18.7297 C.ar    1  UNL1        0.0037
     12 C         -12.4225   -6.0498   18.9675 C.ar    1  UNL1        0.0450
     13 C         -13.8570   -6.4762   19.0690 C.ar    1  UNL1        0.1977
     14 O         -14.2202   -7.9252   18.9327 O.2     1  UNL1       -0.2865
     15 C         -14.9284   -5.4537   19.3069 C.ar    1  UNL1        0.0578
     16 C         -15.2736   -1.5332   19.8174 C.3     1  UNL1        0.1641
     17 O         -16.1610   -0.6076   20.5957 O.3     1  UNL1       -0.3772
     18 H         -17.0136   -0.5192   20.1415 H       1  UNL1        0.2109
     19 N         -16.7261   -7.3291   19.2720 N.pl3   1  UNL1       -0.3314
     20 H         -16.2556   -7.8950   18.6181 H       1  UNL1        0.1469
     21 C         -17.8060   -7.9158   20.1320 C.3     1  UNL1        0.1046
     22 C         -19.0228   -8.5224   19.4984 C.3     1  UNL1        0.0935
     23 N         -18.9394   -9.1015   18.1173 N.3     1  UNL1       -0.2712
     24 C         -17.1543  -10.9504   18.4979 C.3     1  UNL1        0.0188
     25 C         -18.4686  -10.5124   17.9227 C.3     1  UNL1        0.0722
     26 C         -19.3270   -8.2698   16.9306 C.3     1  UNL1        0.0722
     27 C         -19.7396   -6.8401   17.1193 C.3     1  UNL1        0.0188
@<TRIPOS>BOND
     1    24    25    1
     2    25    23    1
     3    23    26    1
     4    26    27    1
     5    23    22    1
     6    22    21    1
     7    21    19    1
     8    19     1    1
     9     1     2   ar
    10     2     3   ar
    11     3     4   ar
    12     4    16    1
    13    16    17    1
    14     4     5   ar
    15     5     6   ar
    16     6     7   ar
    17     7     8   ar
    18     8     9   ar
    19     9    10   ar
    20    10    11   ar
    21    11    12   ar
    22    12    13   ar
    23    13    14    2
    24    13    15   ar
    25    15     1   ar
    26    15     5   ar
    27    12     7   ar
    28    19    20    1
    29    17    18    1
