@<TRIPOS>MOLECULE
*****
 39 42 0 0 0
SMALL
GASTEIGER

@<TRIPOS>ATOM
      1 C          -5.4355  -18.3424   22.5712 C.ar    1  UNL1        0.2144
      2 C          -4.9605  -17.0811   23.2296 C.ar    1  UNL1        0.1822
      3 O          -3.6614  -16.4596   22.8104 O.2     1  UNL1       -0.4500
      4 C          -2.8371  -17.0993   21.7326 C.ar    1  UNL1        0.1545
      5 C          -1.5380  -16.4777   21.3134 C.ar    1  UNL1        0.0744
      6 C          -0.7138  -17.1175   20.2357 C.ar    1  UNL1        0.1397
      7 O           0.5854  -16.4959   19.8164 O.3     1  UNL1       -0.5053
      8 C          -1.1888  -18.3787   19.5772 C.ar    1  UNL1        0.0735
      9 C          -2.4880  -19.0003   19.9965 C.ar    1  UNL1        0.1428
     10 O          -2.9630  -20.2616   19.3381 O.3     1  UNL1       -0.5052
     11 C          -3.3121  -18.3606   21.0742 C.ar    1  UNL1        0.1104
     12 C          -4.6113  -18.9821   21.4935 C.ar    1  UNL1        0.2382
     13 O          -5.0863  -20.2434   20.8351 O.2     1  UNL1       -0.2830
     14 H           0.8821  -15.7080   20.2277 H       1  UNL1        0.2922
     15 H          -2.4481  -20.6612   18.6649 H       1  UNL1        0.2922
     16 C          -5.7847  -16.4414   24.3074 C.ar    1  UNL1        0.0379
     17 C          -7.1426  -15.8911   23.9861 C.ar    1  UNL1        0.0062
     18 C          -7.9668  -15.2514   25.0639 C.ar    1  UNL1        0.0367
     19 C          -7.4331  -15.1621   26.4628 C.ar    1  UNL1        0.1337
     20 O          -8.2573  -14.5223   27.5406 O.3     1  UNL1       -0.5055
     21 C          -6.0752  -15.7124   26.7841 C.ar    1  UNL1        0.0367
     22 C          -5.2510  -16.3520   25.7064 C.ar    1  UNL1        0.0062
     23 H          -9.1055  -14.1786   27.3399 H       1  UNL1        0.2922
     24 O          -6.7347  -18.9640   22.9905 O.3     1  UNL1       -0.4441
     25 C         -10.4113  -18.6011   21.5411 C.3     1  UNL1        0.2306
     26 C         -10.2068  -19.0661   20.1298 C.3     1  UNL1        0.1804
     27 O         -11.3642  -19.1002   19.1762 O.3     1  UNL1       -0.3785
     28 C          -8.8449  -19.4971   19.6720 C.3     1  UNL1        0.1494
     29 C          -8.6405  -19.9622   18.2606 C.3     1  UNL1        0.0349
     30 O          -7.6876  -19.4631   20.6255 O.3     1  UNL1       -0.3186
     31 C          -7.8921  -18.9980   22.0369 C.3     1  UNL1        0.3194
     32 C          -9.2540  -18.5670   22.4947 C.3     1  UNL1        0.2240
     33 O          -9.4584  -18.1020   23.9060 O.3     1  UNL1       -0.3758
     34 H         -11.0623  -19.4229   18.3127 H       1  UNL1        0.2106
     35 H          -8.6157  -18.1415   24.3847 H       1  UNL1        0.2107
     36 O         -11.7732  -18.1701   21.9988 O.3     1  UNL1       -0.4468
     37 C         -12.4215  -15.7481   22.6800 C.3     1  UNL1        0.1212
     38 C         -12.2933  -16.8122   21.6305 C.2     1  UNL1        0.3176
     39 O         -12.6853  -16.5185   20.2128 O.2     1  UNL1       -0.2501
@<TRIPOS>BOND
     1    37    38    1
     2    38    39    2
     3    38    36    1
     4    25    36    1
     5    25    26    1
     6    26    27    1
     7    26    28    1
     8    28    29    1
     9    28    30    1
    10    30    31    1
    11    31    24    1
    12    24     1    1
    13     1     2   ar
    14     2    16    1
    15    16    17   ar
    16    17    18   ar
    17    18    19   ar
    18    19    20    1
    19    19    21   ar
    20    21    22   ar
    21     2     3   ar
    22     3     4   ar
    23     4     5   ar
    24     5     6   ar
    25     6     7    1
    26     6     8   ar
    27     8     9   ar
    28     9    10    1
    29     9    11   ar
    30    11    12   ar
    31    12    13    2
    32    31    32    1
    33    32    33    1
    34    32    25    1
    35    12     1   ar
    36    22    16   ar
    37    11     4   ar
    38    27    34    1
    39    20    23    1
    40     7    14    1
    41    10    15    1
    42    33    35    1
@<TRIPOS>MOLECULE
*****
 39 42 0 0 0
SMALL
GASTEIGER

@<TRIPOS>ATOM
      1 C          -5.5223  -18.1522   22.4735 C.ar    1  UNL1        0.2144
      2 C          -4.9335  -16.9868   23.2119 C.ar    1  UNL1        0.1822
      3 O          -3.5915  -16.4475   22.8142 O.2     1  UNL1       -0.4500
      4 C          -2.8383  -17.0735   21.6780 C.ar    1  UNL1        0.1545
      5 C          -1.4963  -16.5342   21.2803 C.ar    1  UNL1        0.0744
      6 C          -0.7432  -17.1602   20.1441 C.ar    1  UNL1        0.1397
      7 O           0.5988  -16.6209   19.7463 O.3     1  UNL1       -0.5053
      8 C          -1.3321  -18.3255   19.4057 C.ar    1  UNL1        0.0735
      9 C          -2.6740  -18.8648   19.8034 C.ar    1  UNL1        0.1428
     10 O          -3.2628  -20.0302   19.0650 O.3     1  UNL1       -0.5052
     11 C          -3.4271  -18.2388   20.9396 C.ar    1  UNL1        0.1104
     12 C          -4.7692  -18.7782   21.3373 C.ar    1  UNL1        0.2382
     13 O          -5.3580  -19.9435   20.5989 O.2     1  UNL1       -0.2830
     14 H           0.9667  -15.8929   20.2076 H       1  UNL1        0.2922
     15 H          -2.7924  -20.4212   18.3553 H       1  UNL1        0.2922
     16 C          -5.6867  -16.3608   24.3481 C.ar    1  UNL1        0.0379
     17 C          -5.1257  -16.4119   25.7383 C.ar    1  UNL1        0.0062
     18 C          -5.8789  -15.7860   26.8744 C.ar    1  UNL1        0.0367
     19 C          -7.1930  -15.1088   26.6203 C.ar    1  UNL1        0.1337
     20 O          -7.9462  -14.4828   27.7565 O.3     1  UNL1       -0.5055
     21 C          -7.7540  -15.0577   25.2301 C.ar    1  UNL1        0.0367
     22 C          -7.0008  -15.6837   24.0940 C.ar    1  UNL1        0.0062
     23 H          -7.5958  -14.5148   28.6249 H       1  UNL1        0.2922
     24 O          -6.8643  -18.6915   22.8713 O.3     1  UNL1       -0.4441
     25 C         -10.7060  -17.9127   22.2506 C.3     1  UNL1        0.2306
     26 C         -10.6167  -16.5967   21.5364 C.3     1  UNL1        0.1804
     27 O         -11.8674  -15.8984   21.0914 O.3     1  UNL1       -0.3785
     28 C          -9.2765  -15.9789   21.2671 C.3     1  UNL1        0.1494
     29 C          -9.1872  -14.6629   20.5529 C.3     1  UNL1        0.0349
     30 O          -8.0257  -16.6771   21.7121 O.3     1  UNL1       -0.3186
     31 C          -8.1151  -17.9932   22.4263 C.3     1  UNL1        0.3194
     32 C          -9.4552  -18.6110   22.6955 C.3     1  UNL1        0.2240
     33 O          -9.5445  -19.9270   23.4097 O.3     1  UNL1       -0.3758
     34 H         -11.6339  -15.0672   20.6493 H       1  UNL1        0.2106
     35 H          -8.6517  -20.2390   23.6255 H       1  UNL1        0.2107
     36 O         -12.0460  -18.5304   22.5198 O.3     1  UNL1       -0.4468
     37 C         -14.0457  -18.0391   24.1042 C.3     1  UNL1        0.1212
     38 C         -12.6283  -18.4864   23.9015 C.2     1  UNL1        0.3176
     39 O         -11.7932  -18.8895   25.0804 O.2     1  UNL1       -0.2501
@<TRIPOS>BOND
     1    37    38    1
     2    38    39    2
     3    38    36    1
     4    25    36    1
     5    25    26    1
     6    26    27    1
     7    26    28    1
     8    28    29    1
     9    28    30    1
    10    30    31    1
    11    31    24    1
    12    24     1    1
    13     1     2   ar
    14     2    16    1
    15    16    17   ar
    16    17    18   ar
    17    18    19   ar
    18    19    20    1
    19    19    21   ar
    20    21    22   ar
    21     2     3   ar
    22     3     4   ar
    23     4     5   ar
    24     5     6   ar
    25     6     7    1
    26     6     8   ar
    27     8     9   ar
    28     9    10    1
    29     9    11   ar
    30    11    12   ar
    31    12    13    2
    32    31    32    1
    33    32    33    1
    34    32    25    1
    35    12     1   ar
    36    22    16   ar
    37    11     4   ar
    38    27    34    1
    39    20    23    1
    40     7    14    1
    41    10    15    1
    42    33    35    1
@<TRIPOS>MOLECULE
*****
 39 42 0 0 0
SMALL
GASTEIGER

@<TRIPOS>ATOM
      1 C           7.9449   -4.0467   22.7408 C.ar    1  UNL1        0.2144
      2 C           7.5516   -2.8053   23.4854 C.ar    1  UNL1        0.1822
      3 O           7.1720   -2.8883   24.9342 O.2     1  UNL1       -0.4500
      4 C           7.1856   -4.2127   25.6385 C.ar    1  UNL1        0.1545
      5 C           6.8060   -4.2957   27.0872 C.ar    1  UNL1        0.0744
      6 C           6.8196   -5.6200   27.7914 C.ar    1  UNL1        0.1397
      7 O           6.4400   -5.7030   29.2402 O.3     1  UNL1       -0.5053
      8 C           7.2129   -6.8614   27.0468 C.ar    1  UNL1        0.0735
      9 C           7.5925   -6.7784   25.5980 C.ar    1  UNL1        0.1428
     10 O           7.9857   -8.0197   24.8535 O.3     1  UNL1       -0.5052
     11 C           7.5789   -5.4541   24.8939 C.ar    1  UNL1        0.1104
     12 C           7.9585   -5.3710   23.4450 C.ar    1  UNL1        0.2382
     13 O           8.3517   -6.6124   22.7004 O.2     1  UNL1       -0.2830
     14 H           6.1944   -4.9276   29.7054 H       1  UNL1        0.2922
     15 H           7.9942   -8.8470   25.2934 H       1  UNL1        0.2922
     16 C           7.5380   -1.4810   22.7812 C.ar    1  UNL1        0.0379
     17 C           6.2438   -0.9100   22.2823 C.ar    1  UNL1        0.0062
     18 C           6.2302    0.4143   21.5781 C.ar    1  UNL1        0.0367
     19 C           7.5109    1.1677   21.3727 C.ar    1  UNL1        0.1337
     20 O           7.4973    2.4921   20.6685 O.3     1  UNL1       -0.5055
     21 C           8.8052    0.5968   21.8716 C.ar    1  UNL1        0.0367
     22 C           8.8187   -0.7275   22.5758 C.ar    1  UNL1        0.0062
     23 H           6.6888    2.8487   20.3569 H       1  UNL1        0.2922
     24 O           8.3245   -3.9637   21.2920 O.3     1  UNL1       -0.4441
     25 C           6.6167   -2.0775   18.2464 C.3     1  UNL1        0.2306
     26 C           5.2653   -2.7282   18.2318 C.3     1  UNL1        0.1804
     27 O           4.2455   -2.3164   17.2117 O.3     1  UNL1       -0.3785
     28 C           4.9336   -3.7908   19.2373 C.3     1  UNL1        0.1494
     29 C           3.5822   -4.4415   19.2227 C.3     1  UNL1        0.0349
     30 O           5.9533   -4.2026   20.2574 O.3     1  UNL1       -0.3186
     31 C           7.3047   -3.5518   20.2719 C.3     1  UNL1        0.3194
     32 C           7.6364   -2.4893   19.2665 C.3     1  UNL1        0.2240
     33 O           8.9878   -1.8386   19.2811 O.3     1  UNL1       -0.3758
     34 H           3.4333   -2.8307   17.3406 H       1  UNL1        0.2106
     35 H           9.5213   -2.2173   19.9972 H       1  UNL1        0.2107
     36 O           6.9483   -1.0150   17.2409 O.3     1  UNL1       -0.4468
     37 C           5.8231    1.2808   17.7028 C.3     1  UNL1        0.1212
     38 C           7.0501    0.4186   17.6705 C.2     1  UNL1        0.3176
     39 O           8.3789    0.9899   18.0678 O.2     1  UNL1       -0.2501
@<TRIPOS>BOND
     1    37    38    1
     2    38    39    2
     3    38    36    1
     4    25    36    1
     5    25    26    1
     6    26    27    1
     7    26    28    1
     8    28    29    1
     9    28    30    1
    10    30    31    1
    11    31    24    1
    12    24     1    1
    13     1     2   ar
    14     2    16    1
    15    16    17   ar
    16    17    18   ar
    17    18    19   ar
    18    19    20    1
    19    19    21   ar
    20    21    22   ar
    21     2     3   ar
    22     3     4   ar
    23     4     5   ar
    24     5     6   ar
    25     6     7    1
    26     6     8   ar
    27     8     9   ar
    28     9    10    1
    29     9    11   ar
    30    11    12   ar
    31    12    13    2
    32    31    32    1
    33    32    33    1
    34    32    25    1
    35    12     1   ar
    36    22    16   ar
    37    11     4   ar
    38    27    34    1
    39    20    23    1
    40     7    14    1
    41    10    15    1
    42    33    35    1
@<TRIPOS>MOLECULE
*****
 39 42 0 0 0
SMALL
GASTEIGER

@<TRIPOS>ATOM
      1 C           4.7261    1.5611   33.5466 C.ar    1  UNL1        0.2144
      2 C           5.0053    0.2993   34.3082 C.ar    1  UNL1        0.1822
      3 O           4.4694    0.1283   35.6986 O.2     1  UNL1       -0.4500
      4 C           3.6542    1.2192   36.3277 C.ar    1  UNL1        0.1545
      5 C           3.1182    1.0482   37.7181 C.ar    1  UNL1        0.0744
      6 C           2.3031    2.1390   38.3471 C.ar    1  UNL1        0.1397
      7 O           1.7671    1.9680   39.7376 O.3     1  UNL1       -0.5053
      8 C           2.0238    3.4008   37.5855 C.ar    1  UNL1        0.0735
      9 C           2.5598    3.5717   36.1950 C.ar    1  UNL1        0.1428
     10 O           2.2806    4.8335   35.4335 O.3     1  UNL1       -0.5052
     11 C           3.3750    2.4809   35.5661 C.ar    1  UNL1        0.1104
     12 C           3.9110    2.6519   34.1756 C.ar    1  UNL1        0.2382
     13 O           3.6317    3.9137   33.4140 O.2     1  UNL1       -0.2830
     14 H           1.9415    1.1798   40.2133 H       1  UNL1        0.2922
     15 H           1.7713    5.5149   35.8264 H       1  UNL1        0.2922
     16 C           5.8206   -0.7915   33.6792 C.ar    1  UNL1        0.0379
     17 C           5.1525   -2.0465   33.2011 C.ar    1  UNL1        0.0062
     18 C           5.9677   -3.1373   32.5721 C.ar    1  UNL1        0.0367
     19 C           7.4510   -2.9730   32.4212 C.ar    1  UNL1        0.1337
     20 O           8.2662   -4.0638   31.7922 O.3     1  UNL1       -0.5055
     21 C           8.1191   -1.7180   32.8993 C.ar    1  UNL1        0.0367
     22 C           7.3039   -0.6273   33.5282 C.ar    1  UNL1        0.0062
     23 H           7.8489   -4.8478   31.4936 H       1  UNL1        0.2922
     24 O           5.2621    1.7320   32.1561 O.3     1  UNL1       -0.4441
     25 C           2.7519    0.5720   29.3095 C.3     1  UNL1        0.2306
     26 C           3.4818   -0.6149   28.7542 C.3     1  UNL1        0.1804
     27 O           2.8884   -1.3972   27.6203 O.3     1  UNL1       -0.3785
     28 C           4.8053   -1.0195   29.3329 C.3     1  UNL1        0.1494
     29 C           5.5353   -2.2064   28.7776 C.3     1  UNL1        0.0349
     30 O           5.3987   -0.2372   30.4668 O.3     1  UNL1       -0.3186
     31 C           4.6687    0.9497   31.0221 C.3     1  UNL1        0.3194
     32 C           3.3453    1.3543   30.4435 C.3     1  UNL1        0.2240
     33 O           2.6153    2.5412   30.9988 O.3     1  UNL1       -0.3758
     34 H           3.4833   -2.1260   27.3841 H       1  UNL1        0.2106
     35 H           3.1327    2.9300   31.7213 H       1  UNL1        0.2107
     36 O           1.4285    0.9766   28.7309 O.3     1  UNL1       -0.4468
     37 C          -0.8041   -0.3483   28.8331 C.3     1  UNL1        0.1212
     38 C           0.1580    0.6254   29.4468 C.2     1  UNL1        0.3176
     39 O          -0.1504    1.2477   30.7763 O.2     1  UNL1       -0.2501
@<TRIPOS>BOND
     1    37    38    1
     2    38    39    2
     3    38    36    1
     4    25    36    1
     5    25    26    1
     6    26    27    1
     7    26    28    1
     8    28    29    1
     9    28    30    1
    10    30    31    1
    11    31    24    1
    12    24     1    1
    13     1     2   ar
    14     2    16    1
    15    16    17   ar
    16    17    18   ar
    17    18    19   ar
    18    19    20    1
    19    19    21   ar
    20    21    22   ar
    21     2     3   ar
    22     3     4   ar
    23     4     5   ar
    24     5     6   ar
    25     6     7    1
    26     6     8   ar
    27     8     9   ar
    28     9    10    1
    29     9    11   ar
    30    11    12   ar
    31    12    13    2
    32    31    32    1
    33    32    33    1
    34    32    25    1
    35    12     1   ar
    36    22    16   ar
    37    11     4   ar
    38    27    34    1
    39    20    23    1
    40     7    14    1
    41    10    15    1
    42    33    35    1
@<TRIPOS>MOLECULE
*****
 39 42 0 0 0
SMALL
GASTEIGER

@<TRIPOS>ATOM
      1 C         -15.4115   -5.8213   16.9956 C.ar    1  UNL1        0.2144
      2 C         -14.1538   -6.5214   17.4176 C.ar    1  UNL1        0.1822
      3 O         -14.2117   -7.9390   17.9043 O.2     1  UNL1       -0.4500
      4 C         -15.5274   -8.6566   17.9691 C.ar    1  UNL1        0.1545
      5 C         -15.5854  -10.0742   18.4559 C.ar    1  UNL1        0.0744
      6 C         -16.9010  -10.7917   18.5207 C.ar    1  UNL1        0.1397
      7 O         -16.9590  -12.2094   19.0075 O.3     1  UNL1       -0.5053
      8 C         -18.1587  -10.0916   18.0988 C.ar    1  UNL1        0.0735
      9 C         -18.1008   -8.6739   17.6121 C.ar    1  UNL1        0.1428
     10 O         -19.3585   -7.9738   17.1901 O.3     1  UNL1       -0.5052
     11 C         -16.7851   -7.9565   17.5472 C.ar    1  UNL1        0.1104
     12 C         -16.7271   -6.5388   17.0605 C.ar    1  UNL1        0.2382
     13 O         -17.9848   -5.8386   16.6386 O.2     1  UNL1       -0.2830
     14 H         -16.1734  -12.6468   19.2710 H       1  UNL1        0.2922
     15 H         -20.1803   -8.4220   17.2306 H       1  UNL1        0.2922
     16 C         -12.8381   -5.8039   17.3527 C.ar    1  UNL1        0.0379
     17 C         -12.1073   -5.6939   16.0474 C.ar    1  UNL1        0.0062
     18 C         -10.7917   -4.9764   15.9826 C.ar    1  UNL1        0.0367
     19 C         -10.2068   -4.3688   17.2231 C.ar    1  UNL1        0.1337
     20 O          -8.8911   -3.6513   17.1583 O.3     1  UNL1       -0.5055
     21 C         -10.9376   -4.4788   18.5284 C.ar    1  UNL1        0.0367
     22 C         -12.2532   -5.1963   18.5932 C.ar    1  UNL1        0.0062
     23 H          -8.4347   -3.5826   16.3429 H       1  UNL1        0.2922
     24 O         -15.3535   -4.4036   16.5089 O.3     1  UNL1       -0.4441
     25 C         -14.7118   -1.0766   18.5751 C.3     1  UNL1        0.2306
     26 C         -15.9652   -1.0066   19.3961 C.3     1  UNL1        0.1804
     27 O         -16.1691    0.1257   20.3586 O.3     1  UNL1       -0.3785
     28 C         -17.0147   -2.0690   19.2548 C.3     1  UNL1        0.1494
     29 C         -18.2681   -1.9990   20.0758 C.3     1  UNL1        0.0349
     30 O         -16.8108   -3.2013   18.2923 O.3     1  UNL1       -0.3186
     31 C         -15.5574   -3.2713   17.4713 C.3     1  UNL1        0.3194
     32 C         -14.5079   -2.2089   17.6127 C.3     1  UNL1        0.2240
     33 O         -13.2545   -2.2790   16.7917 O.3     1  UNL1       -0.3758
     34 H         -17.0237    0.0205   20.8053 H       1  UNL1        0.2106
     35 H         -13.2820   -3.0666   16.2262 H       1  UNL1        0.2107
     36 O         -13.6623   -0.0143   18.7165 O.3     1  UNL1       -0.4468
     37 C         -13.3590    1.6403   16.7366 C.3     1  UNL1        0.1212
     38 C         -13.8802    1.3406   18.1108 C.2     1  UNL1        0.3176
     39 O         -14.6193    2.3956   18.8793 O.2     1  UNL1       -0.2501
@<TRIPOS>BOND
     1    37    38    1
     2    38    39    2
     3    38    36    1
     4    25    36    1
     5    25    26    1
     6    26    27    1
     7    26    28    1
     8    28    29    1
     9    28    30    1
    10    30    31    1
    11    31    24    1
    12    24     1    1
    13     1     2   ar
    14     2    16    1
    15    16    17   ar
    16    17    18   ar
    17    18    19   ar
    18    19    20    1
    19    19    21   ar
    20    21    22   ar
    21     2     3   ar
    22     3     4   ar
    23     4     5   ar
    24     5     6   ar
    25     6     7    1
    26     6     8   ar
    27     8     9   ar
    28     9    10    1
    29     9    11   ar
    30    11    12   ar
    31    12    13    2
    32    31    32    1
    33    32    33    1
    34    32    25    1
    35    12     1   ar
    36    22    16   ar
    37    11     4   ar
    38    27    34    1
    39    20    23    1
    40     7    14    1
    41    10    15    1
    42    33    35    1
@<TRIPOS>MOLECULE
*****
 39 42 0 0 0
SMALL
GASTEIGER

@<TRIPOS>ATOM
      1 C         -15.9141   -5.6252   17.1725 C.ar    1  UNL1        0.2144
      2 C         -17.0195   -4.8020   17.7644 C.ar    1  UNL1        0.1822
      3 O         -18.0901   -5.4611   18.5825 O.2     1  UNL1       -0.4500
      4 C         -18.0554   -6.9436   18.8086 C.ar    1  UNL1        0.1545
      5 C         -19.1259   -7.6028   19.6267 C.ar    1  UNL1        0.0744
      6 C         -19.0911   -9.0852   19.8529 C.ar    1  UNL1        0.1397
      7 O         -20.1618   -9.7445   20.6710 O.3     1  UNL1       -0.5053
      8 C         -17.9858   -9.9085   19.2609 C.ar    1  UNL1        0.0735
      9 C         -16.9152   -9.2493   18.4429 C.ar    1  UNL1        0.1428
     10 O         -15.8098  -10.0725   17.8510 O.3     1  UNL1       -0.5052
     11 C         -16.9500   -7.7669   18.2167 C.ar    1  UNL1        0.1104
     12 C         -15.8793   -7.1076   17.3986 C.ar    1  UNL1        0.2382
     13 O         -14.7739   -7.9309   16.8067 O.2     1  UNL1       -0.2830
     14 H         -20.8523   -9.2302   21.0407 H       1  UNL1        0.2922
     15 H         -15.7880  -10.9986   17.9922 H       1  UNL1        0.2922
     16 C         -17.0543   -3.3195   17.5382 C.ar    1  UNL1        0.0379
     17 C         -17.4849   -2.7735   16.2092 C.ar    1  UNL1        0.0062
     18 C         -17.5197   -1.2910   15.9831 C.ar    1  UNL1        0.0367
     19 C         -17.1238   -0.3546   17.0860 C.ar    1  UNL1        0.1337
     20 O         -17.1585    1.1279   16.8598 O.3     1  UNL1       -0.5055
     21 C         -16.6931   -0.9006   18.4150 C.ar    1  UNL1        0.0367
     22 C         -16.6584   -2.3831   18.6411 C.ar    1  UNL1        0.0062
     23 H         -17.4276    1.4689   16.0296 H       1  UNL1        0.2922
     24 O         -14.8435   -4.9660   16.3544 O.3     1  UNL1       -0.4441
     25 C         -11.0829   -4.8567   17.6177 C.3     1  UNL1        0.2306
     26 C         -11.0614   -3.5369   18.3301 C.3     1  UNL1        0.1804
     27 O          -9.8007   -3.0606   18.9887 O.3     1  UNL1       -0.3785
     28 C         -12.3006   -2.6934   18.3840 C.3     1  UNL1        0.1494
     29 C         -12.2791   -1.3735   19.0964 C.3     1  UNL1        0.0349
     30 O         -13.5613   -3.1697   17.7254 O.3     1  UNL1       -0.3186
     31 C         -13.5828   -4.4896   17.0130 C.3     1  UNL1        0.3194
     32 C         -12.3436   -5.3331   16.9591 C.3     1  UNL1        0.2240
     33 O         -12.3651   -6.6529   16.2467 O.3     1  UNL1       -0.3758
     34 H          -9.9576   -2.1964   19.4004 H       1  UNL1        0.2106
     35 H         -13.2497   -6.8082   15.8803 H       1  UNL1        0.2107
     36 O          -9.8437   -5.7002   17.5639 O.3     1  UNL1       -0.4468
     37 C          -9.5434   -7.9922   18.7499 C.3     1  UNL1        0.1212
     38 C          -9.4260   -6.4969   18.7642 C.2     1  UNL1        0.3176
     39 O          -8.8908   -5.7982   19.9789 O.2     1  UNL1       -0.2501
@<TRIPOS>BOND
     1    37    38    1
     2    38    39    2
     3    38    36    1
     4    25    36    1
     5    25    26    1
     6    26    27    1
     7    26    28    1
     8    28    29    1
     9    28    30    1
    10    30    31    1
    11    31    24    1
    12    24     1    1
    13     1     2   ar
    14     2    16    1
    15    16    17   ar
    16    17    18   ar
    17    18    19   ar
    18    19    20    1
    19    19    21   ar
    20    21    22   ar
    21     2     3   ar
    22     3     4   ar
    23     4     5   ar
    24     5     6   ar
    25     6     7    1
    26     6     8   ar
    27     8     9   ar
    28     9    10    1
    29     9    11   ar
    30    11    12   ar
    31    12    13    2
    32    31    32    1
    33    32    33    1
    34    32    25    1
    35    12     1   ar
    36    22    16   ar
    37    11     4   ar
    38    27    34    1
    39    20    23    1
    40     7    14    1
    41    10    15    1
    42    33    35    1
@<TRIPOS>MOLECULE
*****
 39 42 0 0 0
SMALL
GASTEIGER

@<TRIPOS>ATOM
      1 C           0.2081    2.6819   22.6838 C.ar    1  UNL1        0.2144
      2 C           0.8707    1.7221   23.6271 C.ar    1  UNL1        0.1822
      3 O           1.6699    0.5726   23.0887 O.2     1  UNL1       -0.4500
      4 C           1.8066    0.3829   21.6070 C.ar    1  UNL1        0.1545
      5 C           2.6059   -0.7666   21.0686 C.ar    1  UNL1        0.0744
      6 C           2.7425   -0.9563   19.5870 C.ar    1  UNL1        0.1397
      7 O           3.5418   -2.1058   19.0486 O.3     1  UNL1       -0.5053
      8 C           2.0799    0.0035   18.6437 C.ar    1  UNL1        0.0735
      9 C           1.2807    1.1530   19.1821 C.ar    1  UNL1        0.1428
     10 O           0.6181    2.1127   18.2388 O.3     1  UNL1       -0.5052
     11 C           1.1440    1.3427   20.6637 C.ar    1  UNL1        0.1104
     12 C           0.3447    2.4922   21.2021 C.ar    1  UNL1        0.2382
     13 O          -0.3179    3.4519   20.2589 O.2     1  UNL1       -0.2830
     14 H           3.9557   -2.7053   19.6378 H       1  UNL1        0.2922
     15 H           0.7034    1.9942   17.3132 H       1  UNL1        0.2922
     16 C           0.7340    1.9118   25.1088 C.ar    1  UNL1        0.0379
     17 C           1.5576    2.9503   25.8110 C.ar    1  UNL1        0.0062
     18 C           1.4209    3.1400   27.2927 C.ar    1  UNL1        0.0367
     19 C           0.4606    2.2912   28.0720 C.ar    1  UNL1        0.1337
     20 O           0.3239    2.4809   29.5538 O.3     1  UNL1       -0.5055
     21 C          -0.3630    1.2527   27.3698 C.ar    1  UNL1        0.0367
     22 C          -0.2263    1.0630   25.8881 C.ar    1  UNL1        0.0062
     23 H           0.8384    3.1297   29.9924 H       1  UNL1        0.2922
     24 O          -0.5912    3.8314   23.2222 O.3     1  UNL1       -0.4441
     25 C          -4.2966    3.7123   24.6385 C.3     1  UNL1        0.2306
     26 C          -5.0817    3.5769   23.3676 C.3     1  UNL1        0.1804
     27 O          -6.5785    3.4921   23.4161 O.3     1  UNL1       -0.3785
     28 C          -4.3699    3.5264   22.0481 C.3     1  UNL1        0.1494
     29 C          -5.1550    3.3910   20.7772 C.3     1  UNL1        0.0349
     30 O          -2.8731    3.6112   21.9997 O.3     1  UNL1       -0.3186
     31 C          -2.0880    3.7466   23.2707 C.3     1  UNL1        0.3194
     32 C          -2.7998    3.7971   24.5901 C.3     1  UNL1        0.2240
     33 O          -2.0147    3.9325   25.8610 O.3     1  UNL1       -0.3758
     34 H          -6.9269    3.4084   22.5147 H       1  UNL1        0.2106
     35 H          -1.0680    3.9737   25.6534 H       1  UNL1        0.2107
     36 O          -5.0083    3.7629   25.9579 O.3     1  UNL1       -0.4468
     37 C          -6.3453    5.9356   26.4498 C.3     1  UNL1        0.1212
     38 C          -5.1456    5.0668   26.6865 C.2     1  UNL1        0.3176
     39 O          -4.0833    5.5020   27.6519 O.2     1  UNL1       -0.2501
@<TRIPOS>BOND
     1    37    38    1
     2    38    39    2
     3    38    36    1
     4    25    36    1
     5    25    26    1
     6    26    27    1
     7    26    28    1
     8    28    29    1
     9    28    30    1
    10    30    31    1
    11    31    24    1
    12    24     1    1
    13     1     2   ar
    14     2    16    1
    15    16    17   ar
    16    17    18   ar
    17    18    19   ar
    18    19    20    1
    19    19    21   ar
    20    21    22   ar
    21     2     3   ar
    22     3     4   ar
    23     4     5   ar
    24     5     6   ar
    25     6     7    1
    26     6     8   ar
    27     8     9   ar
    28     9    10    1
    29     9    11   ar
    30    11    12   ar
    31    12    13    2
    32    31    32    1
    33    32    33    1
    34    32    25    1
    35    12     1   ar
    36    22    16   ar
    37    11     4   ar
    38    27    34    1
    39    20    23    1
    40     7    14    1
    41    10    15    1
    42    33    35    1
@<TRIPOS>MOLECULE
*****
 39 42 0 0 0
SMALL
GASTEIGER

@<TRIPOS>ATOM
      1 C           6.6671   -2.8071   24.1700 C.ar    1  UNL1        0.2144
      2 C           6.1759   -2.6784   25.5814 C.ar    1  UNL1        0.1822
      3 O           6.2840   -3.8416   26.5222 O.2     1  UNL1       -0.4500
      4 C           6.8833   -5.1337   26.0515 C.ar    1  UNL1        0.1545
      5 C           6.9914   -6.2970   26.9923 C.ar    1  UNL1        0.0744
      6 C           7.5907   -7.5890   26.5217 C.ar    1  UNL1        0.1397
      7 O           7.6988   -8.7523   27.4625 O.3     1  UNL1       -0.5053
      8 C           8.0819   -7.7177   25.1102 C.ar    1  UNL1        0.0735
      9 C           7.9738   -6.5544   24.1695 C.ar    1  UNL1        0.1428
     10 O           8.4650   -6.6832   22.7580 O.3     1  UNL1       -0.5052
     11 C           7.3745   -5.2625   24.6401 C.ar    1  UNL1        0.1104
     12 C           7.2664   -4.0991   23.6993 C.ar    1  UNL1        0.2382
     13 O           7.7576   -4.2278   22.2879 O.2     1  UNL1       -0.2830
     14 H           7.3920   -8.6719   28.3441 H       1  UNL1        0.2922
     15 H           8.8394   -7.4903   22.4640 H       1  UNL1        0.2922
     16 C           5.5766   -1.3863   26.0520 C.ar    1  UNL1        0.0379
     17 C           6.4574   -0.1984   26.3028 C.ar    1  UNL1        0.0062
     18 C           5.8580    1.0936   26.7734 C.ar    1  UNL1        0.0367
     19 C           4.3779    1.1977   26.9932 C.ar    1  UNL1        0.1337
     20 O           3.7786    2.4897   27.4639 O.3     1  UNL1       -0.5055
     21 C           3.4971    0.0097   26.7425 C.ar    1  UNL1        0.0367
     22 C           4.0964   -1.2823   26.2719 C.ar    1  UNL1        0.0062
     23 H           4.3288    3.2318   27.6205 H       1  UNL1        0.2922
     24 O           6.5590   -1.6438   23.2292 O.3     1  UNL1       -0.4441
     25 C           3.8425   -1.8004   20.3403 C.3     1  UNL1        0.2306
     26 C           2.7523   -0.9557   20.9301 C.3     1  UNL1        0.1804
     27 O           1.4834   -0.7263   20.1638 O.3     1  UNL1       -0.3785
     28 C           2.9310   -0.3403   22.2864 C.3     1  UNL1        0.1494
     29 C           1.8409    0.5044   22.8763 C.3     1  UNL1        0.0349
     30 O           4.1999   -0.5697   23.0528 O.3     1  UNL1       -0.3186
     31 C           5.2901   -1.4144   22.4628 C.3     1  UNL1        0.3194
     32 C           5.1114   -2.0297   21.1066 C.3     1  UNL1        0.2240
     33 O           6.2015   -2.8744   20.5167 O.3     1  UNL1       -0.3758
     34 H           0.8891   -0.1629   20.6836 H       1  UNL1        0.2106
     35 H           6.9461   -2.9207   21.1367 H       1  UNL1        0.2107
     36 O           3.6637   -2.4157   18.9840 O.3     1  UNL1       -0.4468
     37 C           3.7898   -0.8451   16.9182 C.3     1  UNL1        0.1212
     38 C           4.4218   -1.8736   17.8087 C.2     1  UNL1        0.3176
     39 O           5.8118   -2.3600   17.5237 O.2     1  UNL1       -0.2501
@<TRIPOS>BOND
     1    37    38    1
     2    38    39    2
     3    38    36    1
     4    25    36    1
     5    25    26    1
     6    26    27    1
     7    26    28    1
     8    28    29    1
     9    28    30    1
    10    30    31    1
    11    31    24    1
    12    24     1    1
    13     1     2   ar
    14     2    16    1
    15    16    17   ar
    16    17    18   ar
    17    18    19   ar
    18    19    20    1
    19    19    21   ar
    20    21    22   ar
    21     2     3   ar
    22     3     4   ar
    23     4     5   ar
    24     5     6   ar
    25     6     7    1
    26     6     8   ar
    27     8     9   ar
    28     9    10    1
    29     9    11   ar
    30    11    12   ar
    31    12    13    2
    32    31    32    1
    33    32    33    1
    34    32    25    1
    35    12     1   ar
    36    22    16   ar
    37    11     4   ar
    38    27    34    1
    39    20    23    1
    40     7    14    1
    41    10    15    1
    42    33    35    1
@<TRIPOS>MOLECULE
*****
 39 42 0 0 0
SMALL
GASTEIGER

@<TRIPOS>ATOM
      1 C           7.2081   -3.1189   23.4249 C.ar    1  UNL1        0.2144
      2 C           6.3353   -2.9844   24.6374 C.ar    1  UNL1        0.1822
      3 O           6.2385   -4.1130   25.6207 O.2     1  UNL1       -0.4500
      4 C           7.0143   -5.3761   25.3915 C.ar    1  UNL1        0.1545
      5 C           6.9175   -6.5047   26.3748 C.ar    1  UNL1        0.0744
      6 C           7.6933   -7.7678   26.1455 C.ar    1  UNL1        0.1397
      7 O           7.5965   -8.8965   27.1289 O.3     1  UNL1       -0.5053
      8 C           8.5660   -7.9023   24.9330 C.ar    1  UNL1        0.0735
      9 C           8.6629   -6.7738   23.9497 C.ar    1  UNL1        0.1428
     10 O           9.5356   -6.9083   22.7372 O.3     1  UNL1       -0.5052
     11 C           7.8871   -5.5107   24.1790 C.ar    1  UNL1        0.1104
     12 C           7.9839   -4.3820   23.1956 C.ar    1  UNL1        0.2382
     13 O           8.8566   -4.5165   21.9831 O.2     1  UNL1       -0.2830
     14 H           7.0513   -8.8124   27.8863 H       1  UNL1        0.2922
     15 H          10.0203   -7.6973   22.5940 H       1  UNL1        0.2922
     16 C           5.5595   -1.7212   24.8667 C.ar    1  UNL1        0.0379
     17 C           4.1949   -1.5596   24.2653 C.ar    1  UNL1        0.0062
     18 C           3.4191   -0.2965   24.4946 C.ar    1  UNL1        0.0367
     19 C           4.0079    0.8051   25.3251 C.ar    1  UNL1        0.1337
     20 O           3.2320    2.0683   25.5544 O.3     1  UNL1       -0.5055
     21 C           5.3725    0.6435   25.9265 C.ar    1  UNL1        0.0367
     22 C           6.1483   -0.6196   25.6972 C.ar    1  UNL1        0.0062
     23 H           2.3796    2.1692   25.1787 H       1  UNL1        0.2922
     24 O           7.3049   -1.9903   22.4416 O.3     1  UNL1       -0.4441
     25 C           5.6321   -0.8946   19.0136 C.3     1  UNL1        0.2306
     26 C           5.0604   -2.2005   18.5469 C.3     1  UNL1        0.1804
     27 O           4.3123   -2.2706   17.2487 O.3     1  UNL1       -0.3785
     28 C           5.2369   -3.4364   19.3786 C.3     1  UNL1        0.1494
     29 C           4.6652   -4.7423   18.9119 C.3     1  UNL1        0.0349
     30 O           5.9850   -3.3663   20.6768 O.3     1  UNL1       -0.3186
     31 C           6.5568   -2.0603   21.1434 C.3     1  UNL1        0.3194
     32 C           6.3803   -0.8245   20.3118 C.3     1  UNL1        0.2240
     33 O           6.9520    0.4813   20.7784 O.3     1  UNL1       -0.3758
     34 H           4.0119   -3.1804   17.0974 H       1  UNL1        0.2106
     35 H           7.4007    0.3525   21.6287 H       1  UNL1        0.2107
     36 O           5.4557    0.3412   18.1820 O.3     1  UNL1       -0.4468
     37 C           4.0836    2.5039   18.6180 C.3     1  UNL1        0.1212
     38 C           4.1436    1.0681   18.1878 C.2     1  UNL1        0.3176
     39 O           2.8916    0.3593   17.7635 O.2     1  UNL1       -0.2501
@<TRIPOS>BOND
     1    37    38    1
     2    38    39    2
     3    38    36    1
     4    25    36    1
     5    25    26    1
     6    26    27    1
     7    26    28    1
     8    28    29    1
     9    28    30    1
    10    30    31    1
    11    31    24    1
    12    24     1    1
    13     1     2   ar
    14     2    16    1
    15    16    17   ar
    16    17    18   ar
    17    18    19   ar
    18    19    20    1
    19    19    21   ar
    20    21    22   ar
    21     2     3   ar
    22     3     4   ar
    23     4     5   ar
    24     5     6   ar
    25     6     7    1
    26     6     8   ar
    27     8     9   ar
    28     9    10    1
    29     9    11   ar
    30    11    12   ar
    31    12    13    2
    32    31    32    1
    33    32    33    1
    34    32    25    1
    35    12     1   ar
    36    22    16   ar
    37    11     4   ar
    38    27    34    1
    39    20    23    1
    40     7    14    1
    41    10    15    1
    42    33    35    1
