@<TRIPOS>MOLECULE
*****
 33 36 0 0 0
SMALL
GASTEIGER

@<TRIPOS>ATOM
      1 C         -11.5022  -19.6665   20.4444 C.3     1  UNL1        0.2150
      2 C         -10.4113  -19.0339   19.6320 C.3     1  UNL1        0.1325
      3 O          -9.2203  -20.7835   18.1253 O.2     1  UNL1       -0.2747
      4 C          -9.1863  -19.8235   19.2773 C.2     1  UNL1        0.2294
      5 N          -7.9273  -19.6530   20.0746 N.am    1  UNL1       -0.2794
      6 C          -6.7022  -20.4426   19.7199 C.3     1  UNL1        0.0934
      7 C          -5.4431  -20.2721   20.5172 C.3     1  UNL1        0.0219
      8 C          -5.4091  -19.3121   21.6693 C.3     1  UNL1        0.0093
      9 C          -6.6341  -18.5225   22.0240 C.3     1  UNL1        0.0219
     10 C          -7.8933  -18.6929   21.2266 C.3     1  UNL1        0.0934
     11 C          -4.1501  -19.1416   22.4666 C.3     1  UNL1        0.0453
     12 C          -3.0765  -18.2121   21.9835 C.ar    1  UNL1        0.0541
     13 C          -1.8873  -18.5944   21.1529 C.ar    1  UNL1        0.1131
     14 N          -1.0794  -17.3556   20.9023 N.ar    1  UNL1       -0.2229
     15 C          -1.7693  -16.2077   21.5779 C.ar    1  UNL1        0.1748
     16 N          -3.0035  -16.7370   22.2461 N.ar    1  UNL1       -0.3382
     17 H          -3.6518  -16.2090   22.7658 H       1  UNL1        0.1672
     18 O         -12.1159  -18.9163   21.5892 O.3     1  UNL1       -0.4749
     19 C         -11.2470  -18.3899   22.6929 C.ar    1  UNL1        0.1386
     20 C         -10.8942  -16.9328   22.7396 C.ar    1  UNL1        0.0370
     21 C         -10.0254  -16.4065   23.8432 C.ar    1  UNL1        0.0076
     22 C          -9.5093  -17.3374   24.9001 C.ar    1  UNL1        0.0538
     23 C          -9.8620  -18.7945   24.8534 C.ar    1  UNL1        0.0076
     24 C         -10.7309  -19.3208   23.7498 C.ar    1  UNL1        0.0370
     25 C          -8.6404  -16.8110   26.0038 C.2     1  UNL1        0.2491
     26 O          -9.0485  -17.0003   27.4348 O.2     1  UNL1       -0.2699
     27 N          -7.3634  -16.0953   25.6765 N.am    1  UNL1       -0.2732
     28 C          -6.9553  -15.9060   24.2456 C.3     1  UNL1        0.1108
     29 C          -5.6783  -15.1902   23.9183 C.3     1  UNL1        0.0904
     30 N          -4.8094  -14.6639   25.0220 N.3     1  UNL1       -0.2946
     31 C          -5.2176  -14.8533   26.4529 C.3     1  UNL1        0.0904
     32 C          -6.4945  -15.5689   26.7802 C.3     1  UNL1        0.1108
     33 H          -4.7193  -13.6590   24.8720 H       1  UNL1        0.1233
@<TRIPOS>BOND
     1     3     4    2
     2     4     2    1
     3     2     1    1
     4     1    18    1
     5    18    19    1
     6    19    20   ar
     7    20    21   ar
     8    21    22   ar
     9    22    25    1
    10    25    26    2
    11    25    27   am
    12    27    28    1
    13    28    29    1
    14    29    30    1
    15    30    31    1
    16    31    32    1
    17    22    23   ar
    18    23    24   ar
    19     4     5   am
    20     5     6    1
    21     6     7    1
    22     7     8    1
    23     8    11    1
    24    11    12    1
    25    12    13   ar
    26    13    14   ar
    27    14    15   ar
    28    15    16   ar
    29     8     9    1
    30     9    10    1
    31    24    19   ar
    32    10     5    1
    33    32    27    1
    34    16    12   ar
    35    30    33    1
    36    16    17    1
@<TRIPOS>MOLECULE
*****
 33 36 0 0 0
SMALL
GASTEIGER

@<TRIPOS>ATOM
      1 C         -10.2554  -19.2946   19.0174 C.3     1  UNL1        0.2150
      2 C         -11.3363  -19.1026   20.0396 C.3     1  UNL1        0.1325
      3 O         -11.4497  -20.9320   21.8809 O.2     1  UNL1       -0.2747
      4 C         -11.1115  -19.5329   21.4588 C.2     1  UNL1        0.2294
      5 N         -10.5485  -18.5641   22.4560 N.am    1  UNL1       -0.2794
      6 C         -10.3236  -18.9944   23.8753 C.3     1  UNL1        0.0934
      7 C          -9.7606  -18.0256   24.8725 C.3     1  UNL1        0.0219
      8 C          -9.4224  -16.6265   24.4504 C.3     1  UNL1        0.0093
      9 C          -9.6472  -16.1962   23.0312 C.3     1  UNL1        0.0219
     10 C         -10.2103  -17.1650   22.0340 C.3     1  UNL1        0.0934
     11 C          -8.8594  -15.6577   25.4476 C.3     1  UNL1        0.0453
     12 C          -7.3906  -15.3532   25.4506 C.ar    1  UNL1        0.0541
     13 C          -6.5165  -15.2143   24.2396 C.ar    1  UNL1        0.1131
     14 N          -5.1237  -14.9093   24.7057 N.ar    1  UNL1       -0.2229
     15 C          -5.1371  -14.8597   26.2049 C.ar    1  UNL1        0.1748
     16 N          -6.5381  -15.1340   26.6652 N.ar    1  UNL1       -0.3382
     17 H          -6.8443  -15.1648   27.6004 H       1  UNL1        0.1672
     18 O          -9.2578  -20.4029   19.1799 O.3     1  UNL1       -0.4749
     19 C          -7.9052  -20.1152   19.7612 C.ar    1  UNL1        0.1386
     20 C          -6.7961  -21.1137   19.6099 C.ar    1  UNL1        0.0370
     21 C          -5.4436  -20.8261   20.1911 C.ar    1  UNL1        0.0076
     22 C          -5.2001  -19.5399   20.9236 C.ar    1  UNL1        0.0538
     23 C          -6.3092  -18.5414   21.0748 C.ar    1  UNL1        0.0076
     24 C          -7.6617  -18.8291   20.4936 C.ar    1  UNL1        0.0370
     25 C          -3.8475  -19.2522   21.5048 C.2     1  UNL1        0.2491
     26 O          -3.5815  -19.5240   22.9558 O.2     1  UNL1       -0.2699
     27 N          -2.7610  -18.6929   20.6351 N.am    1  UNL1       -0.2732
     28 C          -3.0270  -18.4211   19.1841 C.3     1  UNL1        0.1108
     29 C          -1.9404  -17.8617   18.3143 C.3     1  UNL1        0.0904
     30 N          -0.5878  -17.5741   18.8955 N.3     1  UNL1       -0.2946
     31 C          -0.3218  -17.8458   20.3465 C.3     1  UNL1        0.0904
     32 C          -1.4083  -18.4052   21.2163 C.3     1  UNL1        0.1108
     33 H          -0.4071  -16.5817   18.7439 H       1  UNL1        0.1233
@<TRIPOS>BOND
     1     3     4    2
     2     4     2    1
     3     2     1    1
     4     1    18    1
     5    18    19    1
     6    19    20   ar
     7    20    21   ar
     8    21    22   ar
     9    22    25    1
    10    25    26    2
    11    25    27   am
    12    27    28    1
    13    28    29    1
    14    29    30    1
    15    30    31    1
    16    31    32    1
    17    22    23   ar
    18    23    24   ar
    19     4     5   am
    20     5     6    1
    21     6     7    1
    22     7     8    1
    23     8    11    1
    24    11    12    1
    25    12    13   ar
    26    13    14   ar
    27    14    15   ar
    28    15    16   ar
    29     8     9    1
    30     9    10    1
    31    24    19   ar
    32    10     5    1
    33    32    27    1
    34    16    12   ar
    35    30    33    1
    36    16    17    1
@<TRIPOS>MOLECULE
*****
 33 36 0 0 0
SMALL
GASTEIGER

@<TRIPOS>ATOM
      1 C          -3.9981  -20.5959   19.7221 C.3     1  UNL1        0.2150
      2 C          -2.7779  -20.2493   20.5227 C.3     1  UNL1        0.1325
      3 O          -1.2339  -18.2896   19.7977 O.2     1  UNL1       -0.2747
      4 C          -2.3474  -18.8182   20.6524 C.2     1  UNL1        0.2294
      5 N          -3.0306  -17.9159   21.6367 N.am    1  UNL1       -0.2794
      6 C          -2.6002  -16.4848   21.7665 C.3     1  UNL1        0.0934
      7 C          -3.2833  -15.5824   22.7508 C.3     1  UNL1        0.0219
      8 C          -4.3969  -16.1111   23.6055 C.3     1  UNL1        0.0093
      9 C          -4.8273  -17.5421   23.4758 C.3     1  UNL1        0.0219
     10 C          -4.1441  -18.4445   22.4914 C.3     1  UNL1        0.0934
     11 C          -5.0800  -15.2087   24.5899 C.3     1  UNL1        0.0453
     12 C          -6.5250  -15.4258   24.9290 C.ar    1  UNL1        0.0541
     13 C          -7.0908  -15.5988   26.3074 C.ar    1  UNL1        0.1131
     14 N          -8.5733  -15.7880   26.1796 N.ar    1  UNL1       -0.2229
     15 C          -8.9238  -15.7320   24.7221 C.ar    1  UNL1        0.1748
     16 N          -7.6579  -15.5082   23.9493 N.ar    1  UNL1       -0.3382
     17 H          -7.5835  -15.4292   22.9708 H       1  UNL1        0.1672
     18 O          -5.1766  -21.2386   20.3914 O.3     1  UNL1       -0.4749
     19 C          -6.4660  -20.4841   20.5267 C.ar    1  UNL1        0.1386
     20 C          -7.3508  -20.2907   19.3310 C.ar    1  UNL1        0.0370
     21 C          -8.6401  -19.5362   19.4663 C.ar    1  UNL1        0.0076
     22 C          -9.0446  -18.9751   20.7972 C.ar    1  UNL1        0.0538
     23 C          -8.1598  -19.1685   21.9929 C.ar    1  UNL1        0.0076
     24 C          -6.8705  -19.9230   21.8576 C.ar    1  UNL1        0.0370
     25 C         -10.3340  -18.2205   20.9325 C.2     1  UNL1        0.2491
     26 O         -10.8080  -17.3393   19.8150 O.2     1  UNL1       -0.2699
     27 N         -11.1492  -18.3472   22.1852 N.am    1  UNL1       -0.2732
     28 C         -10.6752  -19.2284   23.3027 C.3     1  UNL1        0.1108
     29 C         -11.4905  -19.3550   24.5554 C.3     1  UNL1        0.0904
     30 N         -12.7798  -18.6005   24.6906 N.3     1  UNL1       -0.2946
     31 C         -13.2539  -17.7193   23.5731 C.3     1  UNL1        0.0904
     32 C         -12.4386  -17.5926   22.3205 C.3     1  UNL1        0.1108
     33 H         -12.6886  -18.0070   25.5152 H       1  UNL1        0.1233
@<TRIPOS>BOND
     1     3     4    2
     2     4     2    1
     3     2     1    1
     4     1    18    1
     5    18    19    1
     6    19    20   ar
     7    20    21   ar
     8    21    22   ar
     9    22    25    1
    10    25    26    2
    11    25    27   am
    12    27    28    1
    13    28    29    1
    14    29    30    1
    15    30    31    1
    16    31    32    1
    17    22    23   ar
    18    23    24   ar
    19     4     5   am
    20     5     6    1
    21     6     7    1
    22     7     8    1
    23     8    11    1
    24    11    12    1
    25    12    13   ar
    26    13    14   ar
    27    14    15   ar
    28    15    16   ar
    29     8     9    1
    30     9    10    1
    31    24    19   ar
    32    10     5    1
    33    32    27    1
    34    16    12   ar
    35    30    33    1
    36    16    17    1
@<TRIPOS>MOLECULE
*****
 33 36 0 0 0
SMALL
GASTEIGER

@<TRIPOS>ATOM
      1 C         -11.0152  -19.4516   19.5878 C.3     1  UNL1        0.2150
      2 C          -9.6896  -19.2786   18.9074 C.3     1  UNL1        0.1325
      3 O          -9.0582  -21.7101   18.2449 O.2     1  UNL1       -0.2747
      4 C          -8.7005  -20.4061   18.8943 C.2     1  UNL1        0.2294
      5 N          -7.3537  -20.2297   19.5306 N.am    1  UNL1       -0.2794
      6 C          -6.3645  -21.3573   19.5176 C.3     1  UNL1        0.0934
      7 C          -5.0177  -21.1809   20.1539 C.3     1  UNL1        0.0219
      8 C          -4.6600  -19.8769   20.8033 C.3     1  UNL1        0.0093
      9 C          -5.6491  -18.7494   20.8163 C.3     1  UNL1        0.0219
     10 C          -6.9960  -18.9257   20.1800 C.3     1  UNL1        0.0934
     11 C          -3.3132  -19.7005   21.4396 C.3     1  UNL1        0.0453
     12 C          -2.5841  -18.3967   21.3030 C.ar    1  UNL1        0.0541
     13 C          -1.4856  -18.0989   20.3260 C.ar    1  UNL1        0.1131
     14 N          -1.0482  -16.6800   20.5386 N.ar    1  UNL1       -0.2229
     15 C          -1.8764  -16.1007   21.6471 C.ar    1  UNL1        0.1748
     16 N          -2.8256  -17.1617   22.1194 N.ar    1  UNL1       -0.3382
     17 H          -3.4905  -17.0646   22.8390 H       1  UNL1        0.1672
     18 O         -11.2680  -18.7992   20.9147 O.3     1  UNL1       -0.4749
     19 C         -10.1372  -18.1564   21.6619 C.ar    1  UNL1        0.1386
     20 C          -9.3571  -18.9488   22.6686 C.ar    1  UNL1        0.0370
     21 C          -8.2264  -18.3060   23.4158 C.ar    1  UNL1        0.0076
     22 C          -7.8759  -16.8708   23.1563 C.ar    1  UNL1        0.0538
     23 C          -8.6560  -16.0784   22.1496 C.ar    1  UNL1        0.0076
     24 C          -9.7867  -16.7212   21.4024 C.ar    1  UNL1        0.0370
     25 C          -6.7451  -16.2280   23.9035 C.2     1  UNL1        0.2491
     26 O          -5.3844  -16.1441   23.2778 O.2     1  UNL1       -0.2699
     27 N          -6.9751  -15.6691   25.2764 N.am    1  UNL1       -0.2732
     28 C          -8.3358  -15.7531   25.9020 C.3     1  UNL1        0.1108
     29 C          -8.5658  -15.1942   27.2750 C.3     1  UNL1        0.0904
     30 N          -7.4350  -14.5514   28.0221 N.3     1  UNL1       -0.2946
     31 C          -6.0743  -14.4675   27.3964 C.3     1  UNL1        0.0904
     32 C          -5.8444  -15.0263   26.0236 C.3     1  UNL1        0.1108
     33 H          -7.3266  -15.0689   28.8944 H       1  UNL1        0.1233
@<TRIPOS>BOND
     1     3     4    2
     2     4     2    1
     3     2     1    1
     4     1    18    1
     5    18    19    1
     6    19    20   ar
     7    20    21   ar
     8    21    22   ar
     9    22    25    1
    10    25    26    2
    11    25    27   am
    12    27    28    1
    13    28    29    1
    14    29    30    1
    15    30    31    1
    16    31    32    1
    17    22    23   ar
    18    23    24   ar
    19     4     5   am
    20     5     6    1
    21     6     7    1
    22     7     8    1
    23     8    11    1
    24    11    12    1
    25    12    13   ar
    26    13    14   ar
    27    14    15   ar
    28    15    16   ar
    29     8     9    1
    30     9    10    1
    31    24    19   ar
    32    10     5    1
    33    32    27    1
    34    16    12   ar
    35    30    33    1
    36    16    17    1
@<TRIPOS>MOLECULE
*****
 33 36 0 0 0
SMALL
GASTEIGER

@<TRIPOS>ATOM
      1 C          -3.2405  -20.4739   20.7946 C.3     1  UNL1        0.2150
      2 C          -2.0969  -19.6736   21.3440 C.3     1  UNL1        0.1325
      3 O          -1.2386  -17.5006   20.2077 O.2     1  UNL1       -0.2747
      4 C          -2.1041  -18.1781   21.2285 C.2     1  UNL1        0.2294
      5 N          -2.9767  -17.3602   22.1337 N.am    1  UNL1       -0.2794
      6 C          -2.9840  -15.8646   22.0182 C.3     1  UNL1        0.0934
      7 C          -3.8566  -15.0467   22.9234 C.3     1  UNL1        0.0219
      8 C          -4.7220  -15.7243   23.9441 C.3     1  UNL1        0.0093
      9 C          -4.7148  -17.2198   24.0596 C.3     1  UNL1        0.0219
     10 C          -3.8422  -18.0378   23.1544 C.3     1  UNL1        0.0934
     11 C          -5.5947  -14.9064   24.8493 C.3     1  UNL1        0.0453
     12 C          -6.7690  -15.5411   25.5336 C.ar    1  UNL1        0.0541
     13 C          -8.0474  -15.9688   24.8758 C.ar    1  UNL1        0.1131
     14 N          -8.9395  -16.5516   25.9315 N.ar    1  UNL1       -0.2229
     15 C          -8.2124  -16.4841   27.2418 C.ar    1  UNL1        0.1748
     16 N          -6.8710  -15.8596   26.9959 N.ar    1  UNL1       -0.3382
     17 H          -6.1790  -15.6887   27.6750 H       1  UNL1        0.1672
     18 O          -4.3235  -19.7938   20.0106 O.3     1  UNL1       -0.4749
     19 C          -5.7146  -19.7141   20.5663 C.ar    1  UNL1        0.1386
     20 C          -5.9789  -20.1163   21.9870 C.ar    1  UNL1        0.0370
     21 C          -7.3699  -20.0366   22.5425 C.ar    1  UNL1        0.0076
     22 C          -8.4966  -19.5548   21.6774 C.ar    1  UNL1        0.0538
     23 C          -8.2323  -19.1526   20.2568 C.ar    1  UNL1        0.0076
     24 C          -6.8413  -19.2323   19.7012 C.ar    1  UNL1        0.0370
     25 C          -9.8876  -19.4751   22.2331 C.2     1  UNL1        0.2491
     26 O         -10.3127  -20.4087   23.3275 O.2     1  UNL1       -0.2699
     27 N         -10.8536  -18.4619   21.6944 N.am    1  UNL1       -0.2732
     28 C         -10.4285  -17.5283   20.6000 C.3     1  UNL1        0.1108
     29 C         -11.3945  -16.5150   20.0612 C.3     1  UNL1        0.0904
     30 N         -12.7855  -16.4354   20.6169 N.3     1  UNL1       -0.2946
     31 C         -13.2106  -17.3690   21.7113 C.3     1  UNL1        0.0904
     32 C         -12.2446  -18.3822   22.2500 C.3     1  UNL1        0.1108
     33 H         -13.4237  -16.5873   19.8358 H       1  UNL1        0.1233
@<TRIPOS>BOND
     1     3     4    2
     2     4     2    1
     3     2     1    1
     4     1    18    1
     5    18    19    1
     6    19    20   ar
     7    20    21   ar
     8    21    22   ar
     9    22    25    1
    10    25    26    2
    11    25    27   am
    12    27    28    1
    13    28    29    1
    14    29    30    1
    15    30    31    1
    16    31    32    1
    17    22    23   ar
    18    23    24   ar
    19     4     5   am
    20     5     6    1
    21     6     7    1
    22     7     8    1
    23     8    11    1
    24    11    12    1
    25    12    13   ar
    26    13    14   ar
    27    14    15   ar
    28    15    16   ar
    29     8     9    1
    30     9    10    1
    31    24    19   ar
    32    10     5    1
    33    32    27    1
    34    16    12   ar
    35    30    33    1
    36    16    17    1
@<TRIPOS>MOLECULE
*****
 33 36 0 0 0
SMALL
GASTEIGER

@<TRIPOS>ATOM
      1 C         -10.9691  -19.9357   20.7465 C.3     1  UNL1        0.2150
      2 C         -11.8262  -18.7054   20.7887 C.3     1  UNL1        0.1325
      3 O         -11.7337  -16.5823   19.2940 O.2     1  UNL1       -0.2747
      4 C         -11.2314  -17.3656   20.4705 C.2     1  UNL1        0.2294
      5 N         -10.1344  -16.8092   21.3288 N.am    1  UNL1       -0.2794
      6 C          -9.5395  -15.4694   21.0107 C.3     1  UNL1        0.0934
      7 C          -8.4424  -14.9129   21.8690 C.3     1  UNL1        0.0219
      8 C          -7.9402  -15.6962   23.0455 C.3     1  UNL1        0.0093
      9 C          -8.5349  -17.0360   23.3637 C.3     1  UNL1        0.0219
     10 C          -9.6321  -17.5925   22.5053 C.3     1  UNL1        0.0934
     11 C          -6.8431  -15.1398   23.9038 C.3     1  UNL1        0.0453
     12 C          -6.9610  -15.1909   25.3984 C.ar    1  UNL1        0.0541
     13 C          -5.8208  -15.2515   26.3711 C.ar    1  UNL1        0.1131
     14 N          -6.3949  -15.2885   27.7564 N.ar    1  UNL1       -0.2229
     15 C          -7.8899  -15.2507   27.6398 C.ar    1  UNL1        0.1748
     16 N          -8.2397  -15.1904   26.1824 N.ar    1  UNL1       -0.3382
     17 H          -9.1490  -15.1565   25.8065 H       1  UNL1        0.1672
     18 O          -9.8120  -20.0113   19.7949 O.3     1  UNL1       -0.4749
     19 C          -8.4160  -19.7780   20.2916 C.ar    1  UNL1        0.1386
     20 C          -7.3959  -19.1452   19.3922 C.ar    1  UNL1        0.0370
     21 C          -5.9999  -18.9118   19.8888 C.ar    1  UNL1        0.0076
     22 C          -5.6240  -19.3113   21.2850 C.ar    1  UNL1        0.0538
     23 C          -6.6441  -19.9441   22.1844 C.ar    1  UNL1        0.0076
     24 C          -8.0400  -20.1774   21.6877 C.ar    1  UNL1        0.0370
     25 C          -4.2279  -19.0779   21.7816 C.2     1  UNL1        0.2491
     26 O          -3.9100  -19.2560   23.2367 O.2     1  UNL1       -0.2699
     27 N          -3.1499  -18.6665   20.8232 N.am    1  UNL1       -0.2732
     28 C          -3.4679  -18.4884   19.3682 C.3     1  UNL1        0.1108
     29 C          -2.3897  -18.0769   18.4098 C.3     1  UNL1        0.0904
     30 N          -0.9938  -17.8436   18.9065 N.3     1  UNL1       -0.2946
     31 C          -0.6758  -18.0217   20.3615 C.3     1  UNL1        0.0904
     32 C          -1.7538  -18.4331   21.3199 C.3     1  UNL1        0.1108
     33 H          -0.7534  -16.8814   18.6682 H       1  UNL1        0.1233
@<TRIPOS>BOND
     1     3     4    2
     2     4     2    1
     3     2     1    1
     4     1    18    1
     5    18    19    1
     6    19    20   ar
     7    20    21   ar
     8    21    22   ar
     9    22    25    1
    10    25    26    2
    11    25    27   am
    12    27    28    1
    13    28    29    1
    14    29    30    1
    15    30    31    1
    16    31    32    1
    17    22    23   ar
    18    23    24   ar
    19     4     5   am
    20     5     6    1
    21     6     7    1
    22     7     8    1
    23     8    11    1
    24    11    12    1
    25    12    13   ar
    26    13    14   ar
    27    14    15   ar
    28    15    16   ar
    29     8     9    1
    30     9    10    1
    31    24    19   ar
    32    10     5    1
    33    32    27    1
    34    16    12   ar
    35    30    33    1
    36    16    17    1
@<TRIPOS>MOLECULE
*****
 33 36 0 0 0
SMALL
GASTEIGER

@<TRIPOS>ATOM
      1 C           0.8772    4.6595   20.8686 C.3     1  UNL1        0.2150
      2 C           0.3065    3.6853   21.8563 C.3     1  UNL1        0.1325
      3 O          -1.3293    5.4570   22.8234 O.2     1  UNL1       -0.2747
      4 C          -0.5656    4.1748   22.9742 C.2     1  UNL1        0.2294
      5 N          -0.6740    3.3820   24.2429 N.am    1  UNL1       -0.2794
      6 C          -1.5462    3.8714   25.3609 C.3     1  UNL1        0.0934
      7 C          -1.6546    3.0787   26.6297 C.3     1  UNL1        0.0219
      8 C          -0.8909    1.7965   26.7805 C.3     1  UNL1        0.0093
      9 C          -0.0188    1.3070   25.6625 C.3     1  UNL1        0.0219
     10 C           0.0897    2.0998   24.3937 C.3     1  UNL1        0.0934
     11 C          -0.9993    1.0037   28.0492 C.3     1  UNL1        0.0453
     12 C           0.2337    0.6839   28.8415 C.ar    1  UNL1        0.0541
     13 C           0.8754    1.5682   29.8692 C.ar    1  UNL1        0.1131
     14 N           2.0796    0.8545   30.4079 N.ar    1  UNL1       -0.2229
     15 C           2.1822   -0.4710   29.7132 C.ar    1  UNL1        0.1748
     16 N           1.0414   -0.5764   28.7451 N.ar    1  UNL1       -0.3382
     17 H           0.8553   -1.3389   28.1507 H       1  UNL1        0.1672
     18 O           0.9526    4.2967   19.4151 O.3     1  UNL1       -0.4749
     19 C           1.6383    3.0312   18.9926 C.ar    1  UNL1        0.1386
     20 C           3.1355    2.9785   18.9179 C.ar    1  UNL1        0.0370
     21 C           3.8212    1.7131   18.4953 C.ar    1  UNL1        0.0076
     22 C           3.0097    0.5005   18.1474 C.ar    1  UNL1        0.0538
     23 C           1.5125    0.5532   18.2222 C.ar    1  UNL1        0.0076
     24 C           0.8268    1.8186   18.6447 C.ar    1  UNL1        0.0370
     25 C           3.6954   -0.7650   17.7249 C.2     1  UNL1        0.2491
     26 O           3.9564   -1.0272   16.2712 O.2     1  UNL1       -0.2699
     27 N           4.1203   -1.7681   18.7559 N.am    1  UNL1       -0.2732
     28 C           3.8593   -1.5059   20.2096 C.3     1  UNL1        0.1108
     29 C           4.2842   -2.5092   21.2407 C.3     1  UNL1        0.0904
     30 N           4.9699   -3.7745   20.8181 N.3     1  UNL1       -0.2946
     31 C           5.2308   -4.0367   19.3644 C.3     1  UNL1        0.0904
     32 C           4.8060   -3.0336   18.3334 C.3     1  UNL1        0.1108
     33 H           4.3979   -4.5473   21.1586 H       1  UNL1        0.1233
@<TRIPOS>BOND
     1     3     4    2
     2     4     2    1
     3     2     1    1
     4     1    18    1
     5    18    19    1
     6    19    20   ar
     7    20    21   ar
     8    21    22   ar
     9    22    25    1
    10    25    26    2
    11    25    27   am
    12    27    28    1
    13    28    29    1
    14    29    30    1
    15    30    31    1
    16    31    32    1
    17    22    23   ar
    18    23    24   ar
    19     4     5   am
    20     5     6    1
    21     6     7    1
    22     7     8    1
    23     8    11    1
    24    11    12    1
    25    12    13   ar
    26    13    14   ar
    27    14    15   ar
    28    15    16   ar
    29     8     9    1
    30     9    10    1
    31    24    19   ar
    32    10     5    1
    33    32    27    1
    34    16    12   ar
    35    30    33    1
    36    16    17    1
@<TRIPOS>MOLECULE
*****
 33 36 0 0 0
SMALL
GASTEIGER

@<TRIPOS>ATOM
      1 C           7.7245   -4.2716   22.4496 C.3     1  UNL1        0.2150
      2 C           7.1114   -4.6282   23.7714 C.3     1  UNL1        0.1325
      3 O           8.3623   -6.9025   23.8854 O.2     1  UNL1       -0.2747
      4 C           7.6708   -5.7642   24.5754 C.2     1  UNL1        0.2294
      5 N           7.5385   -5.7621   26.0696 N.am    1  UNL1       -0.2794
      6 C           8.0979   -6.8981   26.8737 C.3     1  UNL1        0.0934
      7 C           7.9657   -6.8960   28.3678 C.3     1  UNL1        0.0219
      8 C           7.2741   -5.7577   29.0579 C.3     1  UNL1        0.0093
      9 C           6.7148   -4.6217   28.2539 C.3     1  UNL1        0.0219
     10 C           6.8470   -4.6238   26.7597 C.3     1  UNL1        0.0934
     11 C           7.1419   -5.7555   30.5520 C.3     1  UNL1        0.0453
     12 C           7.1876   -4.4602   31.3072 C.ar    1  UNL1        0.0541
     13 C           8.4269   -3.7126   31.7012 C.ar    1  UNL1        0.1131
     14 N           8.0073   -2.4755   32.4383 N.ar    1  UNL1       -0.2229
     15 C           6.5086   -2.4585   32.4999 C.ar    1  UNL1        0.1748
     16 N           6.0021   -3.6851   31.8008 N.ar    1  UNL1       -0.3382
     17 H           5.0573   -3.9372   31.6861 H       1  UNL1        0.1672
     18 O           7.0583   -4.6967   21.1748 O.3     1  UNL1       -0.4749
     19 C           6.1455   -3.7498   20.4535 C.ar    1  UNL1        0.1386
     20 C           6.5313   -2.3087   20.2974 C.ar    1  UNL1        0.0370
     21 C           5.6185   -1.3618   19.5762 C.ar    1  UNL1        0.0076
     22 C           4.3198   -1.8560   19.0111 C.ar    1  UNL1        0.0538
     23 C           3.9340   -3.2971   19.1672 C.ar    1  UNL1        0.0076
     24 C           4.8469   -4.2440   19.8884 C.ar    1  UNL1        0.0370
     25 C           3.4070   -0.9091   18.2899 C.2     1  UNL1        0.2491
     26 O           3.5209   -0.7435   16.8034 O.2     1  UNL1       -0.2699
     27 N           2.3804   -0.1278   19.0551 N.am    1  UNL1       -0.2732
     28 C           2.2666   -0.2934   20.5416 C.3     1  UNL1        0.1108
     29 C           1.2399    0.4879   21.3068 C.3     1  UNL1        0.0904
     30 N           0.3271    1.4348   20.5856 N.3     1  UNL1       -0.2946
     31 C           0.4410    1.6004   19.0991 C.3     1  UNL1        0.0904
     32 C           1.4676    0.8191   18.3339 C.3     1  UNL1        0.1108
     33 H           0.4746    2.3565   20.9967 H       1  UNL1        0.1233
@<TRIPOS>BOND
     1     3     4    2
     2     4     2    1
     3     2     1    1
     4     1    18    1
     5    18    19    1
     6    19    20   ar
     7    20    21   ar
     8    21    22   ar
     9    22    25    1
    10    25    26    2
    11    25    27   am
    12    27    28    1
    13    28    29    1
    14    29    30    1
    15    30    31    1
    16    31    32    1
    17    22    23   ar
    18    23    24   ar
    19     4     5   am
    20     5     6    1
    21     6     7    1
    22     7     8    1
    23     8    11    1
    24    11    12    1
    25    12    13   ar
    26    13    14   ar
    27    14    15   ar
    28    15    16   ar
    29     8     9    1
    30     9    10    1
    31    24    19   ar
    32    10     5    1
    33    32    27    1
    34    16    12   ar
    35    30    33    1
    36    16    17    1
@<TRIPOS>MOLECULE
*****
 33 36 0 0 0
SMALL
GASTEIGER

@<TRIPOS>ATOM
      1 C           3.8089   -0.6561   17.0796 C.3     1  UNL1        0.2150
      2 C           3.6667    0.4449   18.0884 C.3     1  UNL1        0.1325
      3 O           2.9177   -0.8053   20.2392 O.2     1  UNL1       -0.2747
      4 C           2.7138    0.2917   19.2366 C.2     1  UNL1        0.2294
      5 N           1.5570    1.2354   19.3824 N.am    1  UNL1       -0.2794
      6 C           0.6041    1.0821   20.5306 C.3     1  UNL1        0.0934
      7 C          -0.5527    2.0258   20.6764 C.3     1  UNL1        0.0219
      8 C          -0.7566    3.1228   19.6738 C.3     1  UNL1        0.0093
      9 C           0.1963    3.2761   18.5256 C.3     1  UNL1        0.0219
     10 C           1.3531    2.3323   18.3798 C.3     1  UNL1        0.0934
     11 C          -1.9133    4.0665   19.8196 C.3     1  UNL1        0.0453
     12 C          -2.9357    3.8396   20.8935 C.ar    1  UNL1        0.0541
     13 C          -3.0354    4.5897   22.1886 C.ar    1  UNL1        0.1131
     14 N          -4.1992    4.0364   22.9564 N.ar    1  UNL1       -0.2229
     15 C          -4.8188    2.9443   22.1357 C.ar    1  UNL1        0.1748
     16 N          -4.0379    2.8227   20.8608 N.ar    1  UNL1       -0.3382
     17 H          -4.2173    2.1871   20.1307 H       1  UNL1        0.1672
     18 O           5.1155   -1.3790   16.9375 O.3     1  UNL1       -0.4749
     19 C           5.6724   -2.1559   18.0935 C.ar    1  UNL1        0.1386
     20 C           4.9147   -3.3273   18.6445 C.ar    1  UNL1        0.0370
     21 C           5.4716   -4.1042   19.8004 C.ar    1  UNL1        0.0076
     22 C           6.7863   -3.7097   20.4054 C.ar    1  UNL1        0.0538
     23 C           7.5440   -2.5383   19.8544 C.ar    1  UNL1        0.0076
     24 C           6.9871   -1.7614   18.6985 C.ar    1  UNL1        0.0370
     25 C           7.3432   -4.4866   21.5614 C.2     1  UNL1        0.2491
     26 O           8.3124   -5.6049   21.3161 O.2     1  UNL1       -0.2699
     27 N           6.9309   -4.1453   22.9626 N.am    1  UNL1       -0.2732
     28 C           5.9618   -3.0270   23.2080 C.3     1  UNL1        0.1108
     29 C           5.5495   -2.6857   24.6093 C.3     1  UNL1        0.0904
     30 N           6.1065   -3.4627   25.7652 N.3     1  UNL1       -0.2946
     31 C           7.0756   -4.5809   25.5199 C.3     1  UNL1        0.0904
     32 C           7.4879   -4.9222   24.1186 C.3     1  UNL1        0.1108
     33 H           5.3107   -3.8659   26.2597 H       1  UNL1        0.1233
@<TRIPOS>BOND
     1     3     4    2
     2     4     2    1
     3     2     1    1
     4     1    18    1
     5    18    19    1
     6    19    20   ar
     7    20    21   ar
     8    21    22   ar
     9    22    25    1
    10    25    26    2
    11    25    27   am
    12    27    28    1
    13    28    29    1
    14    29    30    1
    15    30    31    1
    16    31    32    1
    17    22    23   ar
    18    23    24   ar
    19     4     5   am
    20     5     6    1
    21     6     7    1
    22     7     8    1
    23     8    11    1
    24    11    12    1
    25    12    13   ar
    26    13    14   ar
    27    14    15   ar
    28    15    16   ar
    29     8     9    1
    30     9    10    1
    31    24    19   ar
    32    10     5    1
    33    32    27    1
    34    16    12   ar
    35    30    33    1
    36    16    17    1
