@<TRIPOS>MOLECULE
*****
 19 22 0 0 0
SMALL
GASTEIGER

@<TRIPOS>ATOM
      1 C          -1.9459  -18.7205   21.9932 C.ar    1  UNL1       -0.0000
      2 C          -2.6222  -17.8079   22.9729 C.ar    1  UNL1       -0.0000
      3 C          -4.1185  -17.7966   23.0777 C.ar    1  UNL1       -0.0000
      4 C          -4.9385  -18.6977   22.2027 C.ar    1  UNL1       -0.0003
      5 C          -6.4348  -18.6863   22.3075 C.ar    1  UNL1       -0.0042
      6 C          -7.2547  -19.5875   21.4325 C.ar    1  UNL1       -0.0215
      7 C          -6.5784  -20.5000   20.4528 C.ar    1  UNL1       -0.0042
      8 C          -5.0821  -20.5114   20.3480 C.ar    1  UNL1       -0.0003
      9 C          -4.2621  -19.6102   21.2230 C.ar    1  UNL1       -0.0000
     10 C          -2.7659  -19.6216   21.1183 C.ar    1  UNL1       -0.0000
     11 C          -8.7510  -19.5761   21.5373 C.3     1  UNL1        0.0347
     12 C          -8.1984  -20.0570   22.8461 C.3     1  UNL1        0.0054
     13 C          -9.3531  -20.3429   23.7598 C.3     1  UNL1        0.0004
     14 C         -10.6194  -20.0386   23.0156 C.3     1  UNL1        0.0017
     15 C         -10.2473  -19.5647   21.6420 C.3     1  UNL1        0.0208
     16 C         -10.7999  -19.0837   20.3331 C.3     1  UNL1        0.0689
     17 N          -9.6452  -18.7978   19.4194 N.3     1  UNL1       -0.2972
     18 C          -8.3789  -19.1021   20.1636 C.3     1  UNL1        0.0726
     19 H          -9.6571  -17.8159   19.1434 H       1  UNL1        0.1233
@<TRIPOS>BOND
     1     1     2   ar
     2     2     3   ar
     3     3     4   ar
     4     4     5   ar
     5     5     6   ar
     6    11     6    1
     7    11    12    1
     8    12    13    1
     9    13    14    1
    10    15    14    1
    11    15    16    1
    12    16    17    1
    13    17    18    1
    14     6     7   ar
    15     7     8   ar
    16     8     9   ar
    17     9    10   ar
    18    10     1   ar
    19     9     4   ar
    20    15    11    1
    21    18    11    1
    22    17    19    1
@<TRIPOS>MOLECULE
*****
 19 22 0 0 0
SMALL
GASTEIGER

@<TRIPOS>ATOM
      1 C          -6.2523  -15.1699   26.9308 C.ar    1  UNL1       -0.0000
      2 C          -7.3549  -15.9348   27.6010 C.ar    1  UNL1       -0.0000
      3 C          -8.4328  -16.5741   26.7767 C.ar    1  UNL1       -0.0000
      4 C          -8.4081  -16.4485   25.2822 C.ar    1  UNL1       -0.0003
      5 C          -9.4860  -17.0877   24.4579 C.ar    1  UNL1       -0.0042
      6 C          -9.4613  -16.9621   22.9634 C.ar    1  UNL1       -0.0215
      7 C          -8.3586  -16.1972   22.2931 C.ar    1  UNL1       -0.0042
      8 C          -7.2808  -15.5579   23.1175 C.ar    1  UNL1       -0.0003
      9 C          -7.3055  -15.6836   24.6120 C.ar    1  UNL1       -0.0000
     10 C          -6.2276  -15.0443   25.4363 C.ar    1  UNL1       -0.0000
     11 C         -10.5391  -17.6014   22.1391 C.3     1  UNL1        0.0347
     12 C         -11.1332  -16.4157   22.8397 C.3     1  UNL1        0.0054
     13 C         -12.5782  -16.3221   22.4485 C.3     1  UNL1        0.0004
     14 C         -12.8772  -17.4501   21.5060 C.3     1  UNL1        0.0017
     15 C         -11.6170  -18.2407   21.3148 C.3     1  UNL1        0.0208
     16 C         -11.0229  -19.4265   20.6141 C.3     1  UNL1        0.0689
     17 N          -9.5779  -19.5201   21.0054 N.3     1  UNL1       -0.2972
     18 C          -9.2789  -18.3921   21.9479 C.3     1  UNL1        0.0726
     19 H          -8.9890  -19.4436   20.1760 H       1  UNL1        0.1233
@<TRIPOS>BOND
     1     1     2   ar
     2     2     3   ar
     3     3     4   ar
     4     4     5   ar
     5     5     6   ar
     6    11     6    1
     7    11    12    1
     8    12    13    1
     9    13    14    1
    10    15    14    1
    11    15    16    1
    12    16    17    1
    13    17    18    1
    14     6     7   ar
    15     7     8   ar
    16     8     9   ar
    17     9    10   ar
    18    10     1   ar
    19     9     4   ar
    20    15    11    1
    21    18    11    1
    22    17    19    1
@<TRIPOS>MOLECULE
*****
 19 22 0 0 0
SMALL
GASTEIGER

@<TRIPOS>ATOM
      1 C          -3.1534  -19.9190   20.6052 C.ar    1  UNL1       -0.0000
      2 C          -3.0729  -19.2671   21.9537 C.ar    1  UNL1       -0.0000
      3 C          -4.3255  -18.8158   22.6446 C.ar    1  UNL1       -0.0000
      4 C          -5.6586  -19.0165   21.9870 C.ar    1  UNL1       -0.0003
      5 C          -6.9113  -18.5653   22.6779 C.ar    1  UNL1       -0.0042
      6 C          -8.2444  -18.7660   22.0203 C.ar    1  UNL1       -0.0215
      7 C          -8.3249  -19.4179   20.6718 C.ar    1  UNL1       -0.0042
      8 C          -7.0723  -19.8692   19.9809 C.ar    1  UNL1       -0.0003
      9 C          -5.7392  -19.6685   20.6385 C.ar    1  UNL1       -0.0000
     10 C          -4.4865  -20.1197   19.9476 C.ar    1  UNL1       -0.0000
     11 C          -9.4970  -18.3147   22.7112 C.3     1  UNL1        0.0347
     12 C          -9.2024  -19.7169   23.1548 C.3     1  UNL1        0.0054
     13 C         -10.2729  -20.1324   24.1199 C.3     1  UNL1        0.0004
     14 C         -11.2291  -18.9868   24.2727 C.3     1  UNL1        0.0017
     15 C         -10.7496  -17.8635   23.4021 C.3     1  UNL1        0.0208
     16 C         -11.0442  -16.4612   22.9585 C.3     1  UNL1        0.0689
     17 N          -9.9736  -16.0457   21.9934 N.3     1  UNL1       -0.2972
     18 C          -9.0174  -17.1913   21.8406 C.3     1  UNL1        0.0726
     19 H          -9.4805  -15.2289   22.3541 H       1  UNL1        0.1233
@<TRIPOS>BOND
     1     1     2   ar
     2     2     3   ar
     3     3     4   ar
     4     4     5   ar
     5     5     6   ar
     6    11     6    1
     7    11    12    1
     8    12    13    1
     9    13    14    1
    10    15    14    1
    11    15    16    1
    12    16    17    1
    13    17    18    1
    14     6     7   ar
    15     7     8   ar
    16     8     9   ar
    17     9    10   ar
    18    10     1   ar
    19     9     4   ar
    20    15    11    1
    21    18    11    1
    22    17    19    1
@<TRIPOS>MOLECULE
*****
 19 22 0 0 0
SMALL
GASTEIGER

@<TRIPOS>ATOM
      1 C          -1.9321  -18.7343   21.9427 C.ar    1  UNL1       -0.0000
      2 C          -2.6226  -17.8146   22.9056 C.ar    1  UNL1       -0.0000
      3 C          -4.1194  -17.8186   23.0044 C.ar    1  UNL1       -0.0000
      4 C          -4.9256  -18.7423   22.1403 C.ar    1  UNL1       -0.0003
      5 C          -6.4223  -18.7463   22.2391 C.ar    1  UNL1       -0.0042
      6 C          -7.2285  -19.6701   21.3750 C.ar    1  UNL1       -0.0215
      7 C          -6.5380  -20.5898   20.4121 C.ar    1  UNL1       -0.0042
      8 C          -5.0413  -20.5858   20.3133 C.ar    1  UNL1       -0.0003
      9 C          -4.2351  -19.6620   21.1774 C.ar    1  UNL1       -0.0000
     10 C          -2.7383  -19.6580   21.0786 C.ar    1  UNL1       -0.0000
     11 C          -8.7253  -19.6741   21.4739 C.3     1  UNL1        0.0347
     12 C          -8.3558  -19.4090   20.0445 C.3     1  UNL1        0.0054
     13 C          -9.6242  -19.2492   19.2599 C.3     1  UNL1        0.0004
     14 C         -10.7775  -19.4155   20.2044 C.3     1  UNL1        0.0017
     15 C         -10.2220  -19.6781   21.5727 C.3     1  UNL1        0.0208
     16 C         -10.5914  -19.9432   23.0021 C.3     1  UNL1        0.0689
     17 N          -9.3231  -20.1030   23.7867 N.3     1  UNL1       -0.2972
     18 C          -8.1697  -19.9367   22.8422 C.3     1  UNL1        0.0726
     19 H          -9.2926  -21.0304   24.2103 H       1  UNL1        0.1233
@<TRIPOS>BOND
     1     1     2   ar
     2     2     3   ar
     3     3     4   ar
     4     4     5   ar
     5     5     6   ar
     6    11     6    1
     7    11    12    1
     8    12    13    1
     9    13    14    1
    10    15    14    1
    11    15    16    1
    12    16    17    1
    13    17    18    1
    14     6     7   ar
    15     7     8   ar
    16     8     9   ar
    17     9    10   ar
    18    10     1   ar
    19     9     4   ar
    20    15    11    1
    21    18    11    1
    22    17    19    1
@<TRIPOS>MOLECULE
*****
 19 22 0 0 0
SMALL
GASTEIGER

@<TRIPOS>ATOM
      1 C          -3.7311  -17.6999   23.1815 C.ar    1  UNL1       -0.0000
      2 C          -4.2540  -18.8284   22.3430 C.ar    1  UNL1       -0.0000
      3 C          -5.7268  -18.9532   22.0878 C.ar    1  UNL1       -0.0000
      4 C          -6.6768  -17.9495   22.6710 C.ar    1  UNL1       -0.0003
      5 C          -8.1496  -18.0744   22.4157 C.ar    1  UNL1       -0.0042
      6 C          -9.0996  -17.0707   22.9989 C.ar    1  UNL1       -0.0215
      7 C          -8.5767  -15.9421   23.8375 C.ar    1  UNL1       -0.0042
      8 C          -7.1039  -15.8173   24.0927 C.ar    1  UNL1       -0.0003
      9 C          -6.1539  -16.8210   23.5094 C.ar    1  UNL1       -0.0000
     10 C          -4.6811  -16.6962   23.7647 C.ar    1  UNL1       -0.0000
     11 C         -10.5725  -17.1955   22.7437 C.3     1  UNL1        0.0347
     12 C         -10.2433  -18.0038   23.9635 C.3     1  UNL1        0.0054
     13 C         -11.5127  -18.6283   24.4623 C.3     1  UNL1        0.0004
     14 C         -12.6264  -18.2058   23.5506 C.3     1  UNL1        0.0017
     15 C         -12.0453  -17.3203   22.4885 C.3     1  UNL1        0.0208
     16 C         -12.3744  -16.5120   21.2685 C.3     1  UNL1        0.0689
     17 N         -11.1051  -15.8875   20.7698 N.3     1  UNL1       -0.2972
     18 C          -9.9914  -16.3100   21.6815 C.3     1  UNL1        0.0726
     19 H         -11.1926  -14.8713   20.7781 H       1  UNL1        0.1233
@<TRIPOS>BOND
     1     1     2   ar
     2     2     3   ar
     3     3     4   ar
     4     4     5   ar
     5     5     6   ar
     6    11     6    1
     7    11    12    1
     8    12    13    1
     9    13    14    1
    10    15    14    1
    11    15    16    1
    12    16    17    1
    13    17    18    1
    14     6     7   ar
    15     7     8   ar
    16     8     9   ar
    17     9    10   ar
    18    10     1   ar
    19     9     4   ar
    20    15    11    1
    21    18    11    1
    22    17    19    1
@<TRIPOS>MOLECULE
*****
 19 22 0 0 0
SMALL
GASTEIGER

@<TRIPOS>ATOM
      1 C          -6.6052  -15.4319   27.2433 C.ar    1  UNL1       -0.0000
      2 C          -5.8873  -14.9441   26.0199 C.ar    1  UNL1       -0.0000
      3 C          -6.4106  -15.2867   24.6566 C.ar    1  UNL1       -0.0000
      4 C          -7.6518  -16.1172   24.5166 C.ar    1  UNL1       -0.0003
      5 C          -8.1751  -16.4598   23.1532 C.ar    1  UNL1       -0.0042
      6 C          -9.4163  -17.2903   23.0132 C.ar    1  UNL1       -0.0215
      7 C         -10.1343  -17.7782   24.2365 C.ar    1  UNL1       -0.0042
      8 C          -9.6110  -17.4356   25.5999 C.ar    1  UNL1       -0.0003
      9 C          -8.3697  -16.6051   25.7399 C.ar    1  UNL1       -0.0000
     10 C          -7.8464  -16.2624   27.1032 C.ar    1  UNL1       -0.0000
     11 C          -9.9396  -17.6330   21.6498 C.3     1  UNL1        0.0347
     12 C          -8.7824  -18.5408   21.9437 C.3     1  UNL1        0.0054
     13 C          -8.5905  -19.4446   20.7621 C.3     1  UNL1        0.0004
     14 C          -9.6291  -19.0952   19.7378 C.3     1  UNL1        0.0017
     15 C         -10.4630  -17.9756   20.2865 C.3     1  UNL1        0.0208
     16 C         -11.6203  -17.0677   19.9925 C.3     1  UNL1        0.0689
     17 N         -11.8122  -16.1640   21.1742 N.3     1  UNL1       -0.2972
     18 C         -10.7735  -16.5133   22.1984 C.3     1  UNL1        0.0726
     19 H         -12.7441  -16.2997   21.5660 H       1  UNL1        0.1233
@<TRIPOS>BOND
     1     1     2   ar
     2     2     3   ar
     3     3     4   ar
     4     4     5   ar
     5     5     6   ar
     6    11     6    1
     7    11    12    1
     8    12    13    1
     9    13    14    1
    10    15    14    1
    11    15    16    1
    12    16    17    1
    13    17    18    1
    14     6     7   ar
    15     7     8   ar
    16     8     9   ar
    17     9    10   ar
    18    10     1   ar
    19     9     4   ar
    20    15    11    1
    21    18    11    1
    22    17    19    1
@<TRIPOS>MOLECULE
*****
 19 22 0 0 0
SMALL
GASTEIGER

@<TRIPOS>ATOM
      1 C          -3.6884  -17.7493   22.9985 C.ar    1  UNL1       -0.0000
      2 C          -4.2606  -18.9022   22.2282 C.ar    1  UNL1       -0.0000
      3 C          -5.7472  -19.0506   22.0941 C.ar    1  UNL1       -0.0000
      4 C          -6.6616  -18.0462   22.7304 C.ar    1  UNL1       -0.0003
      5 C          -8.1482  -18.1946   22.5963 C.ar    1  UNL1       -0.0042
      6 C          -9.0627  -17.1902   23.2325 C.ar    1  UNL1       -0.0215
      7 C          -8.4905  -16.0372   24.0029 C.ar    1  UNL1       -0.0042
      8 C          -7.0039  -15.8888   24.1369 C.ar    1  UNL1       -0.0003
      9 C          -6.0894  -16.8933   23.5006 C.ar    1  UNL1       -0.0000
     10 C          -4.6028  -16.7449   23.6347 C.ar    1  UNL1       -0.0000
     11 C         -10.5493  -17.3386   23.0985 C.3     1  UNL1        0.0347
     12 C         -10.0703  -16.4500   21.9891 C.3     1  UNL1        0.0054
     13 C         -11.2608  -16.0492   21.1694 C.3     1  UNL1        0.0004
     14 C         -12.4756  -16.6902   21.7722 C.3     1  UNL1        0.0017
     15 C         -12.0359  -17.4871   22.9644 C.3     1  UNL1        0.0208
     16 C         -12.5149  -18.3757   24.0739 C.3     1  UNL1        0.0689
     17 N         -11.3243  -18.7765   24.8936 N.3     1  UNL1       -0.2972
     18 C         -10.1095  -18.1356   24.2908 C.3     1  UNL1        0.0726
     19 H         -11.2220  -19.7913   24.8822 H       1  UNL1        0.1233
@<TRIPOS>BOND
     1     1     2   ar
     2     2     3   ar
     3     3     4   ar
     4     4     5   ar
     5     5     6   ar
     6    11     6    1
     7    11    12    1
     8    12    13    1
     9    13    14    1
    10    15    14    1
    11    15    16    1
    12    16    17    1
    13    17    18    1
    14     6     7   ar
    15     7     8   ar
    16     8     9   ar
    17     9    10   ar
    18    10     1   ar
    19     9     4   ar
    20    15    11    1
    21    18    11    1
    22    17    19    1
@<TRIPOS>MOLECULE
*****
 19 22 0 0 0
SMALL
GASTEIGER

@<TRIPOS>ATOM
      1 C          -3.4117  -19.6891   20.6753 C.ar    1  UNL1       -0.0000
      2 C          -3.3690  -19.0300   22.0220 C.ar    1  UNL1       -0.0000
      3 C          -4.6431  -18.6051   22.6898 C.ar    1  UNL1       -0.0000
      4 C          -5.9600  -18.8392   22.0109 C.ar    1  UNL1       -0.0003
      5 C          -7.2341  -18.4142   22.6787 C.ar    1  UNL1       -0.0042
      6 C          -8.5510  -18.6483   21.9998 C.ar    1  UNL1       -0.0215
      7 C          -8.5938  -19.3074   20.6530 C.ar    1  UNL1       -0.0042
      8 C          -7.3196  -19.7324   19.9852 C.ar    1  UNL1       -0.0003
      9 C          -6.0027  -19.4983   20.6642 C.ar    1  UNL1       -0.0000
     10 C          -4.7286  -19.9233   19.9964 C.ar    1  UNL1       -0.0000
     11 C          -9.8251  -18.2233   22.6676 C.3     1  UNL1        0.0347
     12 C          -9.5191  -17.2351   21.5815 C.3     1  UNL1        0.0054
     13 C         -10.6041  -16.1994   21.5780 C.3     1  UNL1        0.0004
     14 C         -11.5807  -16.5475   22.6620 C.3     1  UNL1        0.0017
     15 C         -11.0993  -17.7983   23.3354 C.3     1  UNL1        0.0208
     16 C         -11.4053  -18.7866   24.4215 C.3     1  UNL1        0.0689
     17 N         -10.3203  -19.8223   24.4250 N.3     1  UNL1       -0.2972
     18 C          -9.3437  -19.4742   23.3410 C.3     1  UNL1        0.0726
     19 H         -10.7206  -20.7436   24.2475 H       1  UNL1        0.1233
@<TRIPOS>BOND
     1     1     2   ar
     2     2     3   ar
     3     3     4   ar
     4     4     5   ar
     5     5     6   ar
     6    11     6    1
     7    11    12    1
     8    12    13    1
     9    13    14    1
    10    15    14    1
    11    15    16    1
    12    16    17    1
    13    17    18    1
    14     6     7   ar
    15     7     8   ar
    16     8     9   ar
    17     9    10   ar
    18    10     1   ar
    19     9     4   ar
    20    15    11    1
    21    18    11    1
    22    17    19    1
@<TRIPOS>MOLECULE
*****
 19 22 0 0 0
SMALL
GASTEIGER

@<TRIPOS>ATOM
      1 C          -2.5041  -19.4704   20.9834 C.ar    1  UNL1       -0.0000
      2 C          -3.1640  -20.5114   20.1285 C.ar    1  UNL1       -0.0000
      3 C          -4.6557  -20.6665   20.1527 C.ar    1  UNL1       -0.0000
      4 C          -5.4877  -19.7805   21.0319 C.ar    1  UNL1       -0.0003
      5 C          -6.9794  -19.9356   21.0561 C.ar    1  UNL1       -0.0042
      6 C          -7.8114  -19.0496   21.9353 C.ar    1  UNL1       -0.0215
      7 C          -7.1515  -18.0086   22.7903 C.ar    1  UNL1       -0.0042
      8 C          -5.6598  -17.8536   22.7660 C.ar    1  UNL1       -0.0003
      9 C          -4.8278  -18.7396   21.8868 C.ar    1  UNL1       -0.0000
     10 C          -3.3361  -18.5845   21.8626 C.ar    1  UNL1       -0.0000
     11 C          -9.3031  -19.2047   21.9595 C.3     1  UNL1        0.0347
     12 C          -8.7540  -19.8074   23.2184 C.3     1  UNL1        0.0054
     13 C          -9.9063  -20.3349   24.0208 C.3     1  UNL1        0.0004
     14 C         -11.1677  -20.0582   23.2576 C.3     1  UNL1        0.0017
     15 C         -10.7949  -19.3597   21.9837 C.3     1  UNL1        0.0208
     16 C         -11.3440  -18.7570   20.7247 C.3     1  UNL1        0.0689
     17 N         -10.1917  -18.2294   19.9223 N.3     1  UNL1       -0.2972
     18 C          -8.9304  -18.5061   20.6855 C.3     1  UNL1        0.0726
     19 H         -10.2984  -17.2247   19.7826 H       1  UNL1        0.1233
@<TRIPOS>BOND
     1     1     2   ar
     2     2     3   ar
     3     3     4   ar
     4     4     5   ar
     5     5     6   ar
     6    11     6    1
     7    11    12    1
     8    12    13    1
     9    13    14    1
    10    15    14    1
    11    15    16    1
    12    16    17    1
    13    17    18    1
    14     6     7   ar
    15     7     8   ar
    16     8     9   ar
    17     9    10   ar
    18    10     1   ar
    19     9     4   ar
    20    15    11    1
    21    18    11    1
    22    17    19    1
