@<TRIPOS>MOLECULE
*****
 27 30 0 0 0
SMALL
GASTEIGER

@<TRIPOS>ATOM
      1 C          -9.4171  -16.5564   21.1448 C.ar    1  UNL1        0.2454
      2 N         -10.4140  -15.7718   20.3445 N.ar    1  UNL1       -0.1778
      3 C         -11.7732  -16.3442   20.0708 C.ar    1  UNL1        0.2163
      4 N         -12.7702  -15.5595   19.2704 N.pl3   1  UNL1       -0.3274
      5 N         -12.1355  -17.7012   20.5975 N.ar    1  UNL1       -0.2123
      6 C         -11.1386  -18.4857   21.3978 C.ar    1  UNL1        0.1060
      7 C         -11.2101  -19.8385   22.0418 C.ar    1  UNL1        0.0395
      8 C          -9.8951  -20.1022   22.7136 C.ar    1  UNL1        0.0779
      9 N          -9.0109  -18.9124   22.4847 N.ar    1  UNL1       -0.3154
     10 C          -9.7794  -17.9133   21.6715 C.ar    1  UNL1        0.1322
     11 H         -12.5324  -14.6689   18.9248 H       1  UNL1        0.1452
     12 H         -13.6623  -15.9352   19.0908 H       1  UNL1        0.1452
     13 O          -8.0579  -15.9839   21.4185 O.3     1  UNL1       -0.4524
     14 C          -7.9038  -14.8456   22.3831 C.3     1  UNL1        0.2559
     15 C          -8.2666  -16.1652   27.4829 C.3     1  UNL1        0.0754
     16 C          -7.7158  -15.7250   26.1588 C.ar    1  UNL1        0.1546
     17 C          -8.4936  -15.5808   24.8844 C.ar    1  UNL1        0.0573
     18 C          -7.5491  -15.1185   23.8148 C.ar    1  UNL1        0.1440
     19 N          -6.1876  -14.9771   24.4281 N.ar    1  UNL1       -0.0780
     20 O          -6.2907  -15.3519   25.8769 O.2     1  UNL1       -0.3580
     21 C          -7.6049  -18.7501   22.9818 C.3     1  UNL1        0.1520
     22 C          -6.4511  -19.1592   22.1150 C.ar    1  UNL1        0.0818
     23 C          -6.6007  -20.3051   21.1588 C.ar    1  UNL1        0.0167
     24 C          -5.4469  -20.7143   20.2920 C.ar    1  UNL1        0.0029
     25 C          -4.1434  -19.9774   20.3816 C.ar    1  UNL1        0.0207
     26 C          -3.9938  -18.8315   21.3379 C.ar    1  UNL1        0.0985
     27 N          -5.1476  -18.4225   22.2046 N.ar    1  UNL1       -0.2462
@<TRIPOS>BOND
     1    15    16    1
     2    16    17   ar
     3    17    18   ar
     4    18    14    1
     5    14    13    1
     6    13     1    1
     7     1     2   ar
     8     2     3   ar
     9     3     4    1
    10     3     5   ar
    11     5     6   ar
    12     6     7   ar
    13     7     8   ar
    14     8     9   ar
    15     9    21    1
    16    21    22    1
    17    22    23   ar
    18    23    24   ar
    19    24    25   ar
    20    25    26   ar
    21    26    27   ar
    22     9    10   ar
    23    18    19   ar
    24    19    20   ar
    25    20    16   ar
    26    10     1   ar
    27    10     6   ar
    28    27    22   ar
    29     4    11    1
    30     4    12    1
@<TRIPOS>MOLECULE
*****
 27 30 0 0 0
SMALL
GASTEIGER

@<TRIPOS>ATOM
      1 C          -4.5733  -17.6806   22.6494 C.ar    1  UNL1        0.2454
      2 N          -3.2989  -16.8995   22.5240 N.ar    1  UNL1       -0.1778
      3 C          -2.2872  -17.2771   21.4830 C.ar    1  UNL1        0.2163
      4 N          -1.0127  -16.4959   21.3576 N.pl3   1  UNL1       -0.3274
      5 N          -2.5498  -18.4358   20.5673 N.ar    1  UNL1       -0.2123
      6 C          -3.8242  -19.2169   20.6927 C.ar    1  UNL1        0.1060
      7 C          -4.3555  -20.3988   19.9371 C.ar    1  UNL1        0.0395
      8 C          -5.6956  -20.7515   20.5112 C.ar    1  UNL1        0.0779
      9 N          -5.9926  -19.7878   21.6216 N.ar    1  UNL1       -0.3154
     10 C          -4.8360  -18.8393   21.7338 C.ar    1  UNL1        0.1322
     11 H          -0.8403  -15.7354   21.9586 H       1  UNL1        0.1452
     12 H          -0.3487  -16.7437   20.6744 H       1  UNL1        0.1452
     13 O          -5.5851  -17.3030   23.6904 O.3     1  UNL1       -0.4524
     14 C          -6.3461  -16.0165   23.5649 C.3     1  UNL1        0.2559
     15 C         -11.5592  -16.4593   22.8516 C.3     1  UNL1        0.0754
     16 C         -10.1010  -16.2114   22.6017 C.ar    1  UNL1        0.1546
     17 C          -8.9974  -16.3536   23.6076 C.ar    1  UNL1        0.0573
     18 C          -7.7049  -16.0079   22.9296 C.ar    1  UNL1        0.1440
     19 N          -8.0096  -15.6520   21.5046 N.ar    1  UNL1       -0.0780
     20 O          -9.4906  -15.7778   21.3020 O.2     1  UNL1       -0.3580
     21 C          -7.2291  -19.7748   22.4706 C.3     1  UNL1        0.1520
     22 C          -8.5768  -19.6192   21.8306 C.ar    1  UNL1        0.0818
     23 C          -9.8096  -20.0615   22.5616 C.ar    1  UNL1        0.0167
     24 C         -11.1574  -19.9059   21.9217 C.ar    1  UNL1        0.0029
     25 C         -11.2721  -19.3080   20.5507 C.ar    1  UNL1        0.0207
     26 C         -10.0391  -18.8657   19.8198 C.ar    1  UNL1        0.0985
     27 N          -8.6915  -19.0213   20.4598 N.ar    1  UNL1       -0.2462
@<TRIPOS>BOND
     1    15    16    1
     2    16    17   ar
     3    17    18   ar
     4    18    14    1
     5    14    13    1
     6    13     1    1
     7     1     2   ar
     8     2     3   ar
     9     3     4    1
    10     3     5   ar
    11     5     6   ar
    12     6     7   ar
    13     7     8   ar
    14     8     9   ar
    15     9    21    1
    16    21    22    1
    17    22    23   ar
    18    23    24   ar
    19    24    25   ar
    20    25    26   ar
    21    26    27   ar
    22     9    10   ar
    23    18    19   ar
    24    19    20   ar
    25    20    16   ar
    26    10     1   ar
    27    10     6   ar
    28    27    22   ar
    29     4    11    1
    30     4    12    1
@<TRIPOS>MOLECULE
*****
 27 30 0 0 0
SMALL
GASTEIGER

@<TRIPOS>ATOM
      1 C          -6.2218  -18.0637   22.2403 C.ar    1  UNL1        0.2454
      2 N          -5.6844  -19.3528   21.6934 N.ar    1  UNL1       -0.1778
      3 C          -6.5715  -20.2524   20.8850 C.ar    1  UNL1        0.2163
      4 N          -6.0340  -21.5416   20.3380 N.pl3   1  UNL1       -0.3274
      5 N          -7.9963  -19.8628   20.6234 N.ar    1  UNL1       -0.2123
      6 C          -8.5338  -18.5736   21.1703 C.ar    1  UNL1        0.1060
      7 C          -9.8854  -17.9299   21.0771 C.ar    1  UNL1        0.0395
      8 C          -9.8335  -16.6324   21.8280 C.ar    1  UNL1        0.0779
      9 N          -8.4498  -16.4743   22.3852 N.ar    1  UNL1       -0.3154
     10 C          -7.6465  -17.6741   21.9787 C.ar    1  UNL1        0.1322
     11 H          -5.0989  -21.7973   20.5097 H       1  UNL1        0.1452
     12 H          -6.6163  -22.1321   19.8074 H       1  UNL1        0.1452
     13 O          -5.3346  -17.1641   23.0487 O.3     1  UNL1       -0.4524
     14 C          -3.9169  -17.5650   23.3306 C.3     1  UNL1        0.2559
     15 C          -0.0845  -18.2336   19.7603 C.3     1  UNL1        0.0754
     16 C          -1.0822  -17.5932   20.6795 C.ar    1  UNL1        0.1546
     17 C          -2.0349  -18.3140   21.5865 C.ar    1  UNL1        0.0573
     18 C          -2.8437  -17.2859   22.3205 C.ar    1  UNL1        0.1440
     19 N          -2.3909  -15.9297   21.8671 N.ar    1  UNL1       -0.0780
     20 O          -1.3022  -16.1196   20.8529 O.2     1  UNL1       -0.3580
     21 C          -7.9562  -15.3192   23.2050 C.3     1  UNL1        0.1520
     22 C          -7.6372  -15.5126   24.6579 C.ar    1  UNL1        0.0818
     23 C          -8.6231  -16.1972   25.5574 C.ar    1  UNL1        0.0167
     24 C          -8.3042  -16.3907   27.0103 C.ar    1  UNL1        0.0029
     25 C          -6.9992  -15.8996   27.5636 C.ar    1  UNL1        0.0207
     26 C          -6.0133  -15.2150   26.6639 C.ar    1  UNL1        0.0985
     27 N          -6.3323  -15.0216   25.2111 N.ar    1  UNL1       -0.2462
@<TRIPOS>BOND
     1    15    16    1
     2    16    17   ar
     3    17    18   ar
     4    18    14    1
     5    14    13    1
     6    13     1    1
     7     1     2   ar
     8     2     3   ar
     9     3     4    1
    10     3     5   ar
    11     5     6   ar
    12     6     7   ar
    13     7     8   ar
    14     8     9   ar
    15     9    21    1
    16    21    22    1
    17    22    23   ar
    18    23    24   ar
    19    24    25   ar
    20    25    26   ar
    21    26    27   ar
    22     9    10   ar
    23    18    19   ar
    24    19    20   ar
    25    20    16   ar
    26    10     1   ar
    27    10     6   ar
    28    27    22   ar
    29     4    11    1
    30     4    12    1
@<TRIPOS>MOLECULE
*****
 27 30 0 0 0
SMALL
GASTEIGER

@<TRIPOS>ATOM
      1 C          -3.4348  -17.7993   22.2325 C.ar    1  UNL1        0.2454
      2 N          -2.1264  -17.1522   21.8871 N.ar    1  UNL1       -0.1778
      3 C          -1.3740  -17.5874   20.6647 C.ar    1  UNL1        0.2163
      4 N          -0.0655  -16.9402   20.3194 N.pl3   1  UNL1       -0.3274
      5 N          -1.9300  -18.6697   19.7875 N.ar    1  UNL1       -0.2123
      6 C          -3.2384  -19.3169   20.1328 C.ar    1  UNL1        0.1060
      7 C          -4.0296  -20.4010   19.4630 C.ar    1  UNL1        0.0395
      8 C          -5.2710  -20.6358   20.2715 C.ar    1  UNL1        0.0779
      9 N          -5.2471  -19.6968   21.4410 N.ar    1  UNL1       -0.3154
     10 C          -3.9908  -18.8816   21.3553 C.ar    1  UNL1        0.1322
     11 H           0.2994  -16.2298   20.8951 H       1  UNL1        0.1452
     12 H           0.4284  -17.2258   19.5171 H       1  UNL1        0.1452
     13 O          -4.1872  -17.3641   23.4549 O.3     1  UNL1       -0.4524
     14 C          -4.6866  -15.9540   23.5659 C.3     1  UNL1        0.2559
     15 C          -8.2654  -15.2680   27.3872 C.3     1  UNL1        0.0754
     16 C          -7.6197  -15.3532   26.0359 C.ar    1  UNL1        0.1546
     17 C          -6.1862  -15.7013   25.7641 C.ar    1  UNL1        0.0573
     18 C          -5.9747  -15.6686   24.2796 C.ar    1  UNL1        0.1440
     19 N          -7.2775  -15.3002   23.6337 N.ar    1  UNL1       -0.0780
     20 O          -8.2941  -15.1053   24.7193 O.2     1  UNL1       -0.3580
     21 C          -6.2953  -19.5915   22.5087 C.3     1  UNL1        0.1520
     22 C          -7.7481  -19.5834   22.1353 C.ar    1  UNL1        0.0818
     23 C          -8.1660  -19.1623   20.7577 C.ar    1  UNL1        0.0167
     24 C          -9.6187  -19.1542   20.3842 C.ar    1  UNL1        0.0029
     25 C         -10.6535  -19.5673   21.3886 C.ar    1  UNL1        0.0207
     26 C         -10.2356  -19.9884   22.7662 C.ar    1  UNL1        0.0985
     27 N          -8.7829  -19.9965   23.1396 N.ar    1  UNL1       -0.2462
@<TRIPOS>BOND
     1    15    16    1
     2    16    17   ar
     3    17    18   ar
     4    18    14    1
     5    14    13    1
     6    13     1    1
     7     1     2   ar
     8     2     3   ar
     9     3     4    1
    10     3     5   ar
    11     5     6   ar
    12     6     7   ar
    13     7     8   ar
    14     8     9   ar
    15     9    21    1
    16    21    22    1
    17    22    23   ar
    18    23    24   ar
    19    24    25   ar
    20    25    26   ar
    21    26    27   ar
    22     9    10   ar
    23    18    19   ar
    24    19    20   ar
    25    20    16   ar
    26    10     1   ar
    27    10     6   ar
    28    27    22   ar
    29     4    11    1
    30     4    12    1
@<TRIPOS>MOLECULE
*****
 27 30 0 0 0
SMALL
GASTEIGER

@<TRIPOS>ATOM
      1 C          -7.6532  -18.6517   20.7709 C.ar    1  UNL1        0.2454
      2 N          -7.6648  -19.7535   19.7532 N.ar    1  UNL1       -0.1778
      3 C          -8.9453  -20.1279   19.0677 C.ar    1  UNL1        0.2163
      4 N          -8.9569  -21.2298   18.0499 N.pl3   1  UNL1       -0.3274
      5 N         -10.2144  -19.4004   19.3999 N.ar    1  UNL1       -0.2123
      6 C         -10.2028  -18.2986   20.4176 C.ar    1  UNL1        0.1060
      7 C         -11.2890  -17.4098   20.9470 C.ar    1  UNL1        0.0395
      8 C         -10.6796  -16.4861   21.9597 C.ar    1  UNL1        0.0779
      9 N          -9.2169  -16.8040   22.0562 N.ar    1  UNL1       -0.3154
     10 C          -8.9222  -17.9242   21.1031 C.ar    1  UNL1        0.1322
     11 H          -8.1240  -21.7073   17.8319 H       1  UNL1        0.1452
     12 H          -9.7974  -21.4756   17.6000 H       1  UNL1        0.1452
     13 O          -6.3726  -18.2773   21.4564 O.3     1  UNL1       -0.4524
     14 C          -5.3729  -19.3384   21.8096 C.3     1  UNL1        0.2559
     15 C          -1.1707  -17.9765   18.9170 C.3     1  UNL1        0.0754
     16 C          -2.0407  -18.6296   19.9498 C.ar    1  UNL1        0.1546
     17 C          -3.5112  -18.4003   20.1366 C.ar    1  UNL1        0.0573
     18 C          -3.9722  -19.2555   21.2793 C.ar    1  UNL1        0.1440
     19 N          -2.7866  -20.0135   21.7987 N.ar    1  UNL1       -0.0780
     20 O          -1.5929  -19.6266   20.9770 O.2     1  UNL1       -0.3580
     21 C          -8.2233  -16.1215   22.9490 C.3     1  UNL1        0.1520
     22 C          -8.3076  -16.2962   24.4364 C.ar    1  UNL1        0.0818
     23 C          -7.5326  -15.3871   25.3433 C.ar    1  UNL1        0.0167
     24 C          -7.6168  -15.5617   26.8308 C.ar    1  UNL1        0.0029
     25 C          -8.4761  -16.6456   27.4111 C.ar    1  UNL1        0.0207
     26 C          -9.2512  -17.5548   26.5041 C.ar    1  UNL1        0.0985
     27 N          -9.1669  -17.3801   25.0168 N.ar    1  UNL1       -0.2462
@<TRIPOS>BOND
     1    15    16    1
     2    16    17   ar
     3    17    18   ar
     4    18    14    1
     5    14    13    1
     6    13     1    1
     7     1     2   ar
     8     2     3   ar
     9     3     4    1
    10     3     5   ar
    11     5     6   ar
    12     6     7   ar
    13     7     8   ar
    14     8     9   ar
    15     9    21    1
    16    21    22    1
    17    22    23   ar
    18    23    24   ar
    19    24    25   ar
    20    25    26   ar
    21    26    27   ar
    22     9    10   ar
    23    18    19   ar
    24    19    20   ar
    25    20    16   ar
    26    10     1   ar
    27    10     6   ar
    28    27    22   ar
    29     4    11    1
    30     4    12    1
@<TRIPOS>MOLECULE
*****
 27 30 0 0 0
SMALL
GASTEIGER

@<TRIPOS>ATOM
      1 C         -10.2518  -17.3792   22.1640 C.ar    1  UNL1        0.2454
      2 N         -11.6362  -17.1139   22.6767 N.ar    1  UNL1       -0.1778
      3 C         -12.2864  -18.0844   23.6174 C.ar    1  UNL1        0.2163
      4 N         -13.6710  -17.8190   24.1301 N.pl3   1  UNL1       -0.3274
      5 N         -11.5523  -19.3205   24.0455 N.ar    1  UNL1       -0.2123
      6 C         -10.1678  -19.5858   23.5328 C.ar    1  UNL1        0.1060
      7 C          -9.2055  -20.7102   23.7771 C.ar    1  UNL1        0.0395
      8 C          -7.9604  -20.4344   22.9873 C.ar    1  UNL1        0.0779
      9 N          -8.1533  -19.1397   22.2549 N.ar    1  UNL1       -0.3154
     10 C          -9.5176  -18.6152   22.5921 C.ar    1  UNL1        0.1322
     11 H         -14.1528  -17.0078   23.8492 H       1  UNL1        0.1452
     12 H         -14.0978  -18.4561   24.7476 H       1  UNL1        0.1452
     13 O          -9.6015  -16.4086   21.2232 O.3     1  UNL1       -0.4524
     14 C          -8.8163  -15.2509   21.7646 C.3     1  UNL1        0.2559
     15 C          -7.6614  -15.7443   26.8933 C.3     1  UNL1        0.0754
     16 C          -7.5216  -15.6238   25.4046 C.ar    1  UNL1        0.1546
     17 C          -8.6464  -15.4860   24.4218 C.ar    1  UNL1        0.0573
     18 C          -8.0525  -15.3970   23.0473 C.ar    1  UNL1        0.1440
     19 N          -6.5608  -15.4798   23.1806 N.ar    1  UNL1       -0.0780
     20 O          -6.2327  -15.6200   24.6375 O.2     1  UNL1       -0.3580
     21 C          -7.1568  -18.4845   21.3451 C.3     1  UNL1        0.1520
     22 C          -5.7207  -18.9168   21.3701 C.ar    1  UNL1        0.0818
     23 C          -5.2110  -19.8848   20.3439 C.ar    1  UNL1        0.0167
     24 C          -3.7749  -20.3172   20.3688 C.ar    1  UNL1        0.0029
     25 C          -2.8485  -19.7815   21.4200 C.ar    1  UNL1        0.0207
     26 C          -3.3583  -18.8135   22.4461 C.ar    1  UNL1        0.0985
     27 N          -4.7943  -18.3812   22.4212 N.ar    1  UNL1       -0.2462
@<TRIPOS>BOND
     1    15    16    1
     2    16    17   ar
     3    17    18   ar
     4    18    14    1
     5    14    13    1
     6    13     1    1
     7     1     2   ar
     8     2     3   ar
     9     3     4    1
    10     3     5   ar
    11     5     6   ar
    12     6     7   ar
    13     7     8   ar
    14     8     9   ar
    15     9    21    1
    16    21    22    1
    17    22    23   ar
    18    23    24   ar
    19    24    25   ar
    20    25    26   ar
    21    26    27   ar
    22     9    10   ar
    23    18    19   ar
    24    19    20   ar
    25    20    16   ar
    26    10     1   ar
    27    10     6   ar
    28    27    22   ar
    29     4    11    1
    30     4    12    1
@<TRIPOS>MOLECULE
*****
 27 30 0 0 0
SMALL
GASTEIGER

@<TRIPOS>ATOM
      1 C          -8.7780  -19.4404   21.5135 C.ar    1  UNL1        0.2454
      2 N          -8.5014  -20.0316   20.1630 N.ar    1  UNL1       -0.1778
      3 C          -9.5022  -19.8755   19.0567 C.ar    1  UNL1        0.2163
      4 N          -9.2255  -20.4667   17.7061 N.pl3   1  UNL1       -0.3274
      5 N         -10.7797  -19.1283   19.3009 N.ar    1  UNL1       -0.2123
      6 C         -11.0564  -18.5371   20.6515 C.ar    1  UNL1        0.1060
      7 C         -12.2190  -17.7540   21.1852 C.ar    1  UNL1        0.0395
      8 C         -11.9367  -17.4261   22.6214 C.ar    1  UNL1        0.0779
      9 N         -10.5996  -18.0065   22.9753 N.ar    1  UNL1       -0.3154
     10 C         -10.0555  -18.6932   21.7578 C.ar    1  UNL1        0.1322
     11 H          -8.3871  -20.9572   17.5458 H       1  UNL1        0.1452
     12 H          -9.8824  -20.3643   16.9800 H       1  UNL1        0.1452
     13 O          -7.7772  -19.5965   22.6199 O.3     1  UNL1       -0.4524
     14 C          -6.4587  -20.2592   22.3505 C.3     1  UNL1        0.2559
     15 C          -2.5040  -18.6344   19.2518 C.3     1  UNL1        0.0754
     16 C          -3.4994  -18.7130   20.3713 C.ar    1  UNL1        0.1546
     17 C          -4.5473  -19.7719   20.5466 C.ar    1  UNL1        0.0573
     18 C          -5.3172  -19.4599   21.7955 C.ar    1  UNL1        0.1440
     19 N          -4.7451  -18.2081   22.3921 N.ar    1  UNL1       -0.0780
     20 O          -3.6217  -17.7466   21.5118 O.2     1  UNL1       -0.3580
     21 C          -9.9251  -17.9161   24.3120 C.3     1  UNL1        0.1520
     22 C          -8.8223  -16.9229   24.5301 C.ar    1  UNL1        0.0818
     23 C          -8.4876  -16.4670   25.9192 C.ar    1  UNL1        0.0167
     24 C          -7.3848  -15.4737   26.1373 C.ar    1  UNL1        0.0029
     25 C          -6.6169  -14.9366   24.9661 C.ar    1  UNL1        0.0207
     26 C          -6.9517  -15.3926   23.5769 C.ar    1  UNL1        0.0985
     27 N          -8.0544  -16.3858   23.3589 N.ar    1  UNL1       -0.2462
@<TRIPOS>BOND
     1    15    16    1
     2    16    17   ar
     3    17    18   ar
     4    18    14    1
     5    14    13    1
     6    13     1    1
     7     1     2   ar
     8     2     3   ar
     9     3     4    1
    10     3     5   ar
    11     5     6   ar
    12     6     7   ar
    13     7     8   ar
    14     8     9   ar
    15     9    21    1
    16    21    22    1
    17    22    23   ar
    18    23    24   ar
    19    24    25   ar
    20    25    26   ar
    21    26    27   ar
    22     9    10   ar
    23    18    19   ar
    24    19    20   ar
    25    20    16   ar
    26    10     1   ar
    27    10     6   ar
    28    27    22   ar
    29     4    11    1
    30     4    12    1
@<TRIPOS>MOLECULE
*****
 27 30 0 0 0
SMALL
GASTEIGER

@<TRIPOS>ATOM
      1 C          -5.2436  -17.8749   22.2018 C.ar    1  UNL1        0.2454
      2 N          -3.7937  -17.6689   22.5261 N.ar    1  UNL1       -0.1778
      3 C          -2.7688  -18.6474   22.0345 C.ar    1  UNL1        0.2163
      4 N          -1.3187  -18.4413   22.3588 N.pl3   1  UNL1       -0.3274
      5 N          -3.1937  -19.8322   21.2185 N.ar    1  UNL1       -0.2123
      6 C          -4.6437  -20.0383   20.8942 C.ar    1  UNL1        0.1060
      7 C          -5.3564  -21.1044   20.1161 C.ar    1  UNL1        0.0395
      8 C          -6.8219  -20.7847   20.1270 C.ar    1  UNL1        0.0779
      9 N          -7.0149  -19.5210   20.9117 N.ar    1  UNL1       -0.3154
     10 C          -5.6686  -19.0597   21.3859 C.ar    1  UNL1        0.1322
     11 H          -1.0398  -17.6638   22.8943 H       1  UNL1        0.1452
     12 H          -0.6460  -19.0836   22.0361 H       1  UNL1        0.1452
     13 O          -6.2686  -16.8963   22.6935 O.3     1  UNL1       -0.4524
     14 C          -5.8412  -15.6993   23.4900 C.3     1  UNL1        0.2559
     15 C          -8.8256  -15.1587   27.8123 C.3     1  UNL1        0.0754
     16 C          -7.6383  -15.3119   26.9085 C.ar    1  UNL1        0.1546
     17 C          -7.6770  -15.4226   25.4131 C.ar    1  UNL1        0.0573
     18 C          -6.2666  -15.5603   24.9218 C.ar    1  UNL1        0.1440
     19 N          -5.3560  -15.5346   26.1135 N.ar    1  UNL1       -0.0780
     20 O          -6.2039  -15.3810   27.3413 O.2     1  UNL1       -0.3580
     21 C          -8.3242  -18.8384   21.1759 C.3     1  UNL1        0.1520
     22 C          -8.9853  -18.9767   22.5152 C.ar    1  UNL1        0.0818
     23 C          -9.5925  -17.7766   23.1793 C.ar    1  UNL1        0.0167
     24 C         -10.2537  -17.9148   24.5186 C.ar    1  UNL1        0.0029
     25 C         -10.3076  -19.2533   25.1938 C.ar    1  UNL1        0.0207
     26 C          -9.7003  -20.4534   24.5296 C.ar    1  UNL1        0.0985
     27 N          -9.0392  -20.3151   23.1904 N.ar    1  UNL1       -0.2462
@<TRIPOS>BOND
     1    15    16    1
     2    16    17   ar
     3    17    18   ar
     4    18    14    1
     5    14    13    1
     6    13     1    1
     7     1     2   ar
     8     2     3   ar
     9     3     4    1
    10     3     5   ar
    11     5     6   ar
    12     6     7   ar
    13     7     8   ar
    14     8     9   ar
    15     9    21    1
    16    21    22    1
    17    22    23   ar
    18    23    24   ar
    19    24    25   ar
    20    25    26   ar
    21    26    27   ar
    22     9    10   ar
    23    18    19   ar
    24    19    20   ar
    25    20    16   ar
    26    10     1   ar
    27    10     6   ar
    28    27    22   ar
    29     4    11    1
    30     4    12    1
@<TRIPOS>MOLECULE
*****
 27 30 0 0 0
SMALL
GASTEIGER

@<TRIPOS>ATOM
      1 C          -6.2308  -18.0233   21.9171 C.ar    1  UNL1        0.2454
      2 N          -4.8123  -18.5107   21.9001 N.ar    1  UNL1       -0.1778
      3 C          -4.4294  -19.6742   21.0344 C.ar    1  UNL1        0.2163
      4 N          -3.0108  -20.1616   21.0174 N.pl3   1  UNL1       -0.3274
      5 N          -5.4650  -20.3505   20.1857 N.ar    1  UNL1       -0.2123
      6 C          -6.8835  -19.8631   20.2027 C.ar    1  UNL1        0.1060
      7 C          -8.1126  -20.3263   19.4785 C.ar    1  UNL1        0.0395
      8 C          -9.2552  -19.4490   19.8966 C.ar    1  UNL1        0.0779
      9 N          -8.7322  -18.4436   20.8792 N.ar    1  UNL1       -0.3154
     10 C          -7.2664  -18.6995   21.0684 C.ar    1  UNL1        0.1322
     11 H          -2.3311  -19.7178   21.5744 H       1  UNL1        0.1452
     12 H          -2.7595  -20.9253   20.4492 H       1  UNL1        0.1452
     13 O          -6.6137  -16.8597   22.7828 O.3     1  UNL1       -0.4524
     14 C          -5.6189  -16.2814   23.7451 C.3     1  UNL1        0.2559
     15 C          -8.6554  -15.0297   27.8796 C.3     1  UNL1        0.0754
     16 C          -7.4787  -15.1432   26.9561 C.ar    1  UNL1        0.1546
     17 C          -7.4585  -15.8582   25.6377 C.ar    1  UNL1        0.0573
     18 C          -6.0831  -15.7186   25.0558 C.ar    1  UNL1        0.1440
     19 N          -5.2532  -14.9174   26.0146 N.ar    1  UNL1       -0.0780
     20 O          -6.1158  -14.5618   27.1891 O.2     1  UNL1       -0.3580
     21 C          -9.5343  -17.3707   21.5542 C.3     1  UNL1        0.1520
     22 C         -10.6402  -17.7419   22.4970 C.ar    1  UNL1        0.0818
     23 C         -10.3434  -18.5691   23.7126 C.ar    1  UNL1        0.0167
     24 C         -11.4493  -18.9404   24.6555 C.ar    1  UNL1        0.0029
     25 C         -12.8521  -18.4845   24.3827 C.ar    1  UNL1        0.0207
     26 C         -13.1489  -17.6573   23.1671 C.ar    1  UNL1        0.0985
     27 N         -12.0430  -17.2861   22.2243 N.ar    1  UNL1       -0.2462
@<TRIPOS>BOND
     1    15    16    1
     2    16    17   ar
     3    17    18   ar
     4    18    14    1
     5    14    13    1
     6    13     1    1
     7     1     2   ar
     8     2     3   ar
     9     3     4    1
    10     3     5   ar
    11     5     6   ar
    12     6     7   ar
    13     7     8   ar
    14     8     9   ar
    15     9    21    1
    16    21    22    1
    17    22    23   ar
    18    23    24   ar
    19    24    25   ar
    20    25    26   ar
    21    26    27   ar
    22     9    10   ar
    23    18    19   ar
    24    19    20   ar
    25    20    16   ar
    26    10     1   ar
    27    10     6   ar
    28    27    22   ar
    29     4    11    1
    30     4    12    1
