@<TRIPOS>MOLECULE
*****
 41 45 0 0 0
SMALL
GASTEIGER

@<TRIPOS>ATOM
      1 C           1.6985    1.5294   19.9760 C.ar    1  UNL1        0.0014
      2 C           0.6010    2.1201   19.1414 C.ar    1  UNL1        0.0032
      3 C          -0.3568    3.1023   19.7481 C.ar    1  UNL1        0.0388
      4 C          -0.2170    3.4937   21.1894 C.ar    1  UNL1        0.1586
      5 C           0.8806    2.9030   22.0240 C.ar    1  UNL1        0.0865
      6 C           1.8383    1.9209   21.4173 C.ar    1  UNL1        0.0178
      7 C           4.5718   -1.4170   18.1559 C.ar    1  UNL1        0.1397
      8 C           4.5159   -0.0088   17.6423 C.ar    1  UNL1        0.0369
      9 C           3.5581    0.9733   18.2489 C.ar    1  UNL1        0.0031
     10 C           2.6563    0.5473   19.3693 C.ar    1  UNL1        0.0003
     11 C           2.7122   -0.8609   19.8830 C.ar    1  UNL1        0.0042
     12 C           3.6700   -1.8431   19.2762 C.ar    1  UNL1        0.0479
     13 C           3.7259   -3.2513   19.7899 C.2     1  UNL1        0.0758
     14 O           3.1204   -4.3661   18.9896 O.co2   1  UNL1       -0.5445
     15 O           4.3875   -3.5446   21.1038 O.co2   1  UNL1       -0.5445
     16 C           6.9495   -2.4564   18.0292 C.3     1  UNL1        0.2525
     17 O           5.5295   -2.3991   17.5492 O.3     1  UNL1       -0.4714
     18 N           1.0203    3.2945   23.4652 N.am    1  UNL1       -0.2656
     19 C           0.6865    2.3092   24.5458 C.2     1  UNL1        0.3083
     20 O           0.2129    0.9324   24.1851 O.2     1  UNL1       -0.2521
     21 N           0.8263    2.7006   25.9870 N.am    1  UNL1       -0.2673
     22 H           1.3312    4.1981   23.7019 H       1  UNL1        0.1565
     23 H           1.1371    3.6043   26.2238 H       1  UNL1        0.1564
     24 C           0.4925    1.7153   27.0676 C.ar    1  UNL1        0.0622
     25 C          -0.9255    1.5642   27.5329 C.ar    1  UNL1        0.0156
     26 C          -1.2593    0.5789   28.6135 C.ar    1  UNL1        0.0013
     27 C          -0.1752   -0.2553   29.2288 C.ar    1  UNL1        0.0009
     28 C           1.2428   -0.1042   28.7636 C.ar    1  UNL1        0.0126
     29 C           1.5766    0.8811   27.6830 C.ar    1  UNL1        0.0711
     30 CL          2.9946    1.0322   27.2177 Cl      1  UNL1       -0.0810
     31 O          -1.1748    4.4759   21.7961 O.3     1  UNL1       -0.4526
     32 C          -2.5582    4.0378   22.1756 C.ar    1  UNL1        0.1410
     33 C          -3.5082    3.5552   21.1199 C.ar    1  UNL1        0.0371
     34 C          -4.8917    3.1171   21.4994 C.ar    1  UNL1        0.0028
     35 C          -5.3252    3.1616   22.9347 C.ar    1  UNL1       -0.0044
     36 C          -4.3752    3.6442   23.9905 C.ar    1  UNL1       -0.0232
     37 C          -2.9917    4.0823   23.6110 C.ar    1  UNL1        0.0084
     38 C          -2.0418    4.5649   24.6667 C.3     1  UNL1        0.0291
     39 C          -2.4753    4.6094   26.1020 C.3     1  UNL1        0.0051
     40 C          -3.8588    4.1713   26.4815 C.3     1  UNL1        0.0050
     41 C          -4.8087    3.6887   25.4258 C.3     1  UNL1        0.0261
@<TRIPOS>UNITY_ATOM_ATTR
14 1
charge -1
@<TRIPOS>BOND
     1    16    17    1
     2    17     7    1
     3     7     8   ar
     4     8     9   ar
     5     9    10   ar
     6    10     1    1
     7     1     2   ar
     8     2     3   ar
     9     3     4   ar
    10     4    31    1
    11    31    32    1
    12    32    33   ar
    13    33    34   ar
    14    34    35   ar
    15    35    36   ar
    16    36    37   ar
    17    37    38    1
    18    38    39    1
    19    39    40    1
    20    40    41    1
    21     4     5   ar
    22     5    18    1
    23    18    19   am
    24    19    20    2
    25    19    21   am
    26    21    24    1
    27    24    25   ar
    28    25    26   ar
    29    26    27   ar
    30    27    28   ar
    31    28    29   ar
    32    29    30    1
    33     5     6   ar
    34    10    11   ar
    35    11    12   ar
    36    12    13    1
    37    13    14   ar
    38    13    15   ar
    39    12     7   ar
    40     6     1   ar
    41    37    32   ar
    42    29    24   ar
    43    41    36    1
    44    18    22    1
    45    21    23    1
@<TRIPOS>MOLECULE
*****
 41 45 0 0 0
SMALL
GASTEIGER

@<TRIPOS>ATOM
      1 C           5.6566    0.3919   34.7604 C.ar    1  UNL1        0.0014
      2 C           7.0549    0.2787   34.2294 C.ar    1  UNL1        0.0032
      3 C           7.2970   -0.3207   32.8758 C.ar    1  UNL1        0.0388
      4 C           6.1408   -0.8068   32.0532 C.ar    1  UNL1        0.1586
      5 C           4.7424   -0.6936   32.5842 C.ar    1  UNL1        0.0865
      6 C           4.5004   -0.0943   33.9377 C.ar    1  UNL1        0.0178
      7 C           4.9306    2.1900   38.8211 C.ar    1  UNL1        0.1397
      8 C           6.2979    2.2513   38.2073 C.ar    1  UNL1        0.0369
      9 C           6.5399    1.6519   36.8537 C.ar    1  UNL1        0.0031
     10 C           5.4146    0.9912   36.1139 C.ar    1  UNL1        0.0003
     11 C           4.0473    0.9299   36.7277 C.ar    1  UNL1        0.0042
     12 C           3.8053    1.5293   38.0814 C.ar    1  UNL1        0.0479
     13 C           2.4381    1.4680   38.6952 C.2     1  UNL1        0.0758
     14 O           1.3457    2.3596   38.1838 O.co2   1  UNL1       -0.5445
     15 O           2.1632    0.5150   39.8205 O.co2   1  UNL1       -0.5445
     16 C           4.3187    4.2378   40.2983 C.3     1  UNL1        0.2525
     17 O           4.6886    2.7893   40.1747 O.3     1  UNL1       -0.4714
     18 N           3.5861   -1.1798   31.7616 N.am    1  UNL1       -0.2656
     19 C           3.0041   -0.3021   30.6934 C.2     1  UNL1        0.3083
     20 O           3.5783    1.0616   30.4479 O.2     1  UNL1       -0.2521
     21 N           1.8478   -0.7883   29.8708 N.am    1  UNL1       -0.2673
     22 H           3.2093   -2.0749   31.9227 H       1  UNL1        0.1565
     23 H           1.4710   -1.6834   30.0320 H       1  UNL1        0.1564
     24 C           1.2658    0.0893   28.8027 C.ar    1  UNL1        0.0622
     25 C          -0.0443    0.7826   29.0330 C.ar    1  UNL1        0.0156
     26 C          -0.6264    1.6603   27.9648 C.ar    1  UNL1        0.0013
     27 C           0.1017    1.8446   26.6663 C.ar    1  UNL1        0.0009
     28 C           1.4118    1.1513   26.4361 C.ar    1  UNL1        0.0126
     29 C           1.9938    0.2737   27.5042 C.ar    1  UNL1        0.0711
     30 CL          3.3039   -0.4195   27.2739 Cl      1  UNL1       -0.0810
     31 O           6.3828   -1.4062   30.6996 O.3     1  UNL1       -0.4526
     32 C           6.5916   -2.8850   30.5607 C.ar    1  UNL1        0.1410
     33 C           6.7426   -3.7394   31.7842 C.ar    1  UNL1        0.0371
     34 C           6.9514   -5.2183   31.6453 C.ar    1  UNL1        0.0028
     35 C           7.0092   -5.8428   30.2827 C.ar    1  UNL1       -0.0044
     36 C           6.8581   -4.9884   29.0590 C.ar    1  UNL1       -0.0232
     37 C           6.6493   -3.5096   29.1980 C.ar    1  UNL1        0.0084
     38 C           6.4983   -2.6552   27.9744 C.3     1  UNL1        0.0291
     39 C           6.5560   -3.2797   26.6119 C.3     1  UNL1        0.0051
     40 C           6.7648   -4.7586   26.4729 C.3     1  UNL1        0.0050
     41 C           6.9158   -5.6129   27.6965 C.3     1  UNL1        0.0261
@<TRIPOS>UNITY_ATOM_ATTR
14 1
charge -1
@<TRIPOS>BOND
     1    16    17    1
     2    17     7    1
     3     7     8   ar
     4     8     9   ar
     5     9    10   ar
     6    10     1    1
     7     1     2   ar
     8     2     3   ar
     9     3     4   ar
    10     4    31    1
    11    31    32    1
    12    32    33   ar
    13    33    34   ar
    14    34    35   ar
    15    35    36   ar
    16    36    37   ar
    17    37    38    1
    18    38    39    1
    19    39    40    1
    20    40    41    1
    21     4     5   ar
    22     5    18    1
    23    18    19   am
    24    19    20    2
    25    19    21   am
    26    21    24    1
    27    24    25   ar
    28    25    26   ar
    29    26    27   ar
    30    27    28   ar
    31    28    29   ar
    32    29    30    1
    33     5     6   ar
    34    10    11   ar
    35    11    12   ar
    36    12    13    1
    37    13    14   ar
    38    13    15   ar
    39    12     7   ar
    40     6     1   ar
    41    37    32   ar
    42    29    24   ar
    43    41    36    1
    44    18    22    1
    45    21    23    1
@<TRIPOS>MOLECULE
*****
 41 45 0 0 0
SMALL
GASTEIGER

@<TRIPOS>ATOM
      1 C           2.1022    0.7216   21.3869 C.ar    1  UNL1        0.0014
      2 C           1.9180    2.0052   20.6330 C.ar    1  UNL1        0.0032
      3 C           1.0489    3.0892   21.1985 C.ar    1  UNL1        0.0388
      4 C           0.3639    2.8894   22.5179 C.ar    1  UNL1        0.1586
      5 C           0.5480    1.6057   23.2718 C.ar    1  UNL1        0.0865
      6 C           1.4171    0.5219   22.7063 C.ar    1  UNL1        0.0178
      7 C           4.7095   -2.5300   19.6903 C.ar    1  UNL1        0.1397
      8 C           4.1883   -2.6416   21.0924 C.ar    1  UNL1        0.0369
      9 C           3.3192   -1.5577   21.6580 C.ar    1  UNL1        0.0031
     10 C           2.9713   -0.3622   20.8214 C.ar    1  UNL1        0.0003
     11 C           3.4925   -0.2507   19.4193 C.ar    1  UNL1        0.0042
     12 C           4.3616   -1.3346   18.8538 C.ar    1  UNL1        0.0479
     13 C           4.8828   -1.2231   17.4517 C.2     1  UNL1        0.0758
     14 O           6.3607   -1.2499   17.1965 O.co2   1  UNL1       -0.5445
     15 O           3.9261   -1.0846   16.3046 O.co2   1  UNL1       -0.5445
     16 C           4.9674   -4.9088   18.6779 C.3     1  UNL1        0.2525
     17 O           5.5786   -3.6139   19.1248 O.3     1  UNL1       -0.4714
     18 N          -0.1370    1.4060   24.5913 N.am    1  UNL1       -0.2656
     19 C           0.6716    1.3314   25.8524 C.2     1  UNL1        0.3083
     20 O           2.1652    1.4565   25.7941 O.2     1  UNL1       -0.2521
     21 N          -0.0134    1.1316   27.1718 N.am    1  UNL1       -0.2673
     22 H          -1.1173    1.3238   24.6295 H       1  UNL1        0.1565
     23 H          -0.9937    1.0495   27.2101 H       1  UNL1        0.1564
     24 C           0.7952    1.0570   28.4330 C.ar    1  UNL1        0.0622
     25 C           1.3613   -0.2567   28.8844 C.ar    1  UNL1        0.0156
     26 C           2.1699   -0.3312   30.1456 C.ar    1  UNL1        0.0013
     27 C           2.4125    0.9079   30.9554 C.ar    1  UNL1        0.0009
     28 C           1.8464    2.2216   30.5040 C.ar    1  UNL1        0.0126
     29 C           1.0378    2.2962   29.2428 C.ar    1  UNL1        0.0711
     30 CL          0.4717    3.6099   28.7914 Cl      1  UNL1       -0.0810
     31 O          -0.5052    3.9733   23.0835 O.3     1  UNL1       -0.4526
     32 C          -1.9981    3.8307   23.0517 C.ar    1  UNL1        0.1410
     33 C          -2.6962    3.5389   21.7565 C.ar    1  UNL1        0.0371
     34 C          -4.1891    3.3964   21.7247 C.ar    1  UNL1        0.0028
     35 C          -4.9838    3.5457   22.9881 C.ar    1  UNL1       -0.0044
     36 C          -4.2857    3.8375   24.2833 C.ar    1  UNL1       -0.0232
     37 C          -2.7928    3.9800   24.3151 C.ar    1  UNL1        0.0084
     38 C          -2.0947    4.2718   25.6102 C.3     1  UNL1        0.0291
     39 C          -2.8894    4.4211   26.8736 C.3     1  UNL1        0.0051
     40 C          -4.3823    4.2786   26.8418 C.3     1  UNL1        0.0050
     41 C          -5.0804    3.9867   25.5466 C.3     1  UNL1        0.0261
@<TRIPOS>UNITY_ATOM_ATTR
14 1
charge -1
@<TRIPOS>BOND
     1    16    17    1
     2    17     7    1
     3     7     8   ar
     4     8     9   ar
     5     9    10   ar
     6    10     1    1
     7     1     2   ar
     8     2     3   ar
     9     3     4   ar
    10     4    31    1
    11    31    32    1
    12    32    33   ar
    13    33    34   ar
    14    34    35   ar
    15    35    36   ar
    16    36    37   ar
    17    37    38    1
    18    38    39    1
    19    39    40    1
    20    40    41    1
    21     4     5   ar
    22     5    18    1
    23    18    19   am
    24    19    20    2
    25    19    21   am
    26    21    24    1
    27    24    25   ar
    28    25    26   ar
    29    26    27   ar
    30    27    28   ar
    31    28    29   ar
    32    29    30    1
    33     5     6   ar
    34    10    11   ar
    35    11    12   ar
    36    12    13    1
    37    13    14   ar
    38    13    15   ar
    39    12     7   ar
    40     6     1   ar
    41    37    32   ar
    42    29    24   ar
    43    41    36    1
    44    18    22    1
    45    21    23    1
@<TRIPOS>MOLECULE
*****
 41 45 0 0 0
SMALL
GASTEIGER

@<TRIPOS>ATOM
      1 C           1.8620    1.4814   19.6317 C.ar    1  UNL1        0.0014
      2 C           0.8255    2.0212   18.6914 C.ar    1  UNL1        0.0032
      3 C          -0.1691    3.0354   19.1735 C.ar    1  UNL1        0.0388
      4 C          -0.1271    3.5096   20.5959 C.ar    1  UNL1        0.1586
      5 C           0.9095    2.9697   21.5362 C.ar    1  UNL1        0.0865
      6 C           1.9040    1.9556   21.0541 C.ar    1  UNL1        0.0178
      7 C           4.8457   -1.5609   18.1852 C.ar    1  UNL1        0.1397
      8 C           4.8832   -0.1601   17.6498 C.ar    1  UNL1        0.0369
      9 C           3.8887    0.8539   18.1319 C.ar    1  UNL1        0.0031
     10 C           2.8566    0.4673   19.1495 C.ar    1  UNL1        0.0003
     11 C           2.8191   -0.9334   19.6849 C.ar    1  UNL1        0.0042
     12 C           3.8137   -1.9475   19.2027 C.ar    1  UNL1        0.0479
     13 C           3.7762   -3.3482   19.7381 C.2     1  UNL1        0.0758
     14 O           3.0640   -4.4245   18.9736 O.co2   1  UNL1       -0.5445
     15 O           4.4509   -3.6726   21.0379 O.co2   1  UNL1       -0.5445
     16 C           7.2469   -2.5522   18.2235 C.3     1  UNL1        0.2525
     17 O           5.8402   -2.5749   17.7030 O.3     1  UNL1       -0.4714
     18 N           0.9514    3.4440   22.9587 N.am    1  UNL1       -0.2656
     19 C           0.7078    2.4770   24.0791 C.2     1  UNL1        0.3083
     20 O           0.4222    1.0357   23.7772 O.2     1  UNL1       -0.2521
     21 N           0.7498    2.9512   25.5016 N.am    1  UNL1       -0.2673
     22 H           1.1389    4.3899   23.1568 H       1  UNL1        0.1565
     23 H           0.9372    3.8972   25.6998 H       1  UNL1        0.1564
     24 C           0.5061    1.9842   26.6221 C.ar    1  UNL1        0.0622
     25 C          -0.8837    1.7812   27.1487 C.ar    1  UNL1        0.0156
     26 C          -1.1273    0.8142   28.2693 C.ar    1  UNL1        0.0013
     27 C           0.0188    0.0502   28.8631 C.ar    1  UNL1        0.0009
     28 C           1.4086    0.2532   28.3364 C.ar    1  UNL1        0.0126
     29 C           1.6523    1.2202   27.2160 C.ar    1  UNL1        0.0711
     30 CL          3.0420    1.4232   26.6893 Cl      1  UNL1       -0.0810
     31 O          -1.1216    4.5237   21.0781 O.3     1  UNL1       -0.4526
     32 C          -2.4786    4.0824   21.5406 C.ar    1  UNL1        0.1410
     33 C          -2.7309    3.8371   22.9987 C.ar    1  UNL1        0.0371
     34 C          -4.0879    3.3958   23.4611 C.ar    1  UNL1        0.0028
     35 C          -5.1925    3.1998   22.4655 C.ar    1  UNL1       -0.0044
     36 C          -4.9402    3.4451   21.0073 C.ar    1  UNL1       -0.0232
     37 C          -3.5833    3.8864   20.5448 C.ar    1  UNL1        0.0084
     38 C          -3.3309    4.1317   19.0867 C.3     1  UNL1        0.0291
     39 C          -4.4356    3.9357   18.0911 C.3     1  UNL1        0.0051
     40 C          -5.7926    3.4944   18.5536 C.3     1  UNL1        0.0050
     41 C          -6.0449    3.2491   20.0117 C.3     1  UNL1        0.0261
@<TRIPOS>UNITY_ATOM_ATTR
14 1
charge -1
@<TRIPOS>BOND
     1    16    17    1
     2    17     7    1
     3     7     8   ar
     4     8     9   ar
     5     9    10   ar
     6    10     1    1
     7     1     2   ar
     8     2     3   ar
     9     3     4   ar
    10     4    31    1
    11    31    32    1
    12    32    33   ar
    13    33    34   ar
    14    34    35   ar
    15    35    36   ar
    16    36    37   ar
    17    37    38    1
    18    38    39    1
    19    39    40    1
    20    40    41    1
    21     4     5   ar
    22     5    18    1
    23    18    19   am
    24    19    20    2
    25    19    21   am
    26    21    24    1
    27    24    25   ar
    28    25    26   ar
    29    26    27   ar
    30    27    28   ar
    31    28    29   ar
    32    29    30    1
    33     5     6   ar
    34    10    11   ar
    35    11    12   ar
    36    12    13    1
    37    13    14   ar
    38    13    15   ar
    39    12     7   ar
    40     6     1   ar
    41    37    32   ar
    42    29    24   ar
    43    41    36    1
    44    18    22    1
    45    21    23    1
@<TRIPOS>MOLECULE
*****
 41 45 0 0 0
SMALL
GASTEIGER

@<TRIPOS>ATOM
      1 C           3.0096   -0.1987   23.0783 C.ar    1  UNL1        0.0014
      2 C           1.6659    0.4596   22.9733 C.ar    1  UNL1        0.0032
      3 C           1.1852    1.3624   24.0706 C.ar    1  UNL1        0.0388
      4 C           2.0483    1.6070   25.2727 C.ar    1  UNL1        0.1586
      5 C           3.3921    0.9487   25.3777 C.ar    1  UNL1        0.0865
      6 C           3.8727    0.0458   24.2805 C.ar    1  UNL1        0.0178
      7 C           4.4514   -2.9072   19.7866 C.ar    1  UNL1        0.1397
      8 C           3.1642   -2.1535   19.6280 C.ar    1  UNL1        0.0369
      9 C           2.6836   -1.2507   20.7252 C.ar    1  UNL1        0.0031
     10 C           3.4902   -1.1015   21.9811 C.ar    1  UNL1        0.0003
     11 C           4.7774   -1.8552   22.1397 C.ar    1  UNL1        0.0042
     12 C           5.2580   -2.7581   21.0425 C.ar    1  UNL1        0.0479
     13 C           6.5451   -3.5118   21.2011 C.2     1  UNL1        0.0758
     14 O           6.6490   -4.6140   22.2131 O.co2   1  UNL1       -0.5445
     15 O           7.7285   -3.1631   20.3477 O.co2   1  UNL1       -0.5445
     16 C           4.5646   -5.2644   18.6998 C.3     1  UNL1        0.2525
     17 O           4.9320   -3.8100   18.6894 O.3     1  UNL1       -0.4714
     18 N           4.2552    1.1932   26.5799 N.am    1  UNL1       -0.2656
     19 C           4.1444    0.2970   27.7776 C.2     1  UNL1        0.3083
     20 O           3.1704   -0.8437   27.7731 O.2     1  UNL1       -0.2521
     21 N           5.0075    0.5416   28.9797 N.am    1  UNL1       -0.2673
     22 H           4.8945    1.9420   26.5828 H       1  UNL1        0.1565
     23 H           5.6467    1.2903   28.9827 H       1  UNL1        0.1564
     24 C           4.8967   -0.3546   30.1774 C.ar    1  UNL1        0.0622
     25 C           3.8698   -0.0715   31.2335 C.ar    1  UNL1        0.0156
     26 C           3.7590   -0.9677   32.4313 C.ar    1  UNL1        0.0013
     27 C           4.6750   -2.1470   32.5729 C.ar    1  UNL1        0.0009
     28 C           5.7019   -2.4302   31.5167 C.ar    1  UNL1        0.0126
     29 C           5.8127   -1.5340   30.3190 C.ar    1  UNL1        0.0711
     30 CL          6.8396   -1.8171   29.2629 Cl      1  UNL1       -0.0810
     31 O           1.5677    2.5098   26.3699 O.3     1  UNL1       -0.4526
     32 C           0.7990    1.9418   27.5259 C.ar    1  UNL1        0.1410
     33 C          -0.3504    1.0106   27.2772 C.ar    1  UNL1        0.0371
     34 C          -1.1192    0.4426   28.4332 C.ar    1  UNL1        0.0028
     35 C          -0.7386    0.8057   29.8379 C.ar    1  UNL1       -0.0044
     36 C           0.4108    1.7369   30.0867 C.ar    1  UNL1       -0.0232
     37 C           1.1796    2.3050   28.9307 C.ar    1  UNL1        0.0084
     38 C           2.3289    3.2361   29.1794 C.3     1  UNL1        0.0291
     39 C           2.7095    3.5993   30.5841 C.3     1  UNL1        0.0051
     40 C           1.9407    3.0312   31.7401 C.3     1  UNL1        0.0050
     41 C           0.7914    2.1001   31.4914 C.3     1  UNL1        0.0261
@<TRIPOS>UNITY_ATOM_ATTR
14 1
charge -1
@<TRIPOS>BOND
     1    16    17    1
     2    17     7    1
     3     7     8   ar
     4     8     9   ar
     5     9    10   ar
     6    10     1    1
     7     1     2   ar
     8     2     3   ar
     9     3     4   ar
    10     4    31    1
    11    31    32    1
    12    32    33   ar
    13    33    34   ar
    14    34    35   ar
    15    35    36   ar
    16    36    37   ar
    17    37    38    1
    18    38    39    1
    19    39    40    1
    20    40    41    1
    21     4     5   ar
    22     5    18    1
    23    18    19   am
    24    19    20    2
    25    19    21   am
    26    21    24    1
    27    24    25   ar
    28    25    26   ar
    29    26    27   ar
    30    27    28   ar
    31    28    29   ar
    32    29    30    1
    33     5     6   ar
    34    10    11   ar
    35    11    12   ar
    36    12    13    1
    37    13    14   ar
    38    13    15   ar
    39    12     7   ar
    40     6     1   ar
    41    37    32   ar
    42    29    24   ar
    43    41    36    1
    44    18    22    1
    45    21    23    1
@<TRIPOS>MOLECULE
*****
 41 45 0 0 0
SMALL
GASTEIGER

@<TRIPOS>ATOM
      1 C           4.8815   -1.2474   23.4348 C.ar    1  UNL1        0.0014
      2 C           6.3576   -1.3066   23.6950 C.ar    1  UNL1        0.0032
      3 C           6.8651   -1.5305   25.0887 C.ar    1  UNL1        0.0388
      4 C           5.8965   -1.6951   26.2221 C.ar    1  UNL1        0.1586
      5 C           4.4204   -1.6359   25.9619 C.ar    1  UNL1        0.0865
      6 C           3.9129   -1.4121   24.5682 C.ar    1  UNL1        0.0178
      7 C           3.3592   -0.5759   19.2537 C.ar    1  UNL1        0.1397
      8 C           4.6418   -1.3217   19.4741 C.ar    1  UNL1        0.0369
      9 C           5.1493   -1.5456   20.8678 C.ar    1  UNL1        0.0031
     10 C           4.3741   -1.0236   22.0411 C.ar    1  UNL1        0.0003
     11 C           3.0914   -0.2778   21.8207 C.ar    1  UNL1        0.0042
     12 C           2.5840   -0.0539   20.4269 C.ar    1  UNL1        0.0479
     13 C           1.3013    0.6919   20.2065 C.2     1  UNL1        0.0758
     14 O          -0.0102    0.0413   20.5333 O.co2   1  UNL1       -0.5445
     15 O           1.3302    2.0883   19.6594 O.co2   1  UNL1       -0.5445
     16 C           3.6795   -0.7763   16.6832 C.3     1  UNL1        0.2525
     17 O           2.8517   -0.3521   17.8600 O.3     1  UNL1       -0.4714
     18 N           3.4518   -1.8005   27.0953 N.am    1  UNL1       -0.2656
     19 C           3.1422   -0.6387   27.9921 C.2     1  UNL1        0.3083
     20 O           3.8011    0.6878   27.7553 O.2     1  UNL1       -0.2521
     21 N           2.1736   -0.8033   29.1255 N.am    1  UNL1       -0.2673
     22 H           3.0193   -2.6712   27.2507 H       1  UNL1        0.1565
     23 H           1.7411   -1.6740   29.2809 H       1  UNL1        0.1564
     24 C           1.8640    0.3586   30.0222 C.ar    1  UNL1        0.0622
     25 C           0.8916    1.4107   29.5778 C.ar    1  UNL1        0.0156
     26 C           0.5820    2.5726   30.4746 C.ar    1  UNL1        0.0013
     27 C           1.2447    2.6824   31.8157 C.ar    1  UNL1        0.0009
     28 C           2.2171    1.6303   32.2601 C.ar    1  UNL1        0.0126
     29 C           2.5268    0.4684   31.3634 C.ar    1  UNL1        0.0711
     30 CL          3.4991   -0.5837   31.8078 Cl      1  UNL1       -0.0810
     31 O           6.4040   -1.9190   27.6158 O.3     1  UNL1       -0.4526
     32 C           6.7467   -3.3050   28.0756 C.ar    1  UNL1        0.1410
     33 C           7.1610   -4.3453   27.0776 C.ar    1  UNL1        0.0371
     34 C           7.5037   -5.7313   27.5375 C.ar    1  UNL1        0.0028
     35 C           7.4321   -6.0771   28.9953 C.ar    1  UNL1       -0.0044
     36 C           7.0177   -5.0368   29.9934 C.ar    1  UNL1       -0.0232
     37 C           6.6750   -3.6507   29.5335 C.ar    1  UNL1        0.0084
     38 C           6.2607   -2.6104   30.5315 C.3     1  UNL1        0.0291
     39 C           6.1890   -2.9562   31.9893 C.3     1  UNL1        0.0051
     40 C           6.5317   -4.3422   32.4492 C.3     1  UNL1        0.0050
     41 C           6.9461   -5.3825   31.4512 C.3     1  UNL1        0.0261
@<TRIPOS>UNITY_ATOM_ATTR
14 1
charge -1
@<TRIPOS>BOND
     1    16    17    1
     2    17     7    1
     3     7     8   ar
     4     8     9   ar
     5     9    10   ar
     6    10     1    1
     7     1     2   ar
     8     2     3   ar
     9     3     4   ar
    10     4    31    1
    11    31    32    1
    12    32    33   ar
    13    33    34   ar
    14    34    35   ar
    15    35    36   ar
    16    36    37   ar
    17    37    38    1
    18    38    39    1
    19    39    40    1
    20    40    41    1
    21     4     5   ar
    22     5    18    1
    23    18    19   am
    24    19    20    2
    25    19    21   am
    26    21    24    1
    27    24    25   ar
    28    25    26   ar
    29    26    27   ar
    30    27    28   ar
    31    28    29   ar
    32    29    30    1
    33     5     6   ar
    34    10    11   ar
    35    11    12   ar
    36    12    13    1
    37    13    14   ar
    38    13    15   ar
    39    12     7   ar
    40     6     1   ar
    41    37    32   ar
    42    29    24   ar
    43    41    36    1
    44    18    22    1
    45    21    23    1
@<TRIPOS>MOLECULE
*****
 41 45 0 0 0
SMALL
GASTEIGER

@<TRIPOS>ATOM
      1 C           1.7182    1.5817   20.4279 C.ar    1  UNL1        0.0014
      2 C           2.2998    2.5508   21.4140 C.ar    1  UNL1        0.0032
      3 C           1.4061    3.5208   22.1287 C.ar    1  UNL1        0.0388
      4 C          -0.0691    3.5215   21.8572 C.ar    1  UNL1        0.1586
      5 C          -0.6507    2.5523   20.8711 C.ar    1  UNL1        0.0865
      6 C           0.2429    1.5824   20.1564 C.ar    1  UNL1        0.0178
      7 C           4.3991   -1.3279   18.2840 C.ar    1  UNL1        0.1397
      8 C           4.3312    0.1013   17.8336 C.ar    1  UNL1        0.0369
      9 C           3.4375    1.0711   18.5482 C.ar    1  UNL1        0.0031
     10 C           2.6118    0.6118   19.7133 C.ar    1  UNL1        0.0003
     11 C           2.6797   -0.8174   20.1636 C.ar    1  UNL1        0.0042
     12 C           3.5734   -1.7873   19.4489 C.ar    1  UNL1        0.0479
     13 C           3.6413   -3.2164   19.8993 C.2     1  UNL1        0.0758
     14 O           4.3319   -3.5659   21.1841 O.co2   1  UNL1       -0.5445
     15 O           3.0186   -4.2962   19.0647 O.co2   1  UNL1       -0.5445
     16 C           6.7232   -2.4523   17.9935 C.3     1  UNL1        0.2525
     17 O           5.2927   -2.2978   17.5693 O.3     1  UNL1       -0.4714
     18 N          -2.1259    2.5530   20.5996 N.am    1  UNL1       -0.2656
     19 C          -2.7302    3.6249   19.7418 C.2     1  UNL1        0.3083
     20 O          -1.8591    4.6961   19.1555 O.2     1  UNL1       -0.2521
     21 N          -4.2054    3.6256   19.4704 N.am    1  UNL1       -0.2673
     22 H          -2.6976    1.8499   20.9844 H       1  UNL1        0.1565
     23 H          -4.7770    2.9226   19.8552 H       1  UNL1        0.1564
     24 C          -4.8096    4.6976   18.6126 C.ar    1  UNL1        0.0622
     25 C          -5.4733    5.8825   19.2493 C.ar    1  UNL1        0.0156
     26 C          -6.0776    6.9545   18.3914 C.ar    1  UNL1        0.0013
     27 C          -6.0181    6.8415   16.8969 C.ar    1  UNL1        0.0009
     28 C          -5.3544    5.6565   16.2602 C.ar    1  UNL1        0.0126
     29 C          -4.7501    4.5846   17.1180 C.ar    1  UNL1        0.0711
     30 CL         -4.0864    3.3997   16.4812 Cl      1  UNL1       -0.0810
     31 O          -0.9627    4.4914   22.5719 O.3     1  UNL1       -0.4526
     32 C          -1.5975    4.1061   23.8752 C.ar    1  UNL1        0.1410
     33 C          -0.7511    3.5734   24.9931 C.ar    1  UNL1        0.0371
     34 C          -1.3858    3.1882   26.2964 C.ar    1  UNL1        0.0028
     35 C          -2.8670    3.3357   26.4819 C.ar    1  UNL1       -0.0044
     36 C          -3.7134    3.8684   25.3639 C.ar    1  UNL1       -0.0232
     37 C          -3.0787    4.2537   24.0606 C.ar    1  UNL1        0.0084
     38 C          -3.9251    4.7864   22.9427 C.3     1  UNL1        0.0291
     39 C          -5.4062    4.9339   23.1281 C.3     1  UNL1        0.0051
     40 C          -6.0410    4.5486   24.4314 C.3     1  UNL1        0.0050
     41 C          -5.1946    4.0159   25.5493 C.3     1  UNL1        0.0261
@<TRIPOS>UNITY_ATOM_ATTR
14 1
charge -1
@<TRIPOS>BOND
     1    16    17    1
     2    17     7    1
     3     7     8   ar
     4     8     9   ar
     5     9    10   ar
     6    10     1    1
     7     1     2   ar
     8     2     3   ar
     9     3     4   ar
    10     4    31    1
    11    31    32    1
    12    32    33   ar
    13    33    34   ar
    14    34    35   ar
    15    35    36   ar
    16    36    37   ar
    17    37    38    1
    18    38    39    1
    19    39    40    1
    20    40    41    1
    21     4     5   ar
    22     5    18    1
    23    18    19   am
    24    19    20    2
    25    19    21   am
    26    21    24    1
    27    24    25   ar
    28    25    26   ar
    29    26    27   ar
    30    27    28   ar
    31    28    29   ar
    32    29    30    1
    33     5     6   ar
    34    10    11   ar
    35    11    12   ar
    36    12    13    1
    37    13    14   ar
    38    13    15   ar
    39    12     7   ar
    40     6     1   ar
    41    37    32   ar
    42    29    24   ar
    43    41    36    1
    44    18    22    1
    45    21    23    1
@<TRIPOS>MOLECULE
*****
 41 45 0 0 0
SMALL
GASTEIGER

@<TRIPOS>ATOM
      1 C           1.8720    0.3589   21.3919 C.ar    1  UNL1        0.0014
      2 C           1.0416    0.6639   20.1806 C.ar    1  UNL1        0.0032
      3 C           0.1063    1.8366   20.1884 C.ar    1  UNL1        0.0388
      4 C           0.0014    2.7042   21.4075 C.ar    1  UNL1        0.1586
      5 C           0.8318    2.3991   22.6189 C.ar    1  UNL1        0.0865
      6 C           1.7671    1.2265   22.6110 C.ar    1  UNL1        0.0178
      7 C           4.6780   -3.1591   21.3685 C.ar    1  UNL1        0.1397
      8 C           4.2942   -2.5145   22.6674 C.ar    1  UNL1        0.0369
      9 C           3.3589   -1.3418   22.6752 C.ar    1  UNL1        0.0031
     10 C           2.8073   -0.8137   21.3841 C.ar    1  UNL1        0.0003
     11 C           3.1911   -1.4583   20.0852 C.ar    1  UNL1        0.0042
     12 C           4.1265   -2.6310   20.0774 C.ar    1  UNL1        0.0479
     13 C           4.5103   -3.2756   18.7785 C.2     1  UNL1        0.0758
     14 O           4.2640   -4.7399   18.5663 O.co2   1  UNL1       -0.5445
     15 O           5.1405   -2.4558   17.6918 O.co2   1  UNL1       -0.5445
     16 C           7.0950   -4.1098   21.4351 C.3     1  UNL1        0.2525
     17 O           5.6133   -4.3317   21.3607 O.3     1  UNL1       -0.4714
     18 N           0.7269    3.2667   23.8380 N.am    1  UNL1       -0.2656
     19 C           0.9436    2.6761   25.1997 C.2     1  UNL1        0.3083
     20 O           1.2652    1.2180   25.3422 O.2     1  UNL1       -0.2521
     21 N           0.8387    3.5437   26.4188 N.am    1  UNL1       -0.2673
     22 H           0.5158    4.2237   23.7444 H       1  UNL1        0.1565
     23 H           0.6276    4.5008   26.3252 H       1  UNL1        0.1564
     24 C           1.0554    2.9532   27.7805 C.ar    1  UNL1        0.0622
     25 C           2.3258    3.2348   28.5267 C.ar    1  UNL1        0.0156
     26 C           2.5425    2.6442   29.8884 C.ar    1  UNL1        0.0013
     27 C           1.4888    1.7720   30.5040 C.ar    1  UNL1        0.0009
     28 C           0.2184    1.4904   29.7578 C.ar    1  UNL1        0.0126
     29 C           0.0017    2.0809   28.3961 C.ar    1  UNL1        0.0711
     30 CL         -1.2687    1.7993   27.6500 Cl      1  UNL1       -0.0810
     31 O          -0.9339    3.8768   21.4153 O.3     1  UNL1       -0.4526
     32 C          -2.3856    3.6762   21.7353 C.ar    1  UNL1        0.1410
     33 C          -2.8212    3.4906   23.1586 C.ar    1  UNL1        0.0371
     34 C          -4.2728    3.2899   23.4786 C.ar    1  UNL1        0.0028
     35 C          -5.2890    3.2750   22.3754 C.ar    1  UNL1       -0.0044
     36 C          -4.8534    3.4606   20.9520 C.ar    1  UNL1       -0.0232
     37 C          -3.4018    3.6612   20.6320 C.ar    1  UNL1        0.0084
     38 C          -2.9662    3.8469   19.2087 C.3     1  UNL1        0.0291
     39 C          -3.9823    3.8319   18.1054 C.3     1  UNL1        0.0051
     40 C          -5.4340    3.6313   18.4255 C.3     1  UNL1        0.0050
     41 C          -5.8695    3.4456   19.8487 C.3     1  UNL1        0.0261
@<TRIPOS>UNITY_ATOM_ATTR
14 1
charge -1
@<TRIPOS>BOND
     1    16    17    1
     2    17     7    1
     3     7     8   ar
     4     8     9   ar
     5     9    10   ar
     6    10     1    1
     7     1     2   ar
     8     2     3   ar
     9     3     4   ar
    10     4    31    1
    11    31    32    1
    12    32    33   ar
    13    33    34   ar
    14    34    35   ar
    15    35    36   ar
    16    36    37   ar
    17    37    38    1
    18    38    39    1
    19    39    40    1
    20    40    41    1
    21     4     5   ar
    22     5    18    1
    23    18    19   am
    24    19    20    2
    25    19    21   am
    26    21    24    1
    27    24    25   ar
    28    25    26   ar
    29    26    27   ar
    30    27    28   ar
    31    28    29   ar
    32    29    30    1
    33     5     6   ar
    34    10    11   ar
    35    11    12   ar
    36    12    13    1
    37    13    14   ar
    38    13    15   ar
    39    12     7   ar
    40     6     1   ar
    41    37    32   ar
    42    29    24   ar
    43    41    36    1
    44    18    22    1
    45    21    23    1
@<TRIPOS>MOLECULE
*****
 41 45 0 0 0
SMALL
GASTEIGER

@<TRIPOS>ATOM
      1 C           1.6967    0.2336   21.2452 C.ar    1  UNL1        0.0014
      2 C           0.5856    0.6132   20.3117 C.ar    1  UNL1        0.0032
      3 C          -0.2668    1.8113   20.6084 C.ar    1  UNL1        0.0388
      4 C          -0.0081    2.6298   21.8385 C.ar    1  UNL1        0.1586
      5 C           1.1030    2.2501   22.7720 C.ar    1  UNL1        0.0865
      6 C           1.9554    1.0521   22.4754 C.ar    1  UNL1        0.0178
      7 C           4.2539   -3.3606   20.3551 C.ar    1  UNL1        0.1397
      8 C           3.3698   -2.7864   19.2881 C.ar    1  UNL1        0.0369
      9 C           2.5174   -1.5883   19.5847 C.ar    1  UNL1        0.0031
     10 C           2.5491   -0.9644   20.9485 C.ar    1  UNL1        0.0003
     11 C           3.4332   -1.5387   22.0156 C.ar    1  UNL1        0.0042
     12 C           4.2856   -2.7368   21.7188 C.ar    1  UNL1        0.0479
     13 C           5.1697   -3.3110   22.7859 C.2     1  UNL1        0.0758
     14 O           5.0633   -2.8126   24.1966 O.co2   1  UNL1       -0.5445
     15 O           6.1603   -4.3838   22.4422 O.co2   1  UNL1       -0.5445
     16 C           4.7989   -5.4224   18.8711 C.3     1  UNL1        0.2525
     17 O           5.1063   -4.5587   20.0584 O.3     1  UNL1       -0.4714
     18 N           1.3617    3.0685   24.0022 N.am    1  UNL1       -0.2656
     19 C           1.3734    2.4122   25.3509 C.2     1  UNL1        0.3083
     20 O           1.1265    0.9375   25.4695 O.2     1  UNL1       -0.2521
     21 N           1.6321    3.2307   26.5810 N.am    1  UNL1       -0.2673
     22 H           1.5237    4.0365   23.9243 H       1  UNL1        0.1565
     23 H           1.7941    4.1986   26.5032 H       1  UNL1        0.1564
     24 C           1.6438    2.5744   27.9297 C.ar    1  UNL1        0.0622
     25 C           0.3704    2.4445   28.7117 C.ar    1  UNL1        0.0156
     26 C           0.3822    1.7882   30.0605 C.ar    1  UNL1        0.0013
     27 C           1.6673    1.2617   30.6272 C.ar    1  UNL1        0.0009
     28 C           2.9407    1.3916   29.8452 C.ar    1  UNL1        0.0126
     29 C           2.9290    2.0479   28.4965 C.ar    1  UNL1        0.0711
     30 CL          4.2024    2.1778   27.7145 Cl      1  UNL1       -0.0810
     31 O          -0.8605    3.8278   22.1352 O.3     1  UNL1       -0.4526
     32 C          -2.3288    3.6588   22.3916 C.ar    1  UNL1        0.1410
     33 C          -3.2645    3.3983   21.2486 C.ar    1  UNL1        0.0371
     34 C          -4.7328    3.2292   21.5049 C.ar    1  UNL1        0.0028
     35 C          -5.2652    3.3206   22.9042 C.ar    1  UNL1       -0.0044
     36 C          -4.3294    3.5811   24.0473 C.ar    1  UNL1       -0.0232
     37 C          -2.8612    3.7502   23.7909 C.ar    1  UNL1        0.0084
     38 C          -1.9254    4.0107   24.9339 C.3     1  UNL1        0.0291
     39 C          -2.4579    4.1022   26.3332 C.3     1  UNL1        0.0051
     40 C          -3.9261    3.9331   26.5895 C.3     1  UNL1        0.0050
     41 C          -4.8619    3.6726   25.4466 C.3     1  UNL1        0.0261
@<TRIPOS>UNITY_ATOM_ATTR
14 1
charge -1
@<TRIPOS>BOND
     1    16    17    1
     2    17     7    1
     3     7     8   ar
     4     8     9   ar
     5     9    10   ar
     6    10     1    1
     7     1     2   ar
     8     2     3   ar
     9     3     4   ar
    10     4    31    1
    11    31    32    1
    12    32    33   ar
    13    33    34   ar
    14    34    35   ar
    15    35    36   ar
    16    36    37   ar
    17    37    38    1
    18    38    39    1
    19    39    40    1
    20    40    41    1
    21     4     5   ar
    22     5    18    1
    23    18    19   am
    24    19    20    2
    25    19    21   am
    26    21    24    1
    27    24    25   ar
    28    25    26   ar
    29    26    27   ar
    30    27    28   ar
    31    28    29   ar
    32    29    30    1
    33     5     6   ar
    34    10    11   ar
    35    11    12   ar
    36    12    13    1
    37    13    14   ar
    38    13    15   ar
    39    12     7   ar
    40     6     1   ar
    41    37    32   ar
    42    29    24   ar
    43    41    36    1
    44    18    22    1
    45    21    23    1
