@<TRIPOS>MOLECULE
*****
 27 26 0 0 0
SMALL
GASTEIGER

@<TRIPOS>ATOM
      1 C         -11.0755  -17.5685   19.7824 C.2     1  UNL1       -0.0307
      2 C         -12.0029  -16.8554   20.7213 C.2     1  UNL1       -0.0307
      3 C         -10.8295  -19.0392   19.9443 C.3     1  UNL1        0.0258
      4 C          -9.4695  -19.6073   19.6654 C.3     1  UNL1        0.0064
      5 C          -8.2721  -19.0822   20.4008 C.3     1  UNL1        0.0216
      6 C          -6.9084  -19.6309   20.1020 C.3     1  UNL1        0.0898
      7 C          -4.3481  -19.2387   19.9007 C.2     1  UNL1        0.2995
      8 O          -4.1103  -20.7117   20.0542 O.2     1  UNL1       -0.2652
      9 N          -5.7471  -18.6983   19.9245 N.am    1  UNL1       -0.2971
     10 H          -5.9031  -17.7315   19.8237 H       1  UNL1        0.1499
     11 C          -0.7580  -17.5988   20.3157 C.3     1  UNL1        0.1111
     12 N          -1.9193  -18.5314   20.4931 N.am    1  UNL1       -0.2954
     13 C          -3.1867  -18.3060   19.7232 C.2     1  UNL1        0.2996
     14 O          -3.2928  -17.1480   18.7757 O.2     1  UNL1       -0.2652
     15 H          -1.8497  -19.2915   21.1150 H       1  UNL1        0.1499
     16 C         -12.6842  -17.6131   21.8221 C.3     1  UNL1        0.0257
     17 C         -12.1764  -17.5095   23.2297 C.3     1  UNL1        0.0047
     18 C         -11.1900  -18.5142   23.7470 C.3     1  UNL1        0.0003
     19 C          -9.7314  -18.1699   23.8093 C.3     1  UNL1        0.0001
     20 C          -9.2743  -16.7797   23.4803 C.3     1  UNL1        0.0026
     21 C          -9.0242  -15.7922   24.5814 C.3     1  UNL1        0.0321
     22 C          -7.6394  -15.6157   25.1304 C.3     1  UNL1        0.1427
     23 O          -6.5878  -14.9327   24.3072 O.3     1  UNL1       -0.3478
     24 C          -5.1953  -15.4881   24.2586 C.3     1  UNL1        0.1835
     25 C          -4.8478  -16.5553   23.2634 C.2     1  UNL1        0.0801
     26 O          -5.8910  -17.5394   22.8240 O.co2   1  UNL1       -0.5466
     27 O          -3.4571  -16.6383   22.7076 O.co2   1  UNL1       -0.5466
@<TRIPOS>UNITY_ATOM_ATTR
26 1
charge -1
@<TRIPOS>BOND
     1    11    12    1
     2    12    13   am
     3    13    14    2
     4    13     7    1
     5     7     8    2
     6     7     9   am
     7     9     6    1
     8     6     5    1
     9     5     4    1
    10     4     3    1
    11     3     1    1
    12     1     2    2
    13     2    16    1
    14    16    17    1
    15    17    18    1
    16    18    19    1
    17    19    20    1
    18    20    21    1
    19    21    22    1
    20    22    23    1
    21    23    24    1
    22    24    25    1
    23    25    26   ar
    24    25    27   ar
    25    12    15    1
    26     9    10    1
@<TRIPOS>MOLECULE
*****
 27 26 0 0 0
SMALL
GASTEIGER

@<TRIPOS>ATOM
      1 C          -6.9189  -15.2201   27.4857 C.2     1  UNL1       -0.0307
      2 C          -8.3590  -15.5003   27.1734 C.2     1  UNL1       -0.0307
      3 C          -5.8359  -15.8600   26.6687 C.3     1  UNL1        0.0258
      4 C          -5.1283  -15.0681   25.6094 C.3     1  UNL1        0.0064
      5 C          -5.3430  -15.3933   24.1608 C.3     1  UNL1        0.0216
      6 C          -5.0579  -16.7754   23.6523 C.3     1  UNL1        0.0898
      7 C          -3.4789  -18.4372   22.4295 C.2     1  UNL1        0.2995
      8 O          -4.3723  -19.5759   22.8234 O.2     1  UNL1       -0.2652
      9 N          -3.8217  -17.0370   22.8439 N.am    1  UNL1       -0.2971
     10 H          -3.2353  -16.2896   22.5854 H       1  UNL1        0.1499
     11 C          -0.2616  -17.8167   20.1903 C.3     1  UNL1        0.1111
     12 N          -1.4978  -17.5552   20.9987 N.am    1  UNL1       -0.2954
     13 C          -2.2427  -18.6988   21.6211 C.2     1  UNL1        0.2996
     14 O          -1.7514  -20.1038   21.4353 O.2     1  UNL1       -0.2652
     15 H          -1.8202  -16.6331   21.1207 H       1  UNL1        0.1499
     16 C          -8.7162  -16.4205   26.0440 C.3     1  UNL1        0.0257
     17 C          -8.9635  -15.8644   24.6730 C.3     1  UNL1        0.0047
     18 C          -9.3559  -16.7803   23.5517 C.3     1  UNL1        0.0003
     19 C         -10.8043  -16.9724   23.2123 C.3     1  UNL1        0.0001
     20 C         -11.3795  -18.3556   23.1353 C.3     1  UNL1        0.0026
     21 C         -11.3725  -19.0993   21.8326 C.3     1  UNL1        0.0321
     22 C         -11.2577  -18.3468   20.5400 C.3     1  UNL1        0.1427
     23 O          -9.9243  -18.2129   19.8661 O.3     1  UNL1       -0.3478
     24 C          -8.9074  -19.3084   19.9910 C.3     1  UNL1        0.1835
     25 C          -7.7212  -19.1314   20.8919 C.2     1  UNL1        0.0801
     26 O          -7.6961  -19.7932   22.2378 O.co2   1  UNL1       -0.5466
     27 O          -6.5600  -18.2927   20.4469 O.co2   1  UNL1       -0.5466
@<TRIPOS>UNITY_ATOM_ATTR
26 1
charge -1
@<TRIPOS>BOND
     1    11    12    1
     2    12    13   am
     3    13    14    2
     4    13     7    1
     5     7     8    2
     6     7     9   am
     7     9     6    1
     8     6     5    1
     9     5     4    1
    10     4     3    1
    11     3     1    1
    12     1     2    2
    13     2    16    1
    14    16    17    1
    15    17    18    1
    16    18    19    1
    17    19    20    1
    18    20    21    1
    19    21    22    1
    20    22    23    1
    21    23    24    1
    22    24    25    1
    23    25    26   ar
    24    25    27   ar
    25    12    15    1
    26     9    10    1
@<TRIPOS>MOLECULE
*****
 27 26 0 0 0
SMALL
GASTEIGER

@<TRIPOS>ATOM
      1 C          -7.6257  -15.3021   27.0537 C.2     1  UNL1       -0.0307
      2 C          -8.7845  -15.5509   26.1343 C.2     1  UNL1       -0.0307
      3 C          -6.2680  -15.8400   26.7116 C.3     1  UNL1        0.0258
      4 C          -5.3401  -15.0392   25.8468 C.3     1  UNL1        0.0064
      5 C          -5.1951  -15.3738   24.3917 C.3     1  UNL1        0.0216
      6 C          -4.7814  -16.7548   23.9773 C.3     1  UNL1        0.0898
      7 C          -3.6306  -18.3178   22.2503 C.2     1  UNL1        0.2995
      8 O          -4.3049  -19.5036   22.8740 O.2     1  UNL1       -0.2652
      9 N          -3.8688  -16.9434   22.8019 N.am    1  UNL1       -0.2971
     10 H          -3.4263  -16.1651   22.3925 H       1  UNL1        0.1499
     11 C          -1.8810  -17.7548   18.7329 C.3     1  UNL1        0.1111
     12 N          -2.7935  -17.5663   19.9083 N.am    1  UNL1       -0.2954
     13 C          -2.7180  -18.5063   21.0748 C.2     1  UNL1        0.2996
     14 O          -1.7299  -19.6348   21.0658 O.2     1  UNL1       -0.2652
     15 H          -3.4421  -16.8256   19.9142 H       1  UNL1        0.1499
     16 C          -8.5855  -16.3376   24.8728 C.3     1  UNL1        0.0257
     17 C          -9.6264  -17.3235   24.4317 C.3     1  UNL1        0.0047
     18 C          -9.8691  -18.5673   25.2343 C.3     1  UNL1        0.0003
     19 C         -10.2108  -19.8527   24.5406 C.3     1  UNL1        0.0001
     20 C         -11.1787  -19.8523   23.3947 C.3     1  UNL1        0.0026
     21 C         -10.6787  -20.0217   21.9906 C.3     1  UNL1        0.0321
     22 C         -11.1200  -19.0709   20.9175 C.3     1  UNL1        0.1427
     23 O         -12.3057  -18.1809   21.1453 O.3     1  UNL1       -0.3478
     24 C         -12.1098  -16.7077   21.3478 C.3     1  UNL1        0.1835
     25 C         -11.4414  -15.8868   20.2850 C.2     1  UNL1        0.0801
     26 O         -12.1958  -15.5070   19.0455 O.co2   1  UNL1       -0.5466
     27 O         -10.0187  -15.4459   20.4618 O.co2   1  UNL1       -0.5466
@<TRIPOS>UNITY_ATOM_ATTR
26 1
charge -1
@<TRIPOS>BOND
     1    11    12    1
     2    12    13   am
     3    13    14    2
     4    13     7    1
     5     7     8    2
     6     7     9   am
     7     9     6    1
     8     6     5    1
     9     5     4    1
    10     4     3    1
    11     3     1    1
    12     1     2    2
    13     2    16    1
    14    16    17    1
    15    17    18    1
    16    18    19    1
    17    19    20    1
    18    20    21    1
    19    21    22    1
    20    22    23    1
    21    23    24    1
    22    24    25    1
    23    25    26   ar
    24    25    27   ar
    25    12    15    1
    26     9    10    1
@<TRIPOS>MOLECULE
*****
 27 26 0 0 0
SMALL
GASTEIGER

@<TRIPOS>ATOM
      1 C          -8.9369  -15.8565   24.4658 C.2     1  UNL1       -0.0307
      2 C          -8.5699  -16.3460   23.0963 C.2     1  UNL1       -0.0307
      3 C          -8.6017  -16.6823   25.6723 C.3     1  UNL1        0.0258
      4 C          -8.2436  -16.0108   26.9649 C.3     1  UNL1        0.0064
      5 C          -6.8157  -15.6535   27.2540 C.3     1  UNL1        0.0216
      6 C          -5.9143  -15.2069   26.1413 C.3     1  UNL1        0.0898
      7 C          -4.7730  -16.0261   23.9558 C.2     1  UNL1        0.2995
      8 O          -5.3284  -14.8417   23.2218 O.2     1  UNL1       -0.2652
      9 N          -5.0659  -16.2087   25.4155 N.am    1  UNL1       -0.2971
     10 H          -4.7013  -16.9860   25.8973 H       1  UNL1        0.1499
     11 C          -2.1095  -17.5720   21.4526 C.3     1  UNL1        0.1111
     12 N          -2.9579  -16.5703   22.1783 N.am    1  UNL1       -0.2954
     13 C          -3.9246  -17.0279   23.2300 C.2     1  UNL1        0.2996
     14 O          -4.0429  -18.4872   23.5560 O.2     1  UNL1       -0.2652
     15 H          -2.8802  -15.6124   21.9644 H       1  UNL1        0.1499
     16 C          -7.8677  -17.6614   22.9332 C.3     1  UNL1        0.0257
     17 C          -8.6206  -18.8558   22.4268 C.3     1  UNL1        0.0047
     18 C          -8.9806  -19.9688   23.3659 C.3     1  UNL1        0.0003
     19 C         -10.4106  -20.1782   23.7675 C.3     1  UNL1        0.0001
     20 C         -11.1515  -19.0957   24.4950 C.3     1  UNL1        0.0026
     21 C         -12.2396  -18.3333   23.7988 C.3     1  UNL1        0.0321
     22 C         -11.8961  -17.3667   22.7044 C.3     1  UNL1        0.1427
     23 O         -12.8181  -17.2016   21.5328 O.3     1  UNL1       -0.3478
     24 C         -12.5219  -16.1701   20.4848 C.3     1  UNL1        0.1835
     25 C         -11.2417  -16.2382   19.7062 C.2     1  UNL1        0.0801
     26 O         -10.4844  -17.5301   19.6194 O.co2   1  UNL1       -0.5466
     27 O         -10.7186  -15.0144   19.0143 O.co2   1  UNL1       -0.5466
@<TRIPOS>UNITY_ATOM_ATTR
26 1
charge -1
@<TRIPOS>BOND
     1    11    12    1
     2    12    13   am
     3    13    14    2
     4    13     7    1
     5     7     8    2
     6     7     9   am
     7     9     6    1
     8     6     5    1
     9     5     4    1
    10     4     3    1
    11     3     1    1
    12     1     2    2
    13     2    16    1
    14    16    17    1
    15    17    18    1
    16    18    19    1
    17    19    20    1
    18    20    21    1
    19    21    22    1
    20    22    23    1
    21    23    24    1
    22    24    25    1
    23    25    26   ar
    24    25    27   ar
    25    12    15    1
    26     9    10    1
@<TRIPOS>MOLECULE
*****
 27 26 0 0 0
SMALL
GASTEIGER

@<TRIPOS>ATOM
      1 C          -5.0013  -20.3324   20.4236 C.2     1  UNL1       -0.0307
      2 C          -6.2327  -20.2672   21.2776 C.2     1  UNL1       -0.0307
      3 C          -4.4029  -19.0720   19.8729 C.3     1  UNL1        0.0258
      4 C          -2.9179  -18.8649   19.9177 C.3     1  UNL1        0.0064
      5 C          -2.3590  -17.4989   20.1855 C.3     1  UNL1        0.0216
      6 C          -2.1236  -17.0483   21.5967 C.3     1  UNL1        0.0898
      7 C          -4.1036  -17.0041   23.2782 C.2     1  UNL1        0.2995
      8 O          -3.9522  -18.4805   23.4953 O.2     1  UNL1       -0.2652
      9 N          -3.1893  -16.2880   22.3289 N.am    1  UNL1       -0.2971
     10 H          -3.2886  -15.3189   22.1864 H       1  UNL1        0.1499
     11 C          -7.4307  -14.9646   24.0001 C.3     1  UNL1        0.1111
     12 N          -6.3650  -15.7250   23.2679 N.am    1  UNL1       -0.2954
     13 C          -5.1693  -16.2437   24.0104 C.2     1  UNL1        0.2996
     14 O          -5.0394  -16.0021   25.4851 O.2     1  UNL1       -0.2652
     15 H          -6.4502  -15.8836   22.3000 H       1  UNL1        0.1499
     16 C          -6.8658  -18.9416   21.5809 C.3     1  UNL1        0.0257
     17 C          -7.9707  -18.8518   22.5913 C.3     1  UNL1        0.0047
     18 C          -8.8119  -20.0568   22.8920 C.3     1  UNL1        0.0003
     19 C         -10.2470  -19.8883   23.2947 C.3     1  UNL1        0.0001
     20 C         -11.2979  -19.6623   22.2485 C.3     1  UNL1        0.0026
     21 C         -10.9617  -19.8387   20.7973 C.3     1  UNL1        0.0321
     22 C         -10.5679  -18.6516   19.9690 C.3     1  UNL1        0.1427
     23 O         -11.5534  -17.5475   19.7246 O.3     1  UNL1       -0.3478
     24 C         -11.5360  -16.3218   20.5890 C.3     1  UNL1        0.1835
     25 C         -10.4555  -16.1419   21.6137 C.2     1  UNL1        0.0801
     26 O          -9.0712  -15.7557   21.1842 O.co2   1  UNL1       -0.5466
     27 O         -10.7593  -16.3482   23.0681 O.co2   1  UNL1       -0.5466
@<TRIPOS>UNITY_ATOM_ATTR
26 1
charge -1
@<TRIPOS>BOND
     1    11    12    1
     2    12    13   am
     3    13    14    2
     4    13     7    1
     5     7     8    2
     6     7     9   am
     7     9     6    1
     8     6     5    1
     9     5     4    1
    10     4     3    1
    11     3     1    1
    12     1     2    2
    13     2    16    1
    14    16    17    1
    15    17    18    1
    16    18    19    1
    17    19    20    1
    18    20    21    1
    19    21    22    1
    20    22    23    1
    21    23    24    1
    22    24    25    1
    23    25    26   ar
    24    25    27   ar
    25    12    15    1
    26     9    10    1
@<TRIPOS>MOLECULE
*****
 27 26 0 0 0
SMALL
GASTEIGER

@<TRIPOS>ATOM
      1 C          -4.5042  -20.5772   20.0167 C.2     1  UNL1       -0.0307
      2 C          -5.9078  -20.8684   20.4584 C.2     1  UNL1       -0.0307
      3 C          -4.0881  -19.1665   19.7224 C.3     1  UNL1        0.0258
      4 C          -2.9097  -18.5686   20.4322 C.3     1  UNL1        0.0064
      5 C          -2.8885  -18.5079   21.9309 C.3     1  UNL1        0.0216
      6 C          -3.0619  -17.1926   22.6308 C.3     1  UNL1        0.0898
      7 C          -4.8775  -15.7712   23.8279 C.2     1  UNL1        0.2995
      8 O          -4.6235  -14.6425   22.8732 O.2     1  UNL1       -0.2652
      9 N          -4.0967  -17.0462   23.7067 N.am    1  UNL1       -0.2971
     10 H          -4.2634  -17.7869   24.3334 H       1  UNL1        0.1499
     11 C          -8.3985  -15.3750   25.6156 C.3     1  UNL1        0.1111
     12 N          -7.3637  -15.5213   24.5396 N.am    1  UNL1       -0.2954
     13 C          -5.9123  -15.6248   24.9040 C.2     1  UNL1        0.2996
     14 O          -5.4957  -15.5819   26.3443 O.2     1  UNL1       -0.2652
     15 H          -7.6371  -15.5495   23.5943 H       1  UNL1        0.1499
     16 C          -6.8952  -19.7490   20.6058 C.3     1  UNL1        0.0257
     17 C          -7.7375  -19.3329   19.4364 C.3     1  UNL1        0.0047
     18 C          -9.0714  -19.9791   19.2053 C.3     1  UNL1        0.0003
     19 C         -10.3294  -19.2656   19.6032 C.3     1  UNL1        0.0001
     20 C         -11.1227  -19.7452   20.7825 C.3     1  UNL1        0.0026
     21 C         -10.4684  -19.8679   22.1267 C.3     1  UNL1        0.0321
     22 C         -10.9460  -19.0265   23.2729 C.3     1  UNL1        0.1427
     23 O         -11.4528  -17.6369   23.0231 O.3     1  UNL1       -0.3478
     24 C         -10.4912  -16.4872   22.9643 C.3     1  UNL1        0.1835
     25 C          -9.6652  -16.2626   21.7325 C.2     1  UNL1        0.0801
     26 O         -10.3027  -15.7092   20.4926 O.co2   1  UNL1       -0.5466
     27 O          -8.2018  -16.5914   21.7405 O.co2   1  UNL1       -0.5466
@<TRIPOS>UNITY_ATOM_ATTR
26 1
charge -1
@<TRIPOS>BOND
     1    11    12    1
     2    12    13   am
     3    13    14    2
     4    13     7    1
     5     7     8    2
     6     7     9   am
     7     9     6    1
     8     6     5    1
     9     5     4    1
    10     4     3    1
    11     3     1    1
    12     1     2    2
    13     2    16    1
    14    16    17    1
    15    17    18    1
    16    18    19    1
    17    19    20    1
    18    20    21    1
    19    21    22    1
    20    22    23    1
    21    23    24    1
    22    24    25    1
    23    25    26   ar
    24    25    27   ar
    25    12    15    1
    26     9    10    1
@<TRIPOS>MOLECULE
*****
 27 26 0 0 0
SMALL
GASTEIGER

@<TRIPOS>ATOM
      1 C          -6.7883  -19.4616   21.4061 C.2     1  UNL1       -0.0307
      2 C          -7.5903  -19.6159   20.1480 C.2     1  UNL1       -0.0307
      3 C          -7.2867  -18.5761   22.5095 C.3     1  UNL1        0.0258
      4 C          -7.0336  -17.0986   22.4577 C.3     1  UNL1        0.0064
      5 C          -6.4329  -16.3986   23.6407 C.3     1  UNL1        0.0216
      6 C          -4.9548  -16.4722   23.8847 C.3     1  UNL1        0.0898
      7 C          -3.5054  -18.0633   22.4294 C.2     1  UNL1        0.2995
      8 O          -3.9363  -19.2268   23.2724 O.2     1  UNL1       -0.2652
      9 N          -4.0147  -16.6860   22.7356 N.am    1  UNL1       -0.2971
     10 H          -3.7318  -15.9224   22.1823 H       1  UNL1        0.1499
     11 C          -1.7560  -17.6583   18.8903 C.3     1  UNL1        0.1111
     12 N          -2.6961  -17.4446   20.0394 N.am    1  UNL1       -0.2954
     13 C          -2.5653  -18.2771   21.2803 C.2     1  UNL1        0.2996
     14 O          -1.4943  -19.3233   21.3720 O.2     1  UNL1       -0.2652
     15 H          -3.3990  -16.7579   19.9792 H       1  UNL1        0.1499
     16 C          -8.8908  -18.8847   19.9932 C.3     1  UNL1        0.0257
     17 C         -10.1703  -19.6534   19.8448 C.3     1  UNL1        0.0047
     18 C         -11.1335  -19.7351   20.9918 C.3     1  UNL1        0.0003
     19 C         -10.6237  -19.9591   22.3847 C.3     1  UNL1        0.0001
     20 C         -11.2738  -19.2614   23.5425 C.3     1  UNL1        0.0026
     21 C         -10.5167  -18.2195   24.3114 C.3     1  UNL1        0.0321
     22 C         -10.2670  -16.8717   23.7022 C.3     1  UNL1        0.1427
     23 O         -11.1063  -16.4017   22.5512 O.3     1  UNL1       -0.3478
     24 C         -10.4495  -15.9163   21.2930 C.3     1  UNL1        0.1835
     25 C         -11.2509  -15.7824   20.0322 C.2     1  UNL1        0.0801
     26 O         -12.5817  -16.4641   19.9134 O.co2   1  UNL1       -0.5466
     27 O         -10.7215  -14.9667   18.8901 O.co2   1  UNL1       -0.5466
@<TRIPOS>UNITY_ATOM_ATTR
26 1
charge -1
@<TRIPOS>BOND
     1    11    12    1
     2    12    13   am
     3    13    14    2
     4    13     7    1
     5     7     8    2
     6     7     9   am
     7     9     6    1
     8     6     5    1
     9     5     4    1
    10     4     3    1
    11     3     1    1
    12     1     2    2
    13     2    16    1
    14    16    17    1
    15    17    18    1
    16    18    19    1
    17    19    20    1
    18    20    21    1
    19    21    22    1
    20    22    23    1
    21    23    24    1
    22    24    25    1
    23    25    26   ar
    24    25    27   ar
    25    12    15    1
    26     9    10    1
@<TRIPOS>MOLECULE
*****
 27 26 0 0 0
SMALL
GASTEIGER

@<TRIPOS>ATOM
      1 C          -3.4505  -18.7950   19.0685 C.2     1  UNL1       -0.0307
      2 C          -2.4218  -17.7226   19.2729 C.2     1  UNL1       -0.0307
      3 C          -3.6875  -19.8204   20.1372 C.3     1  UNL1        0.0258
      4 C          -5.0831  -20.2793   20.4400 C.3     1  UNL1        0.0064
      5 C          -6.1983  -19.2801   20.5299 C.3     1  UNL1        0.0216
      6 C          -7.5636  -19.7177   20.9710 C.3     1  UNL1        0.0898
      7 C          -9.8931  -18.7058   20.4238 C.2     1  UNL1        0.2995
      8 O         -10.0893  -19.7368   19.3522 O.2     1  UNL1       -0.2652
      9 N          -8.6302  -18.6962   21.2332 N.am    1  UNL1       -0.2971
     10 H          -8.5015  -18.0195   21.9365 H       1  UNL1        0.1499
     11 C         -12.2079  -16.1055   22.3291 C.3     1  UNL1        0.1111
     12 N         -11.1413  -17.1270   22.0668 N.am    1  UNL1       -0.2954
     13 C         -10.9598  -17.6842   20.6860 C.2     1  UNL1        0.2996
     14 O         -11.8448  -17.2200   19.5675 O.2     1  UNL1       -0.2652
     15 H         -10.5604  -17.4317   22.8009 H       1  UNL1        0.1499
     16 C          -1.6301  -17.6756   20.5460 C.3     1  UNL1        0.0257
     17 C          -2.1053  -16.8355   21.6942 C.3     1  UNL1        0.0047
     18 C          -2.4171  -17.4765   23.0141 C.3     1  UNL1        0.0003
     19 C          -3.7677  -18.0842   23.2523 C.3     1  UNL1        0.0001
     20 C          -4.9693  -17.2013   23.4145 C.3     1  UNL1        0.0026
     21 C          -4.8149  -15.8212   23.9815 C.3     1  UNL1        0.0321
     22 C          -5.4273  -15.4826   25.3083 C.3     1  UNL1        0.1427
     23 O          -6.9090  -15.2768   25.4198 O.3     1  UNL1       -0.3478
     24 C          -7.7048  -14.8846   24.2104 C.3     1  UNL1        0.1835
     25 C          -8.2397  -15.9411   23.2896 C.2     1  UNL1        0.0801
     26 O          -8.1507  -15.7560   21.8038 O.co2   1  UNL1       -0.5466
     27 O          -8.8635  -17.1826   23.8547 O.co2   1  UNL1       -0.5466
@<TRIPOS>UNITY_ATOM_ATTR
26 1
charge -1
@<TRIPOS>BOND
     1    11    12    1
     2    12    13   am
     3    13    14    2
     4    13     7    1
     5     7     8    2
     6     7     9   am
     7     9     6    1
     8     6     5    1
     9     5     4    1
    10     4     3    1
    11     3     1    1
    12     1     2    2
    13     2    16    1
    14    16    17    1
    15    17    18    1
    16    18    19    1
    17    19    20    1
    18    20    21    1
    19    21    22    1
    20    22    23    1
    21    23    24    1
    22    24    25    1
    23    25    26   ar
    24    25    27   ar
    25    12    15    1
    26     9    10    1
@<TRIPOS>MOLECULE
*****
 27 26 0 0 0
SMALL
GASTEIGER

@<TRIPOS>ATOM
      1 C          -4.2024  -20.6584   19.8903 C.2     1  UNL1       -0.0307
      2 C          -3.0597  -19.8520   19.3480 C.2     1  UNL1       -0.0307
      3 C          -5.4594  -19.9723   20.3364 C.3     1  UNL1        0.0258
      4 C          -6.2621  -20.5398   21.4693 C.3     1  UNL1        0.0064
      5 C          -6.9415  -19.6211   22.4412 C.3     1  UNL1        0.0216
      6 C          -8.4385  -19.6013   22.5336 C.3     1  UNL1        0.0898
      7 C         -10.7062  -18.6995   21.6425 C.2     1  UNL1        0.2995
      8 O         -11.4079  -19.8925   22.2207 O.2     1  UNL1       -0.2652
      9 N          -9.2215  -18.5539   21.7989 N.am    1  UNL1       -0.2971
     10 H          -8.7610  -17.7709   21.4194 H       1  UNL1        0.1499
     11 C         -11.5611  -15.6025   19.3128 C.3     1  UNL1        0.1111
     12 N         -10.7781  -16.6499   20.0475 N.am    1  UNL1       -0.2954
     13 C         -11.4892  -17.6521   20.9077 C.2     1  UNL1        0.2996
     14 O         -12.9832  -17.6068   21.0333 O.2     1  UNL1       -0.2652
     15 H          -9.7975  -16.6796   19.9651 H       1  UNL1        0.1499
     16 C          -3.1741  -18.3595   19.2518 C.3     1  UNL1        0.0257
     17 C          -1.9378  -17.5190   19.1286 C.3     1  UNL1        0.0047
     18 C          -1.2065  -17.0755   20.3609 C.3     1  UNL1        0.0003
     19 C          -1.9476  -16.3773   21.4624 C.3     1  UNL1        0.0001
     20 C          -2.2892  -17.1161   22.7223 C.3     1  UNL1        0.0026
     21 C          -3.5742  -17.8841   22.8166 C.3     1  UNL1        0.0321
     22 C          -4.7647  -17.2737   23.4951 C.3     1  UNL1        0.1427
     23 O          -5.0949  -15.8275   23.2728 O.3     1  UNL1       -0.3478
     24 C          -6.4209  -15.2843   23.7162 C.3     1  UNL1        0.1835
     25 C          -7.6897  -15.8430   23.1435 C.2     1  UNL1        0.0801
     26 O          -8.7173  -16.4525   24.0504 O.co2   1  UNL1       -0.5466
     27 O          -7.9309  -15.7922   21.6639 O.co2   1  UNL1       -0.5466
@<TRIPOS>UNITY_ATOM_ATTR
26 1
charge -1
@<TRIPOS>BOND
     1    11    12    1
     2    12    13   am
     3    13    14    2
     4    13     7    1
     5     7     8    2
     6     7     9   am
     7     9     6    1
     8     6     5    1
     9     5     4    1
    10     4     3    1
    11     3     1    1
    12     1     2    2
    13     2    16    1
    14    16    17    1
    15    17    18    1
    16    18    19    1
    17    19    20    1
    18    20    21    1
    19    21    22    1
    20    22    23    1
    21    23    24    1
    22    24    25    1
    23    25    26   ar
    24    25    27   ar
    25    12    15    1
    26     9    10    1
