@<TRIPOS>MOLECULE
*****
 34 37 0 0 0
SMALL
GASTEIGER

@<TRIPOS>ATOM
      1 N           3.0036    0.8879   20.6132 N.am    1  UNL1       -0.2533
      2 C           1.6045    1.2559   20.2171 C.2     1  UNL1        0.3092
      3 O           0.5867    0.1812   19.9739 O.2     1  UNL1       -0.2521
      4 N           1.2231    2.6985   20.0642 N.am    1  UNL1       -0.2680
      5 H           3.6716    1.5933   20.7729 H       1  UNL1        0.1578
      6 H           1.8910    3.4039   20.2239 H       1  UNL1        0.1564
      7 C          -0.1761    3.0664   19.6681 C.ar    1  UNL1        0.0516
      8 C          -1.2949    2.9360   20.6587 C.ar    1  UNL1        0.0147
      9 C          -2.6941    3.3039   20.2626 C.ar    1  UNL1        0.0013
     10 C          -2.9746    3.8022   18.8759 C.ar    1  UNL1        0.0002
     11 C          -1.8558    3.9326   17.8853 C.ar    1  UNL1        0.0013
     12 C          -0.4566    3.5647   18.2814 C.ar    1  UNL1        0.0147
     13 C          -4.3738    4.1701   18.4798 C.ar    1  UNL1        0.0031
     14 C          -5.5412    3.5659   19.2024 C.ar    1  UNL1        0.0207
     15 C          -6.9404    3.9338   18.8062 C.ar    1  UNL1        0.0989
     16 N          -7.1721    4.9058   17.6875 N.ar    1  UNL1       -0.2423
     17 C          -6.0047    5.5100   16.9650 C.ar    1  UNL1        0.0989
     18 C          -4.6055    5.1421   17.3611 C.ar    1  UNL1        0.0207
     19 N           3.4884   -1.3070   22.0597 N.ar    1  UNL1       -0.2162
     20 N           3.8973   -2.7155   21.7453 N.ar    1  UNL1       -0.1683
     21 C           4.0468   -2.8337   20.2574 C.ar    1  UNL1        0.0810
     22 C           3.7302   -1.4982   19.6523 C.ar    1  UNL1        0.0509
     23 C           3.3851   -0.5547   20.7662 C.ar    1  UNL1        0.1380
     24 C           2.4484    0.9256   27.5309 C.3     1  UNL1        0.0310
     25 C           2.7084    0.3675   26.1631 C.ar    1  UNL1       -0.0218
     26 C           3.7611   -0.6833   25.9695 C.ar    1  UNL1       -0.0027
     27 C           4.0211   -1.2415   24.6017 C.ar    1  UNL1        0.0189
     28 C           3.2284   -0.7488   23.4275 C.ar    1  UNL1        0.0842
     29 C           2.1756    0.3019   23.6211 C.ar    1  UNL1        0.0189
     30 C           1.9156    0.8601   24.9889 C.ar    1  UNL1       -0.0027
     31 C           4.4432   -4.0702   19.5066 C.3     1  UNL1        0.0372
     32 C           3.0222   -4.2573   19.0644 C.3     1  UNL1        0.0060
     33 C           5.8643   -3.8832   19.9488 C.3     1  UNL1        0.0060
     34 C           4.8397   -5.3068   18.7558 C.3     1  UNL1        0.0060
@<TRIPOS>BOND
     1    24    25    1
     2    25    26   ar
     3    26    27   ar
     4    27    28   ar
     5    28    19    1
     6    19    20   ar
     7    20    21   ar
     8    21    31    1
     9    31    32    1
    10    31    33    1
    11    31    34    1
    12    21    22   ar
    13    22    23   ar
    14    23     1    1
    15     1     2   am
    16     2     3    2
    17     2     4   am
    18     4     7    1
    19     7     8   ar
    20     8     9   ar
    21     9    10   ar
    22    10    13    1
    23    13    14   ar
    24    14    15   ar
    25    15    16   ar
    26    16    17   ar
    27    17    18   ar
    28    10    11   ar
    29    11    12   ar
    30    28    29   ar
    31    29    30   ar
    32    30    25   ar
    33    23    19   ar
    34    12     7   ar
    35    18    13   ar
    36     1     5    1
    37     4     6    1
@<TRIPOS>MOLECULE
*****
 34 37 0 0 0
SMALL
GASTEIGER

@<TRIPOS>ATOM
      1 N         -14.6705   -3.9874   17.6288 N.am    1  UNL1       -0.2533
      2 C         -14.8581   -2.7563   18.4649 C.2     1  UNL1        0.3092
      3 O         -14.0948   -2.5964   19.7463 O.2     1  UNL1       -0.2521
      4 N         -15.8090   -1.6851   18.0198 N.am    1  UNL1       -0.2680
      5 H         -15.1714   -4.0923   16.7878 H       1  UNL1        0.1578
      6 H         -16.3100   -1.7899   17.1789 H       1  UNL1        0.1564
      7 C         -15.9966   -0.4540   18.8561 C.ar    1  UNL1        0.0516
      8 C         -16.9219   -0.4829   20.0364 C.ar    1  UNL1        0.0147
      9 C         -17.1095    0.7482   20.8726 C.ar    1  UNL1        0.0013
     10 C         -16.3719    2.0081   20.5286 C.ar    1  UNL1        0.0002
     11 C         -15.4467    2.0370   19.3483 C.ar    1  UNL1        0.0013
     12 C         -15.2591    0.8060   18.5120 C.ar    1  UNL1        0.0147
     13 C         -16.5595    3.2392   21.3648 C.ar    1  UNL1        0.0031
     14 C         -16.0810    4.5684   20.8607 C.ar    1  UNL1        0.0207
     15 C         -16.2686    5.7995   21.6969 C.ar    1  UNL1        0.0989
     16 N         -16.9347    5.7013   23.0372 N.ar    1  UNL1       -0.2423
     17 C         -17.4133    4.3721   23.5414 C.ar    1  UNL1        0.0989
     18 C         -17.2257    3.1410   22.7051 C.ar    1  UNL1        0.0207
     19 N         -14.0900   -6.3271   18.7836 N.ar    1  UNL1       -0.2162
     20 N         -12.8306   -7.1019   19.0357 N.ar    1  UNL1       -0.1683
     21 C         -11.6818   -6.3123   18.4819 C.ar    1  UNL1        0.0810
     22 C         -12.2312   -5.0494   17.8874 C.ar    1  UNL1        0.0509
     23 C         -13.7195   -5.0586   18.0739 C.ar    1  UNL1        0.1380
     24 C         -19.6356   -8.0070   20.3404 C.3     1  UNL1        0.0310
     25 C         -18.2492   -7.5870   19.9512 C.ar    1  UNL1       -0.0218
     26 C         -17.1772   -8.6196   19.7651 C.ar    1  UNL1       -0.0027
     27 C         -15.7908   -8.1996   19.3759 C.ar    1  UNL1        0.0189
     28 C         -15.4764   -6.7471   19.1728 C.ar    1  UNL1        0.0842
     29 C         -16.5484   -5.7146   19.3589 C.ar    1  UNL1        0.0189
     30 C         -17.9348   -6.1345   19.7481 C.ar    1  UNL1       -0.0027
     31 C         -10.2372   -6.7148   18.5164 C.3     1  UNL1        0.0372
     32 C          -9.8983   -5.4378   19.2266 C.3     1  UNL1        0.0060
     33 C         -10.5761   -7.9919   17.8062 C.3     1  UNL1        0.0060
     34 C          -8.7927   -7.1174   18.5509 C.3     1  UNL1        0.0060
@<TRIPOS>BOND
     1    24    25    1
     2    25    26   ar
     3    26    27   ar
     4    27    28   ar
     5    28    19    1
     6    19    20   ar
     7    20    21   ar
     8    21    31    1
     9    31    32    1
    10    31    33    1
    11    31    34    1
    12    21    22   ar
    13    22    23   ar
    14    23     1    1
    15     1     2   am
    16     2     3    2
    17     2     4   am
    18     4     7    1
    19     7     8   ar
    20     8     9   ar
    21     9    10   ar
    22    10    13    1
    23    13    14   ar
    24    14    15   ar
    25    15    16   ar
    26    16    17   ar
    27    17    18   ar
    28    10    11   ar
    29    11    12   ar
    30    28    29   ar
    31    29    30   ar
    32    30    25   ar
    33    23    19   ar
    34    12     7   ar
    35    18    13   ar
    36     1     5    1
    37     4     6    1
@<TRIPOS>MOLECULE
*****
 34 37 0 0 0
SMALL
GASTEIGER

@<TRIPOS>ATOM
      1 N           3.3896    0.2188   22.2005 N.am    1  UNL1       -0.2533
      2 C           2.0533    0.7810   22.5851 C.2     1  UNL1        0.3092
      3 O           0.8343    0.4331   21.7831 O.2     1  UNL1       -0.2521
      4 N           1.9357    1.6911   23.7717 N.am    1  UNL1       -0.2680
      5 H           4.1896    0.4471   22.7269 H       1  UNL1        0.1578
      6 H           2.7357    1.9195   24.2980 H       1  UNL1        0.1564
      7 C           0.5993    2.2533   24.1562 C.ar    1  UNL1        0.0516
      8 C          -0.1160    3.1893   23.2276 C.ar    1  UNL1        0.0147
      9 C          -1.4524    3.7515   23.6121 C.ar    1  UNL1        0.0013
     10 C          -2.0736    3.3777   24.9252 C.ar    1  UNL1        0.0002
     11 C          -1.3584    2.4417   25.8538 C.ar    1  UNL1        0.0013
     12 C          -0.0219    1.8795   25.4693 C.ar    1  UNL1        0.0147
     13 C          -3.4101    3.9399   25.3098 C.ar    1  UNL1        0.0031
     14 C          -3.5655    4.6891   26.5999 C.ar    1  UNL1        0.0207
     15 C          -4.9019    5.2513   26.9845 C.ar    1  UNL1        0.0989
     16 N          -6.0829    5.0643   26.0788 N.ar    1  UNL1       -0.2423
     17 C          -5.9275    4.3151   24.7886 C.ar    1  UNL1        0.0989
     18 C          -4.5911    3.7529   24.4041 C.ar    1  UNL1        0.0207
     19 N           3.1566   -0.3433   19.5977 N.ar    1  UNL1       -0.2162
     20 N           3.4287   -1.5462   18.7439 N.ar    1  UNL1       -0.1683
     21 C           3.9474   -2.6376   19.6325 C.ar    1  UNL1        0.0810
     22 C           3.9959   -2.1093   21.0355 C.ar    1  UNL1        0.0509
     23 C           3.5072   -0.6913   21.0140 C.ar    1  UNL1        0.1380
     24 C           1.0378    4.9338   17.6838 C.3     1  UNL1        0.0310
     25 C           1.5675    3.6146   18.1623 C.ar    1  UNL1       -0.0218
     26 C           2.9957    3.4958   18.6051 C.ar    1  UNL1       -0.0027
     27 C           3.5254    2.1765   19.0835 C.ar    1  UNL1        0.0189
     28 C           2.6269    0.9760   19.1192 C.ar    1  UNL1        0.0842
     29 C           1.1987    1.0947   18.6765 C.ar    1  UNL1        0.0189
     30 C           0.6690    2.4140   18.1980 C.ar    1  UNL1       -0.0027
     31 C           4.3474   -4.0155   19.1948 C.3     1  UNL1        0.0372
     32 C           2.9023   -4.3844   19.0354 C.3     1  UNL1        0.0060
     33 C           5.7926   -3.6466   19.3543 C.3     1  UNL1        0.0060
     34 C           4.7474   -5.3933   18.7572 C.3     1  UNL1        0.0060
@<TRIPOS>BOND
     1    24    25    1
     2    25    26   ar
     3    26    27   ar
     4    27    28   ar
     5    28    19    1
     6    19    20   ar
     7    20    21   ar
     8    21    31    1
     9    31    32    1
    10    31    33    1
    11    31    34    1
    12    21    22   ar
    13    22    23   ar
    14    23     1    1
    15     1     2   am
    16     2     3    2
    17     2     4   am
    18     4     7    1
    19     7     8   ar
    20     8     9   ar
    21     9    10   ar
    22    10    13    1
    23    13    14   ar
    24    14    15   ar
    25    15    16   ar
    26    16    17   ar
    27    17    18   ar
    28    10    11   ar
    29    11    12   ar
    30    28    29   ar
    31    29    30   ar
    32    30    25   ar
    33    23    19   ar
    34    12     7   ar
    35    18    13   ar
    36     1     5    1
    37     4     6    1
@<TRIPOS>MOLECULE
*****
 34 37 0 0 0
SMALL
GASTEIGER

@<TRIPOS>ATOM
      1 N           2.3468    1.6485   25.8720 N.am    1  UNL1       -0.2533
      2 C           0.9284    1.9515   25.4897 C.2     1  UNL1        0.3092
      3 O           0.1497    0.9735   24.6606 O.2     1  UNL1       -0.2521
      4 N           0.2884    3.2324   25.9366 N.am    1  UNL1       -0.2680
      5 H           2.8578    2.2903   26.4162 H       1  UNL1        0.1578
      6 H           0.7994    3.8743   26.4808 H       1  UNL1        0.1564
      7 C          -1.1300    3.5354   25.5543 C.ar    1  UNL1        0.0516
      8 C          -2.2026    3.5502   26.6028 C.ar    1  UNL1        0.0147
      9 C          -3.6210    3.8531   26.2205 C.ar    1  UNL1        0.0013
     10 C          -3.9670    4.1414   24.7898 C.ar    1  UNL1        0.0002
     11 C          -2.8945    4.1267   23.7412 C.ar    1  UNL1        0.0013
     12 C          -1.4760    3.8237   24.1235 C.ar    1  UNL1        0.0147
     13 C          -5.3855    4.4444   24.4075 C.ar    1  UNL1        0.0031
     14 C          -6.2528    5.2546   25.3247 C.ar    1  UNL1        0.0207
     15 C          -7.6712    5.5576   24.9424 C.ar    1  UNL1        0.0989
     16 N          -8.2224    5.0503   23.6429 N.ar    1  UNL1       -0.2423
     17 C          -7.3551    4.2401   22.7256 C.ar    1  UNL1        0.0989
     18 C          -5.9367    3.9371   23.1079 C.ar    1  UNL1        0.0207
     19 N           3.5500   -0.6959   26.3206 N.ar    1  UNL1       -0.2162
     20 N           4.0871   -1.7955   25.4533 N.ar    1  UNL1       -0.1683
     21 C           3.8558   -1.4117   24.0218 C.ar    1  UNL1        0.0810
     22 C           3.1757   -0.0749   24.0044 C.ar    1  UNL1        0.0509
     23 C           2.9867    0.3675   25.4252 C.ar    1  UNL1        0.1380
     24 C           3.6389   -0.5727   32.3187 C.3     1  UNL1        0.0310
     25 C           3.6166   -0.6035   30.8192 C.ar    1  UNL1       -0.0218
     26 C           4.9020   -0.6987   30.0519 C.ar    1  UNL1       -0.0027
     27 C           4.8797   -0.7295   28.5523 C.ar    1  UNL1        0.0189
     28 C           3.5722   -0.6651   27.8202 C.ar    1  UNL1        0.0842
     29 C           2.2869   -0.5699   28.5875 C.ar    1  UNL1        0.0189
     30 C           2.3091   -0.5391   30.0870 C.ar    1  UNL1       -0.0027
     31 C           4.2376   -2.2224   22.8189 C.3     1  UNL1        0.0372
     32 C           3.3068   -1.4053   21.9727 C.3     1  UNL1        0.0060
     33 C           5.1684   -3.0396   23.6650 C.3     1  UNL1        0.0060
     34 C           4.6194   -3.0332   21.6160 C.3     1  UNL1        0.0060
@<TRIPOS>BOND
     1    24    25    1
     2    25    26   ar
     3    26    27   ar
     4    27    28   ar
     5    28    19    1
     6    19    20   ar
     7    20    21   ar
     8    21    31    1
     9    31    32    1
    10    31    33    1
    11    31    34    1
    12    21    22   ar
    13    22    23   ar
    14    23     1    1
    15     1     2   am
    16     2     3    2
    17     2     4   am
    18     4     7    1
    19     7     8   ar
    20     8     9   ar
    21     9    10   ar
    22    10    13    1
    23    13    14   ar
    24    14    15   ar
    25    15    16   ar
    26    16    17   ar
    27    17    18   ar
    28    10    11   ar
    29    11    12   ar
    30    28    29   ar
    31    29    30   ar
    32    30    25   ar
    33    23    19   ar
    34    12     7   ar
    35    18    13   ar
    36     1     5    1
    37     4     6    1
@<TRIPOS>MOLECULE
*****
 34 37 0 0 0
SMALL
GASTEIGER

@<TRIPOS>ATOM
      1 N          -0.9312    4.2876   20.6944 N.am    1  UNL1       -0.2533
      2 C          -0.2392    2.9628   20.5683 C.2     1  UNL1        0.3092
      3 O          -1.0390    1.6939   20.5879 O.2     1  UNL1       -0.2521
      4 N           1.2527    2.9068   20.4225 N.am    1  UNL1       -0.2680
      5 H          -0.4063    5.1203   20.6815 H       1  UNL1        0.1578
      6 H           1.7776    3.7395   20.4096 H       1  UNL1        0.1564
      7 C           1.9447    1.5819   20.2963 C.ar    1  UNL1        0.0516
      8 C           2.5175    1.1576   18.9765 C.ar    1  UNL1        0.0147
      9 C           3.2095   -0.1672   18.8504 C.ar    1  UNL1        0.0013
     10 C           3.3287   -1.0678   20.0439 C.ar    1  UNL1        0.0002
     11 C           2.7559   -0.6435   21.3637 C.ar    1  UNL1        0.0013
     12 C           2.0639    0.6814   21.4899 C.ar    1  UNL1        0.0147
     13 C           4.0207   -2.3926   19.9178 C.ar    1  UNL1        0.0031
     14 C           3.3194   -3.5458   19.2634 C.ar    1  UNL1        0.0207
     15 C           4.0114   -4.8707   19.1372 C.ar    1  UNL1        0.0989
     16 N           5.4047   -5.0423   19.6655 N.ar    1  UNL1       -0.2423
     17 C           6.1061   -3.8891   20.3199 C.ar    1  UNL1        0.0989
     18 C           5.4141   -2.5643   20.4460 C.ar    1  UNL1        0.0207
     19 N          -3.1781    4.4924   22.1278 N.ar    1  UNL1       -0.2162
     20 N          -4.6435    4.5015   21.8074 N.ar    1  UNL1       -0.1683
     21 C          -4.7941    4.3582   20.3218 C.ar    1  UNL1        0.0810
     22 C          -3.4218    4.2607   19.7241 C.ar    1  UNL1        0.0509
     23 C          -2.4231    4.3436   20.8403 C.ar    1  UNL1        0.1380
     24 C          -0.7614    4.9681   27.5989 C.3     1  UNL1        0.0310
     25 C          -1.3655    4.8491   26.2311 C.ar    1  UNL1       -0.0218
     26 C          -1.7610    6.0834   25.4760 C.ar    1  UNL1       -0.0027
     27 C          -2.3652    5.9645   24.1082 C.ar    1  UNL1        0.0189
     28 C          -2.5739    4.6113   23.4956 C.ar    1  UNL1        0.0842
     29 C          -2.1785    3.3771   24.2507 C.ar    1  UNL1        0.0189
     30 C          -1.5743    3.4960   25.6185 C.ar    1  UNL1       -0.0027
     31 C          -6.0895    4.3194   19.5666 C.3     1  UNL1        0.0372
     32 C          -5.4019    3.6355   18.4223 C.3     1  UNL1        0.0060
     33 C          -6.7771    5.0033   20.7109 C.3     1  UNL1        0.0060
     34 C          -7.3849    4.2806   18.8114 C.3     1  UNL1        0.0060
@<TRIPOS>BOND
     1    24    25    1
     2    25    26   ar
     3    26    27   ar
     4    27    28   ar
     5    28    19    1
     6    19    20   ar
     7    20    21   ar
     8    21    31    1
     9    31    32    1
    10    31    33    1
    11    31    34    1
    12    21    22   ar
    13    22    23   ar
    14    23     1    1
    15     1     2   am
    16     2     3    2
    17     2     4   am
    18     4     7    1
    19     7     8   ar
    20     8     9   ar
    21     9    10   ar
    22    10    13    1
    23    13    14   ar
    24    14    15   ar
    25    15    16   ar
    26    16    17   ar
    27    17    18   ar
    28    10    11   ar
    29    11    12   ar
    30    28    29   ar
    31    29    30   ar
    32    30    25   ar
    33    23    19   ar
    34    12     7   ar
    35    18    13   ar
    36     1     5    1
    37     4     6    1
@<TRIPOS>MOLECULE
*****
 34 37 0 0 0
SMALL
GASTEIGER

@<TRIPOS>ATOM
      1 N           3.5480   -1.1536   31.9204 N.am    1  UNL1       -0.2533
      2 C           2.7699   -0.2913   30.9714 C.2     1  UNL1        0.3092
      3 O           2.7218    1.1941   31.1751 O.2     1  UNL1       -0.2521
      4 N           2.0398   -0.9141   29.8185 N.am    1  UNL1       -0.2680
      5 H           3.5795   -2.1285   31.7866 H       1  UNL1        0.1578
      6 H           2.0713   -1.8889   29.6847 H       1  UNL1        0.1564
      7 C           1.2616   -0.0516   28.8695 C.ar    1  UNL1        0.0516
      8 C           1.9663    0.6589   27.7520 C.ar    1  UNL1        0.0147
      9 C           1.1881    1.5213   26.8030 C.ar    1  UNL1        0.0013
     10 C          -0.2945    1.6735   26.9714 C.ar    1  UNL1        0.0002
     11 C          -0.9992    0.9631   28.0889 C.ar    1  UNL1        0.0013
     12 C          -0.2210    0.1006   29.0379 C.ar    1  UNL1        0.0147
     13 C          -1.0727    2.5360   26.0224 C.ar    1  UNL1        0.0031
     14 C          -2.3309    3.2109   26.4820 C.ar    1  UNL1        0.0207
     15 C          -3.1090    4.0734   25.5330 C.ar    1  UNL1        0.0989
     16 N          -2.6289    4.2610   24.1244 N.ar    1  UNL1       -0.2423
     17 C          -1.3706    3.5860   23.6647 C.ar    1  UNL1        0.0989
     18 C          -0.5925    2.7235   24.6138 C.ar    1  UNL1        0.0207
     19 N           5.6694   -0.8678   33.5213 N.ar    1  UNL1       -0.2162
     20 N           5.9962   -0.0069   34.7054 N.ar    1  UNL1       -0.1683
     21 C           4.8069    0.8620   34.9891 C.ar    1  UNL1        0.0810
     22 C           3.7450    0.5382   33.9804 C.ar    1  UNL1        0.0509
     23 C           4.2781   -0.5308   33.0732 C.ar    1  UNL1        0.1380
     24 C           9.2913   -4.9432   31.0168 C.3     1  UNL1        0.0310
     25 C           8.3859   -3.9243   31.6429 C.ar    1  UNL1       -0.0218
     26 C           6.9114   -4.1851   31.7318 C.ar    1  UNL1       -0.0027
     27 C           6.0059   -3.1663   32.3579 C.ar    1  UNL1        0.0189
     28 C           6.5749   -1.8866   32.8952 C.ar    1  UNL1        0.0842
     29 C           8.0493   -1.6258   32.8063 C.ar    1  UNL1        0.0189
     30 C           8.9548   -2.6447   32.1802 C.ar    1  UNL1       -0.0027
     31 C           4.6985    1.8766   36.0886 C.3     1  UNL1        0.0372
     32 C           4.2854    0.7969   37.0443 C.3     1  UNL1        0.0060
     33 C           5.1117    2.9564   35.1329 C.3     1  UNL1        0.0060
     34 C           4.5902    2.8912   37.1881 C.3     1  UNL1        0.0060
@<TRIPOS>BOND
     1    24    25    1
     2    25    26   ar
     3    26    27   ar
     4    27    28   ar
     5    28    19    1
     6    19    20   ar
     7    20    21   ar
     8    21    31    1
     9    31    32    1
    10    31    33    1
    11    31    34    1
    12    21    22   ar
    13    22    23   ar
    14    23     1    1
    15     1     2   am
    16     2     3    2
    17     2     4   am
    18     4     7    1
    19     7     8   ar
    20     8     9   ar
    21     9    10   ar
    22    10    13    1
    23    13    14   ar
    24    14    15   ar
    25    15    16   ar
    26    16    17   ar
    27    17    18   ar
    28    10    11   ar
    29    11    12   ar
    30    28    29   ar
    31    29    30   ar
    32    30    25   ar
    33    23    19   ar
    34    12     7   ar
    35    18    13   ar
    36     1     5    1
    37     4     6    1
@<TRIPOS>MOLECULE
*****
 34 37 0 0 0
SMALL
GASTEIGER

@<TRIPOS>ATOM
      1 N           6.1454   -1.1013   24.9276 N.am    1  UNL1       -0.2533
      2 C           4.7464   -0.5801   25.0728 C.2     1  UNL1        0.3092
      3 O           3.6711   -1.4639   25.6321 O.2     1  UNL1       -0.2521
      4 N           4.4226    0.8247   24.6587 N.am    1  UNL1       -0.2680
      5 H           6.8511   -0.5212   24.5605 H       1  UNL1        0.1578
      6 H           5.1283    1.4048   24.2916 H       1  UNL1        0.1564
      7 C           3.0235    1.3458   24.8039 C.ar    1  UNL1        0.0516
      8 C           1.9732    0.9635   23.8036 C.ar    1  UNL1        0.0147
      9 C           0.5741    1.4846   23.9488 C.ar    1  UNL1        0.0013
     10 C           0.2253    2.3880   25.0943 C.ar    1  UNL1        0.0002
     11 C           1.2756    2.7703   26.0946 C.ar    1  UNL1        0.0013
     12 C           2.6747    2.2492   25.9494 C.ar    1  UNL1        0.0147
     13 C          -1.1738    2.9090   25.2395 C.ar    1  UNL1        0.0031
     14 C          -1.9782    3.2481   24.0197 C.ar    1  UNL1        0.0207
     15 C          -3.3773    3.7692   24.1649 C.ar    1  UNL1        0.0989
     16 N          -3.9719    3.9512   25.5300 N.ar    1  UNL1       -0.2423
     17 C          -3.1674    3.6121   26.7498 C.ar    1  UNL1        0.0989
     18 C          -1.7684    3.0910   26.6045 C.ar    1  UNL1        0.0207
     19 N           6.4322   -3.7168   24.4569 N.ar    1  UNL1       -0.2162
     20 N           6.8271   -4.9059   25.2817 N.ar    1  UNL1       -0.1683
     21 C           7.1082   -4.4300   26.6762 C.ar    1  UNL1        0.0810
     22 C           6.8870   -2.9469   26.7133 C.ar    1  UNL1        0.0509
     23 C           6.4693   -2.5061   25.3417 C.ar    1  UNL1        0.1380
     24 C           4.9627   -3.7905   18.6401 C.3     1  UNL1        0.0310
     25 C           5.3301   -3.7721   20.0943 C.ar    1  UNL1       -0.0218
     26 C           6.7595   -3.9580   20.5092 C.ar    1  UNL1       -0.0027
     27 C           7.1269   -3.9396   21.9634 C.ar    1  UNL1        0.0189
     28 C           6.0649   -3.7353   23.0027 C.ar    1  UNL1        0.0842
     29 C           4.6355   -3.5493   22.5879 C.ar    1  UNL1        0.0189
     30 C           4.2681   -3.5678   21.1337 C.ar    1  UNL1       -0.0027
     31 C           7.5354   -5.2869   27.8309 C.3     1  UNL1        0.0372
     32 C           6.1612   -5.1756   28.4219 C.3     1  UNL1        0.0060
     33 C           8.9095   -5.3982   27.2398 C.3     1  UNL1        0.0060
     34 C           7.9626   -6.1438   28.9855 C.3     1  UNL1        0.0060
@<TRIPOS>BOND
     1    24    25    1
     2    25    26   ar
     3    26    27   ar
     4    27    28   ar
     5    28    19    1
     6    19    20   ar
     7    20    21   ar
     8    21    31    1
     9    31    32    1
    10    31    33    1
    11    31    34    1
    12    21    22   ar
    13    22    23   ar
    14    23     1    1
    15     1     2   am
    16     2     3    2
    17     2     4   am
    18     4     7    1
    19     7     8   ar
    20     8     9   ar
    21     9    10   ar
    22    10    13    1
    23    13    14   ar
    24    14    15   ar
    25    15    16   ar
    26    16    17   ar
    27    17    18   ar
    28    10    11   ar
    29    11    12   ar
    30    28    29   ar
    31    29    30   ar
    32    30    25   ar
    33    23    19   ar
    34    12     7   ar
    35    18    13   ar
    36     1     5    1
    37     4     6    1
@<TRIPOS>MOLECULE
*****
 34 37 0 0 0
SMALL
GASTEIGER

@<TRIPOS>ATOM
      1 N           3.5920    2.0388   31.6131 N.am    1  UNL1       -0.2533
      2 C           2.3561    2.3125   30.8083 C.2     1  UNL1        0.3092
      3 O           1.0308    2.4591   31.4955 O.2     1  UNL1       -0.2521
      4 N           2.4454    2.4395   29.3164 N.am    1  UNL1       -0.2680
      5 H           4.4618    1.9426   31.1620 H       1  UNL1        0.1578
      6 H           3.3152    2.3433   28.8653 H       1  UNL1        0.1564
      7 C           1.2095    2.7132   28.5116 C.ar    1  UNL1        0.0516
      8 C           0.7480    4.1250   28.3026 C.ar    1  UNL1        0.0147
      9 C          -0.4880    4.3987   27.4979 C.ar    1  UNL1        0.0013
     10 C          -1.2624    3.2606   26.9022 C.ar    1  UNL1        0.0002
     11 C          -0.8009    1.8487   27.1112 C.ar    1  UNL1        0.0013
     12 C           0.4351    1.5751   27.9160 C.ar    1  UNL1        0.0147
     13 C          -2.4983    3.5342   26.0975 C.ar    1  UNL1        0.0031
     14 C          -3.7589    3.9701   26.7837 C.ar    1  UNL1        0.0207
     15 C          -4.9948    4.2438   25.9790 C.ar    1  UNL1        0.0989
     16 N          -4.9702    4.0815   24.4880 N.ar    1  UNL1       -0.2423
     17 C          -3.7096    3.6456   23.8017 C.ar    1  UNL1        0.0989
     18 C          -2.4737    3.3720   24.6065 C.ar    1  UNL1        0.0207
     19 N           4.0941    0.8097   33.9330 N.ar    1  UNL1       -0.2162
     20 N           3.7632    1.0813   35.3706 N.ar    1  UNL1       -0.1683
     21 C           2.9673    2.3513   35.4311 C.ar    1  UNL1        0.0810
     22 C           2.8062    2.8645   34.0309 C.ar    1  UNL1        0.0509
     23 C           3.5027    1.9118   33.1050 C.ar    1  UNL1        0.1380
     24 C           7.2325   -3.8645   31.8588 C.3     1  UNL1        0.0310
     25 C           6.4479   -2.6960   32.3773 C.ar    1  UNL1       -0.0218
     26 C           5.0648   -2.9026   32.9197 C.ar    1  UNL1       -0.0027
     27 C           4.2802   -1.7340   33.4382 C.ar    1  UNL1        0.0189
     28 C           4.8787   -0.3589   33.4144 C.ar    1  UNL1        0.0842
     29 C           6.2619   -0.1522   32.8721 C.ar    1  UNL1        0.0189
     30 C           7.0465   -1.3208   32.3535 C.ar    1  UNL1       -0.0027
     31 C           2.4272    2.9950   36.6737 C.3     1  UNL1        0.0372
     32 C           1.9173    4.1448   35.8564 C.3     1  UNL1        0.0060
     33 C           2.9370    1.8451   37.4909 C.3     1  UNL1        0.0060
     34 C           1.8871    3.6386   37.9162 C.3     1  UNL1        0.0060
@<TRIPOS>BOND
     1    24    25    1
     2    25    26   ar
     3    26    27   ar
     4    27    28   ar
     5    28    19    1
     6    19    20   ar
     7    20    21   ar
     8    21    31    1
     9    31    32    1
    10    31    33    1
    11    31    34    1
    12    21    22   ar
    13    22    23   ar
    14    23     1    1
    15     1     2   am
    16     2     3    2
    17     2     4   am
    18     4     7    1
    19     7     8   ar
    20     8     9   ar
    21     9    10   ar
    22    10    13    1
    23    13    14   ar
    24    14    15   ar
    25    15    16   ar
    26    16    17   ar
    27    17    18   ar
    28    10    11   ar
    29    11    12   ar
    30    28    29   ar
    31    29    30   ar
    32    30    25   ar
    33    23    19   ar
    34    12     7   ar
    35    18    13   ar
    36     1     5    1
    37     4     6    1
@<TRIPOS>MOLECULE
*****
 34 37 0 0 0
SMALL
GASTEIGER

@<TRIPOS>ATOM
      1 N           5.0714   -2.3259   27.7024 N.am    1  UNL1       -0.2533
      2 C           5.2552   -2.0310   26.2433 C.2     1  UNL1        0.3092
      3 O           6.6190   -1.7059   25.7098 O.2     1  UNL1       -0.2521
      4 N           4.0754   -2.0610   25.3176 N.am    1  UNL1       -0.2680
      5 H           4.1763   -2.5393   28.0525 H       1  UNL1        0.1578
      6 H           3.1803   -2.2744   25.6676 H       1  UNL1        0.1564
      7 C           4.2592   -1.7660   23.8584 C.ar    1  UNL1        0.0516
      8 C           4.4115   -2.8919   22.8790 C.ar    1  UNL1        0.0147
      9 C           4.5954   -2.5969   21.4198 C.ar    1  UNL1        0.0013
     10 C           4.6270   -1.1761   20.9400 C.ar    1  UNL1        0.0002
     11 C           4.4748   -0.0502   21.9194 C.ar    1  UNL1        0.0013
     12 C           4.2909   -0.3452   23.3786 C.ar    1  UNL1        0.0147
     13 C           4.8109   -0.8811   19.4808 C.ar    1  UNL1        0.0031
     14 C           3.6537   -1.0180   18.5363 C.ar    1  UNL1        0.0207
     15 C           3.8376   -0.7230   17.0772 C.ar    1  UNL1        0.0989
     16 N           5.1787   -0.2911   16.5625 N.ar    1  UNL1       -0.2423
     17 C           6.3359   -0.1542   17.5071 C.ar    1  UNL1        0.0989
     18 C           6.1520   -0.4492   18.9662 C.ar    1  UNL1        0.0207
     19 N           7.4361   -3.2143   28.5765 N.ar    1  UNL1       -0.2162
     20 N           8.3705   -2.8281   29.6846 N.ar    1  UNL1       -0.1683
     21 C           7.7631   -1.6711   30.4211 C.ar    1  UNL1        0.0810
     22 C           6.4534   -1.3421   29.7682 C.ar    1  UNL1        0.0509
     23 C           6.2513   -2.2959   28.6282 C.ar    1  UNL1        0.1380
     24 C           8.2884   -7.6530   24.6304 C.3     1  UNL1        0.0310
     25 C           8.0753   -6.5433   25.6170 C.ar    1  UNL1       -0.0218
     26 C           9.0120   -5.3720   25.6422 C.ar    1  UNL1       -0.0027
     27 C           8.7990   -4.2624   26.6287 C.ar    1  UNL1        0.0189
     28 C           7.6492   -4.3239   27.5900 C.ar    1  UNL1        0.0842
     29 C           6.7125   -5.4952   27.5648 C.ar    1  UNL1        0.0189
     30 C           6.9255   -6.6049   26.5783 C.ar    1  UNL1       -0.0027
     31 C           8.3607   -0.9667   31.6029 C.3     1  UNL1        0.0372
     32 C           8.5701    0.2602   30.7658 C.3     1  UNL1        0.0060
     33 C           8.1512   -2.1936   32.4400 C.3     1  UNL1        0.0060
     34 C           8.9582   -0.2623   32.7848 C.3     1  UNL1        0.0060
@<TRIPOS>BOND
     1    24    25    1
     2    25    26   ar
     3    26    27   ar
     4    27    28   ar
     5    28    19    1
     6    19    20   ar
     7    20    21   ar
     8    21    31    1
     9    31    32    1
    10    31    33    1
    11    31    34    1
    12    21    22   ar
    13    22    23   ar
    14    23     1    1
    15     1     2   am
    16     2     3    2
    17     2     4   am
    18     4     7    1
    19     7     8   ar
    20     8     9   ar
    21     9    10   ar
    22    10    13    1
    23    13    14   ar
    24    14    15   ar
    25    15    16   ar
    26    16    17   ar
    27    17    18   ar
    28    10    11   ar
    29    11    12   ar
    30    28    29   ar
    31    29    30   ar
    32    30    25   ar
    33    23    19   ar
    34    12     7   ar
    35    18    13   ar
    36     1     5    1
    37     4     6    1
