@<TRIPOS>MOLECULE
*****
 31 34 0 0 0
SMALL
GASTEIGER

@<TRIPOS>ATOM
      1 C          -7.9120  -18.1578   21.5937 C.2     1  UNL1        0.2420
      2 O          -9.3652  -18.5135   21.4869 O.2     1  UNL1       -0.2734
      3 N          -7.4098  -17.4060   22.7908 N.am    1  UNL1       -0.2760
      4 C          -5.9565  -17.0503   22.8975 C.3     1  UNL1        0.0983
      5 C          -5.4544  -16.2986   24.0945 C.3     1  UNL1        0.0476
      6 C          -6.4055  -15.9026   25.1847 C.ar    1  UNL1       -0.0229
      7 C          -5.9034  -15.1509   26.3817 C.ar    1  UNL1       -0.0045
      8 C          -6.8545  -14.7549   27.4718 C.ar    1  UNL1       -0.0003
      9 C          -8.3078  -15.1107   27.3651 C.ar    1  UNL1       -0.0003
     10 C          -8.8099  -15.8624   26.1681 C.ar    1  UNL1       -0.0030
     11 C          -7.8588  -16.2583   25.0780 C.ar    1  UNL1       -0.0082
     12 C          -8.3609  -17.0101   23.8809 C.3     1  UNL1        0.0975
     13 C          -9.8142  -17.3658   23.7741 C.3     1  UNL1        0.0224
     14 C         -10.7503  -16.4753   23.0120 C.3     1  UNL1        0.0020
     15 C         -12.2036  -16.8310   22.9052 C.3     1  UNL1        0.0001
     16 C         -12.7208  -18.0773   23.5606 C.3     1  UNL1        0.0000
     17 C         -11.7847  -18.9677   24.3227 C.3     1  UNL1        0.0001
     18 C         -10.3315  -18.6120   24.4295 C.3     1  UNL1        0.0020
     19 C          -6.9608  -18.5538   20.5036 C.3     1  UNL1        0.1552
     20 N          -6.8079  -19.9984   20.1298 N.3     1  UNL1       -0.2895
     21 H          -7.6093  -20.4909   20.5241 H       1  UNL1        0.1237
     22 C          -5.5838  -20.7564   20.5507 C.3     1  UNL1        0.0738
     23 C          -4.2273  -20.2982   20.1038 C.3     1  UNL1        0.0465
     24 C          -2.9206  -18.0538   20.1768 C.ar    1  UNL1        0.1347
     25 C          -2.1903  -17.0006   20.9562 C.ar    1  UNL1        0.0366
     26 C          -2.0364  -17.1386   22.4419 C.ar    1  UNL1        0.0031
     27 C          -2.6127  -18.3298   23.1482 C.ar    1  UNL1       -0.0001
     28 C          -3.3430  -19.3830   22.3688 C.ar    1  UNL1       -0.0012
     29 C          -3.4970  -19.2450   20.8831 C.ar    1  UNL1        0.0132
     30 C          -1.8847  -17.5797   17.8418 C.3     1  UNL1        0.2525
     31 O          -3.0746  -17.9158   18.6911 O.3     1  UNL1       -0.4717
@<TRIPOS>BOND
     1    30    31    1
     2    31    24    1
     3    24    25   ar
     4    25    26   ar
     5    26    27   ar
     6    27    28   ar
     7    28    29   ar
     8    29    23    1
     9    23    22    1
    10    22    20    1
    11    20    19    1
    12    19     1    1
    13     1     2    2
    14     1     3   am
    15     3     4    1
    16     4     5    1
    17     5     6    1
    18     6     7   ar
    19     7     8   ar
    20     8     9   ar
    21     9    10   ar
    22    10    11   ar
    23    11    12    1
    24    12    13    1
    25    13    14    1
    26    14    15    1
    27    15    16    1
    28    16    17    1
    29    17    18    1
    30    29    24   ar
    31    12     3    1
    32    18    13    1
    33    11     6   ar
    34    20    21    1
@<TRIPOS>MOLECULE
*****
 31 34 0 0 0
SMALL
GASTEIGER

@<TRIPOS>ATOM
      1 C          -7.9039  -18.2218   21.5834 C.2     1  UNL1        0.2420
      2 O          -9.3618  -18.5509   21.4562 O.2     1  UNL1       -0.2734
      3 N          -7.4070  -17.4677   22.7811 N.am    1  UNL1       -0.2760
      4 C          -5.9491  -17.1386   22.9083 C.3     1  UNL1        0.0983
      5 C          -5.4521  -16.3844   24.1059 C.3     1  UNL1        0.0476
      6 C          -6.4131  -15.9593   25.1763 C.ar    1  UNL1       -0.0229
      7 C          -5.9162  -15.2052   26.3739 C.ar    1  UNL1       -0.0045
      8 C          -6.8772  -14.7801   27.4443 C.ar    1  UNL1       -0.0003
      9 C          -8.3351  -15.1092   27.3171 C.ar    1  UNL1       -0.0003
     10 C          -8.8320  -15.8634   26.1195 C.ar    1  UNL1       -0.0030
     11 C          -7.8710  -16.2884   25.0491 C.ar    1  UNL1       -0.0082
     12 C          -8.3680  -17.0426   23.8515 C.3     1  UNL1        0.0975
     13 C          -9.8259  -17.3717   23.7243 C.3     1  UNL1        0.0224
     14 C         -10.3736  -18.6118   24.3664 C.3     1  UNL1        0.0020
     15 C         -11.8315  -18.9409   24.2392 C.3     1  UNL1        0.0001
     16 C         -12.7417  -18.0299   23.4699 C.3     1  UNL1        0.0000
     17 C         -12.1939  -16.7899   22.8278 C.3     1  UNL1        0.0001
     18 C         -10.7360  -16.4608   22.9550 C.3     1  UNL1        0.0020
     19 C          -6.9429  -18.6469   20.5130 C.3     1  UNL1        0.1552
     20 N          -6.6187  -20.0999   20.3301 N.3     1  UNL1       -0.2895
     21 H          -7.1350  -20.6093   21.0473 H       1  UNL1        0.1237
     22 C          -5.1951  -20.5663   20.4078 C.3     1  UNL1        0.0738
     23 C          -4.1741  -19.7413   21.1336 C.3     1  UNL1        0.0465
     24 C          -1.8684  -18.5464   21.0564 C.ar    1  UNL1        0.1347
     25 C          -0.8092  -17.8156   20.2855 C.ar    1  UNL1        0.0366
     26 C          -0.9965  -17.5490   18.8214 C.ar    1  UNL1        0.0031
     27 C          -2.2429  -18.0132   18.1279 C.ar    1  UNL1       -0.0001
     28 C          -3.3021  -18.7439   18.8987 C.ar    1  UNL1       -0.0012
     29 C          -3.1149  -19.0105   20.3629 C.ar    1  UNL1        0.0132
     30 C          -2.2972  -17.8954   23.5347 C.3     1  UNL1        0.2525
     31 O          -1.6812  -18.8130   22.5205 O.3     1  UNL1       -0.4717
@<TRIPOS>BOND
     1    30    31    1
     2    31    24    1
     3    24    25   ar
     4    25    26   ar
     5    26    27   ar
     6    27    28   ar
     7    28    29   ar
     8    29    23    1
     9    23    22    1
    10    22    20    1
    11    20    19    1
    12    19     1    1
    13     1     2    2
    14     1     3   am
    15     3     4    1
    16     4     5    1
    17     5     6    1
    18     6     7   ar
    19     7     8   ar
    20     8     9   ar
    21     9    10   ar
    22    10    11   ar
    23    11    12    1
    24    12    13    1
    25    13    14    1
    26    14    15    1
    27    15    16    1
    28    16    17    1
    29    17    18    1
    30    29    24   ar
    31    12     3    1
    32    18    13    1
    33    11     6   ar
    34    20    21    1
@<TRIPOS>MOLECULE
*****
 31 34 0 0 0
SMALL
GASTEIGER

@<TRIPOS>ATOM
      1 C          -6.5663  -18.5563   21.5056 C.2     1  UNL1        0.2420
      2 O          -5.1254  -18.5815   21.0893 O.2     1  UNL1       -0.2734
      3 N          -6.9807  -17.7901   22.7268 N.am    1  UNL1       -0.2760
      4 C          -8.4216  -17.7648   23.1432 C.3     1  UNL1        0.0983
      5 C          -8.8361  -16.9987   24.3643 C.3     1  UNL1        0.0476
      6 C          -7.8097  -16.2578   25.1692 C.ar    1  UNL1       -0.0229
      7 C          -8.2242  -15.4917   26.3903 C.ar    1  UNL1       -0.0045
      8 C          -7.1979  -14.7508   27.1951 C.ar    1  UNL1       -0.0003
      9 C          -5.7571  -14.7760   26.7787 C.ar    1  UNL1       -0.0003
     10 C          -5.3426  -15.5422   25.5576 C.ar    1  UNL1       -0.0030
     11 C          -6.3689  -16.2830   24.7528 C.ar    1  UNL1       -0.0082
     12 C          -5.9544  -17.0492   23.5316 C.3     1  UNL1        0.0975
     13 C          -4.5136  -17.0745   23.1153 C.3     1  UNL1        0.0224
     14 C          -3.6611  -18.2664   23.4357 C.3     1  UNL1        0.0020
     15 C          -2.2202  -18.2916   23.0194 C.3     1  UNL1        0.0001
     16 C          -1.6319  -17.1250   22.2826 C.3     1  UNL1        0.0000
     17 C          -2.4844  -15.9331   21.9621 C.3     1  UNL1        0.0001
     18 C          -3.9252  -15.9079   22.3785 C.3     1  UNL1        0.0020
     19 C          -7.5926  -19.2972   20.7009 C.3     1  UNL1        0.1552
     20 N          -8.7472  -18.5567   20.0939 N.3     1  UNL1       -0.2895
     21 H          -9.2390  -18.0982   20.8610 H       1  UNL1        0.1237
     22 C          -9.7804  -19.2995   19.2996 C.3     1  UNL1        0.0738
     23 C         -11.1691  -19.4629   19.8425 C.3     1  UNL1        0.0465
     24 C         -12.2032  -17.9100   21.6506 C.ar    1  UNL1        0.1347
     25 C         -12.4863  -17.6025   23.0912 C.ar    1  UNL1        0.0366
     26 C         -12.0183  -18.5403   24.1643 C.ar    1  UNL1        0.0031
     27 C         -11.2673  -19.7857   23.7968 C.ar    1  UNL1       -0.0001
     28 C         -10.9842  -20.0932   22.3562 C.ar    1  UNL1       -0.0012
     29 C         -11.4522  -19.1554   21.2831 C.ar    1  UNL1        0.0132
     30 C         -11.7145  -15.9884   19.9717 C.3     1  UNL1        0.2525
     31 O         -12.6712  -16.9722   20.5775 O.3     1  UNL1       -0.4717
@<TRIPOS>BOND
     1    30    31    1
     2    31    24    1
     3    24    25   ar
     4    25    26   ar
     5    26    27   ar
     6    27    28   ar
     7    28    29   ar
     8    29    23    1
     9    23    22    1
    10    22    20    1
    11    20    19    1
    12    19     1    1
    13     1     2    2
    14     1     3   am
    15     3     4    1
    16     4     5    1
    17     5     6    1
    18     6     7   ar
    19     7     8   ar
    20     8     9   ar
    21     9    10   ar
    22    10    11   ar
    23    11    12    1
    24    12    13    1
    25    13    14    1
    26    14    15    1
    27    15    16    1
    28    16    17    1
    29    17    18    1
    30    29    24   ar
    31    12     3    1
    32    18    13    1
    33    11     6   ar
    34    20    21    1
@<TRIPOS>MOLECULE
*****
 31 34 0 0 0
SMALL
GASTEIGER

@<TRIPOS>ATOM
      1 C          -6.8024  -19.0349   22.1613 C.2     1  UNL1        0.2420
      2 O          -6.0709  -18.2506   23.2100 O.2     1  UNL1       -0.2734
      3 N          -8.2235  -18.6929   21.8240 N.am    1  UNL1       -0.2760
      4 C          -8.9550  -19.4772   20.7753 C.3     1  UNL1        0.0983
      5 C         -10.3760  -19.1352   20.4380 C.3     1  UNL1        0.0476
      6 C         -11.0656  -18.0089   21.1495 C.ar    1  UNL1       -0.0229
      7 C         -12.4865  -17.6669   20.8122 C.ar    1  UNL1       -0.0045
      8 C         -13.1760  -16.5407   21.5236 C.ar    1  UNL1       -0.0003
      9 C         -12.4445  -15.7564   22.5723 C.ar    1  UNL1       -0.0003
     10 C         -11.0235  -16.0983   22.9095 C.ar    1  UNL1       -0.0030
     11 C         -10.3340  -17.2246   22.1981 C.ar    1  UNL1       -0.0082
     12 C          -8.9130  -17.5666   22.5354 C.3     1  UNL1        0.0975
     13 C          -8.1814  -16.7823   23.5841 C.3     1  UNL1        0.0224
     14 C          -8.5165  -16.9736   25.0337 C.3     1  UNL1        0.0020
     15 C          -7.7850  -16.1893   26.0824 C.3     1  UNL1        0.0001
     16 C          -6.7184  -15.2137   25.6815 C.3     1  UNL1        0.0000
     17 C          -6.3834  -15.0224   24.2320 C.3     1  UNL1        0.0001
     18 C          -7.1149  -15.8067   23.1833 C.3     1  UNL1        0.0020
     19 C          -6.1130  -20.1611   21.4499 C.3     1  UNL1        0.1552
     20 N          -5.3566  -19.8960   20.1820 N.3     1  UNL1       -0.2895
     21 H          -5.9939  -20.0973   19.4114 H       1  UNL1        0.1237
     22 C          -4.0851  -20.6394   19.8978 C.3     1  UNL1        0.0738
     23 C          -2.8378  -20.3121   20.6640 C.3     1  UNL1        0.0465
     24 C          -1.8956  -17.9493   20.1358 C.ar    1  UNL1        0.1347
     25 C          -1.6231  -16.5355   20.5566 C.ar    1  UNL1        0.0366
     26 C          -2.0202  -16.0709   21.9264 C.ar    1  UNL1        0.0031
     27 C          -2.6899  -17.0201   22.8754 C.ar    1  UNL1       -0.0001
     28 C          -2.9624  -18.4338   22.4546 C.ar    1  UNL1       -0.0012
     29 C          -2.5653  -18.8984   21.0848 C.ar    1  UNL1        0.0132
     30 C          -1.8273  -17.5768   17.5654 C.3     1  UNL1        0.2525
     31 O          -1.4984  -18.4138   18.7660 O.3     1  UNL1       -0.4717
@<TRIPOS>BOND
     1    30    31    1
     2    31    24    1
     3    24    25   ar
     4    25    26   ar
     5    26    27   ar
     6    27    28   ar
     7    28    29   ar
     8    29    23    1
     9    23    22    1
    10    22    20    1
    11    20    19    1
    12    19     1    1
    13     1     2    2
    14     1     3   am
    15     3     4    1
    16     4     5    1
    17     5     6    1
    18     6     7   ar
    19     7     8   ar
    20     8     9   ar
    21     9    10   ar
    22    10    11   ar
    23    11    12    1
    24    12    13    1
    25    13    14    1
    26    14    15    1
    27    15    16    1
    28    16    17    1
    29    17    18    1
    30    29    24   ar
    31    12     3    1
    32    18    13    1
    33    11     6   ar
    34    20    21    1
@<TRIPOS>MOLECULE
*****
 31 34 0 0 0
SMALL
GASTEIGER

@<TRIPOS>ATOM
      1 C         -13.5734   -7.6764   16.8844 C.2     1  UNL1        0.2420
      2 O         -14.2163   -8.8924   17.4828 O.2     1  UNL1       -0.2734
      3 N         -14.2981   -6.3630   16.8946 N.am    1  UNL1       -0.2760
      4 C         -13.6552   -5.1471   16.2962 C.3     1  UNL1        0.0983
      5 C         -14.3799   -3.8338   16.3063 C.3     1  UNL1        0.0476
      6 C         -15.7475   -3.7364   16.9148 C.ar    1  UNL1       -0.0229
      7 C         -16.4722   -2.4232   16.9249 C.ar    1  UNL1       -0.0045
      8 C         -17.8397   -2.3259   17.5333 C.ar    1  UNL1       -0.0003
      9 C         -18.4826   -3.5419   18.1317 C.ar    1  UNL1       -0.0003
     10 C         -17.7580   -4.8551   18.1216 C.ar    1  UNL1       -0.0030
     11 C         -16.3904   -4.9524   17.5131 C.ar    1  UNL1       -0.0082
     12 C         -15.6657   -6.2658   17.5030 C.3     1  UNL1        0.0975
     13 C         -16.3086   -7.4817   18.1014 C.3     1  UNL1        0.0224
     14 C         -16.0711   -7.8233   19.5426 C.3     1  UNL1        0.0020
     15 C         -16.7140   -9.0393   20.1410 C.3     1  UNL1        0.0001
     16 C         -17.5945   -9.9137   19.2981 C.3     1  UNL1        0.0000
     17 C         -17.8319   -9.5721   17.8570 C.3     1  UNL1        0.0001
     18 C         -17.1890   -8.3561   17.2586 C.3     1  UNL1        0.0020
     19 C         -12.2059   -7.7737   16.2760 C.3     1  UNL1        0.1552
     20 N         -10.9886   -7.6105   17.1371 N.3     1  UNL1       -0.2895
     21 H         -10.5187   -8.5155   17.1572 H       1  UNL1        0.1237
     22 C         -11.1322   -7.1653   18.5623 C.3     1  UNL1        0.0738
     23 C         -10.8535   -5.7392   18.9343 C.3     1  UNL1        0.0465
     24 C         -11.9082   -3.3690   19.0753 C.ar    1  UNL1        0.1347
     25 C         -13.0327   -2.4706   19.4978 C.ar    1  UNL1        0.0366
     26 C         -14.2268   -3.0439   20.2015 C.ar    1  UNL1        0.0031
     27 C         -14.2966   -4.5156   20.4828 C.ar    1  UNL1       -0.0001
     28 C         -13.1721   -5.4140   20.0605 C.ar    1  UNL1       -0.0012
     29 C         -11.9779   -4.8407   19.3567 C.ar    1  UNL1        0.0132
     30 C         -10.7764   -2.5091   16.9006 C.3     1  UNL1        0.2525
     31 O         -10.7140   -2.7957   18.3716 O.3     1  UNL1       -0.4717
@<TRIPOS>BOND
     1    30    31    1
     2    31    24    1
     3    24    25   ar
     4    25    26   ar
     5    26    27   ar
     6    27    28   ar
     7    28    29   ar
     8    29    23    1
     9    23    22    1
    10    22    20    1
    11    20    19    1
    12    19     1    1
    13     1     2    2
    14     1     3   am
    15     3     4    1
    16     4     5    1
    17     5     6    1
    18     6     7   ar
    19     7     8   ar
    20     8     9   ar
    21     9    10   ar
    22    10    11   ar
    23    11    12    1
    24    12    13    1
    25    13    14    1
    26    14    15    1
    27    15    16    1
    28    16    17    1
    29    17    18    1
    30    29    24   ar
    31    12     3    1
    32    18    13    1
    33    11     6   ar
    34    20    21    1
@<TRIPOS>MOLECULE
*****
 31 34 0 0 0
SMALL
GASTEIGER

@<TRIPOS>ATOM
      1 C          -8.1473  -16.7812   23.6584 C.2     1  UNL1        0.2420
      2 O          -9.4899  -16.3953   24.2047 O.2     1  UNL1       -0.2734
      3 N          -8.0552  -17.6527   22.4410 N.am    1  UNL1       -0.2760
      4 C          -6.7126  -18.0386   21.8947 C.3     1  UNL1        0.0983
      5 C          -6.6204  -18.9101   20.6773 C.3     1  UNL1        0.0476
      6 C          -7.8710  -19.3958   20.0062 C.ar    1  UNL1       -0.0229
      7 C          -7.7788  -20.2672   18.7888 C.ar    1  UNL1       -0.0045
      8 C          -9.0293  -20.7528   18.1178 C.ar    1  UNL1       -0.0003
      9 C         -10.3720  -20.3670   18.6641 C.ar    1  UNL1       -0.0003
     10 C         -10.4641  -19.4955   19.8814 C.ar    1  UNL1       -0.0030
     11 C          -9.2136  -19.0099   20.5525 C.ar    1  UNL1       -0.0082
     12 C          -9.3057  -18.1383   21.7699 C.3     1  UNL1        0.0975
     13 C         -10.6483  -17.7525   22.3162 C.3     1  UNL1        0.0224
     14 C         -11.3522  -18.6567   23.2842 C.3     1  UNL1        0.0020
     15 C         -12.6949  -18.2708   23.8305 C.3     1  UNL1        0.0001
     16 C         -13.3336  -16.9807   23.4087 C.3     1  UNL1        0.0000
     17 C         -12.6297  -16.0766   22.4407 C.3     1  UNL1        0.0001
     18 C         -11.2871  -16.4625   21.8945 C.3     1  UNL1        0.0020
     19 C          -6.8968  -16.2956   24.3295 C.3     1  UNL1        0.1552
     20 N          -5.7132  -15.8861   23.5040 N.3     1  UNL1       -0.2895
     21 H          -5.9098  -16.1726   22.5450 H       1  UNL1        0.1237
     22 C          -4.3476  -16.4076   23.8404 C.3     1  UNL1        0.0738
     23 C          -3.8425  -17.6615   23.1904 C.3     1  UNL1        0.0465
     24 C          -2.5899  -18.7556   21.1945 C.ar    1  UNL1        0.1347
     25 C          -1.5665  -18.6736   20.1007 C.ar    1  UNL1        0.0366
     26 C          -0.7726  -17.4154   19.9093 C.ar    1  UNL1        0.0031
     27 C          -1.0019  -16.2393   20.8116 C.ar    1  UNL1       -0.0001
     28 C          -2.0252  -16.3213   21.9053 C.ar    1  UNL1       -0.0012
     29 C          -2.8192  -17.5795   22.0967 C.ar    1  UNL1        0.0132
     30 C          -3.8816  -20.7753   20.1932 C.3     1  UNL1        0.2525
     31 O          -3.3838  -20.0138   21.3859 O.3     1  UNL1       -0.4717
@<TRIPOS>BOND
     1    30    31    1
     2    31    24    1
     3    24    25   ar
     4    25    26   ar
     5    26    27   ar
     6    27    28   ar
     7    28    29   ar
     8    29    23    1
     9    23    22    1
    10    22    20    1
    11    20    19    1
    12    19     1    1
    13     1     2    2
    14     1     3   am
    15     3     4    1
    16     4     5    1
    17     5     6    1
    18     6     7   ar
    19     7     8   ar
    20     8     9   ar
    21     9    10   ar
    22    10    11   ar
    23    11    12    1
    24    12    13    1
    25    13    14    1
    26    14    15    1
    27    15    16    1
    28    16    17    1
    29    17    18    1
    30    29    24   ar
    31    12     3    1
    32    18    13    1
    33    11     6   ar
    34    20    21    1
@<TRIPOS>MOLECULE
*****
 31 34 0 0 0
SMALL
GASTEIGER

@<TRIPOS>ATOM
      1 C          -6.2717  -18.8898   21.0011 C.2     1  UNL1        0.2420
      2 O          -4.8249  -18.9631   20.6122 O.2     1  UNL1       -0.2734
      3 N          -6.6868  -18.0872   22.1985 N.am    1  UNL1       -0.2760
      4 C          -8.1337  -18.0139   22.5873 C.3     1  UNL1        0.0983
      5 C          -8.5488  -17.2114   23.7846 C.3     1  UNL1        0.0476
      6 C          -7.5170  -16.4822   24.5932 C.ar    1  UNL1       -0.0229
      7 C          -7.9321  -15.6797   25.7905 C.ar    1  UNL1       -0.0045
      8 C          -6.9003  -14.9505   26.5990 C.ar    1  UNL1       -0.0003
      9 C          -5.4534  -15.0238   26.2101 C.ar    1  UNL1       -0.0003
     10 C          -5.0383  -15.8263   25.0128 C.ar    1  UNL1       -0.0030
     11 C          -6.0701  -16.5555   24.2043 C.ar    1  UNL1       -0.0082
     12 C          -5.6550  -17.3580   23.0069 C.3     1  UNL1        0.0975
     13 C          -4.2082  -17.4313   22.6181 C.3     1  UNL1        0.0224
     14 C          -3.4494  -18.7139   22.7899 C.3     1  UNL1        0.0020
     15 C          -2.0026  -18.7872   22.4011 C.3     1  UNL1        0.0001
     16 C          -1.3144  -17.5779   21.8404 C.3     1  UNL1        0.0000
     17 C          -2.0732  -16.2955   21.6685 C.3     1  UNL1        0.0001
     18 C          -3.5201  -16.2222   22.0574 C.3     1  UNL1        0.0020
     19 C          -7.3035  -19.6190   20.1926 C.3     1  UNL1        0.1552
     20 N          -8.4353  -18.8623   19.5631 N.3     1  UNL1       -0.2895
     21 H          -8.6246  -18.0609   20.1651 H       1  UNL1        0.1237
     22 C          -9.7502  -19.5428   19.3220 C.3     1  UNL1        0.0738
     23 C         -10.6172  -19.9321   20.4825 C.3     1  UNL1        0.0465
     24 C         -11.5460  -19.0763   22.7529 C.ar    1  UNL1        0.1347
     25 C         -12.2448  -18.0187   23.5549 C.ar    1  UNL1        0.0366
     26 C         -12.7137  -16.7594   22.8884 C.ar    1  UNL1        0.0031
     27 C         -12.4838  -16.5576   21.4199 C.ar    1  UNL1       -0.0001
     28 C         -11.7849  -17.6152   20.6180 C.ar    1  UNL1       -0.0012
     29 C         -11.3160  -18.8746   21.2845 C.ar    1  UNL1        0.0132
     30 C         -10.1531  -20.2608   24.5987 C.3     1  UNL1        0.2525
     31 O         -11.0771  -20.3356   23.4194 O.3     1  UNL1       -0.4717
@<TRIPOS>BOND
     1    30    31    1
     2    31    24    1
     3    24    25   ar
     4    25    26   ar
     5    26    27   ar
     6    27    28   ar
     7    28    29   ar
     8    29    23    1
     9    23    22    1
    10    22    20    1
    11    20    19    1
    12    19     1    1
    13     1     2    2
    14     1     3   am
    15     3     4    1
    16     4     5    1
    17     5     6    1
    18     6     7   ar
    19     7     8   ar
    20     8     9   ar
    21     9    10   ar
    22    10    11   ar
    23    11    12    1
    24    12    13    1
    25    13    14    1
    26    14    15    1
    27    15    16    1
    28    16    17    1
    29    17    18    1
    30    29    24   ar
    31    12     3    1
    32    18    13    1
    33    11     6   ar
    34    20    21    1
@<TRIPOS>MOLECULE
*****
 31 34 0 0 0
SMALL
GASTEIGER

@<TRIPOS>ATOM
      1 C          -6.4919  -19.0858   21.9989 C.2     1  UNL1        0.2420
      2 O          -6.8502  -18.3344   23.2467 O.2     1  UNL1       -0.2734
      3 N          -5.1680  -18.8488   21.3347 N.am    1  UNL1       -0.2760
      4 C          -4.8097  -19.6003   20.0869 C.3     1  UNL1        0.0983
      5 C          -3.4858  -19.3633   19.4227 C.3     1  UNL1        0.0476
      6 C          -2.5202  -18.3748   20.0063 C.ar    1  UNL1       -0.0229
      7 C          -1.1963  -18.1378   19.3421 C.ar    1  UNL1       -0.0045
      8 C          -0.2308  -17.1494   19.9256 C.ar    1  UNL1       -0.0003
      9 C          -0.5890  -16.3979   21.1734 C.ar    1  UNL1       -0.0003
     10 C          -1.9129  -16.6349   21.8376 C.ar    1  UNL1       -0.0030
     11 C          -2.8785  -17.6233   21.2541 C.ar    1  UNL1       -0.0082
     12 C          -4.2024  -17.8604   21.9183 C.3     1  UNL1        0.0975
     13 C          -4.5607  -17.1089   23.1660 C.3     1  UNL1        0.0224
     14 C          -4.0804  -17.5982   24.5002 C.3     1  UNL1        0.0020
     15 C          -4.4387  -16.8467   25.7480 C.3     1  UNL1        0.0001
     16 C          -5.2772  -15.6059   25.6616 C.3     1  UNL1        0.0000
     17 C          -5.7575  -15.1167   24.3274 C.3     1  UNL1        0.0001
     18 C          -5.3992  -15.8682   23.0797 C.3     1  UNL1        0.0020
     19 C          -7.4575  -20.0743   21.4153 C.3     1  UNL1        0.1552
     20 N          -8.0136  -19.8567   20.0394 N.3     1  UNL1       -0.2895
     21 H          -7.3008  -19.3551   19.5096 H       1  UNL1        0.1237
     22 C          -9.2976  -19.1021   19.8600 C.3     1  UNL1        0.0738
     23 C         -10.5848  -19.6806   20.3684 C.3     1  UNL1        0.0465
     24 C         -12.0690  -18.1290   21.8312 C.ar    1  UNL1        0.1347
     25 C         -12.5934  -17.7242   23.1770 C.ar    1  UNL1        0.0366
     26 C         -12.1579  -18.4661   24.4058 C.ar    1  UNL1        0.0031
     27 C         -11.1980  -19.6128   24.2888 C.ar    1  UNL1       -0.0001
     28 C         -10.6736  -20.0176   22.9430 C.ar    1  UNL1       -0.0012
     29 C         -11.1091  -19.2757   21.7142 C.ar    1  UNL1        0.0132
     30 C         -11.7081  -16.2142   20.1127 C.3     1  UNL1        0.2525
     31 O         -12.5045  -17.3872   20.6024 O.3     1  UNL1       -0.4717
@<TRIPOS>BOND
     1    30    31    1
     2    31    24    1
     3    24    25   ar
     4    25    26   ar
     5    26    27   ar
     6    27    28   ar
     7    28    29   ar
     8    29    23    1
     9    23    22    1
    10    22    20    1
    11    20    19    1
    12    19     1    1
    13     1     2    2
    14     1     3   am
    15     3     4    1
    16     4     5    1
    17     5     6    1
    18     6     7   ar
    19     7     8   ar
    20     8     9   ar
    21     9    10   ar
    22    10    11   ar
    23    11    12    1
    24    12    13    1
    25    13    14    1
    26    14    15    1
    27    15    16    1
    28    16    17    1
    29    17    18    1
    30    29    24   ar
    31    12     3    1
    32    18    13    1
    33    11     6   ar
    34    20    21    1
@<TRIPOS>MOLECULE
*****
 31 34 0 0 0
SMALL
GASTEIGER

@<TRIPOS>ATOM
      1 C          -6.7171  -18.9001   22.2813 C.2     1  UNL1        0.2420
      2 O          -6.9376  -18.1109   23.5376 O.2     1  UNL1       -0.2734
      3 N          -5.4214  -18.7765   21.5356 N.am    1  UNL1       -0.2760
      4 C          -5.2010  -19.5658   20.2792 C.3     1  UNL1        0.0983
      5 C          -3.9054  -19.4422   19.5335 C.3     1  UNL1        0.0476
      6 C          -2.8301  -18.5294   20.0442 C.ar    1  UNL1       -0.0229
      7 C          -1.5345  -18.4059   19.2985 C.ar    1  UNL1       -0.0045
      8 C          -0.4594  -17.4931   19.8092 C.ar    1  UNL1       -0.0003
      9 C          -0.6798  -16.7039   21.0655 C.ar    1  UNL1       -0.0003
     10 C          -1.9754  -16.8274   21.8112 C.ar    1  UNL1       -0.0030
     11 C          -3.0506  -17.7402   21.3005 C.ar    1  UNL1       -0.0082
     12 C          -4.3463  -17.8638   22.0462 C.3     1  UNL1        0.0975
     13 C          -4.5667  -17.0745   23.3026 C.3     1  UNL1        0.0224
     14 C          -4.1081  -17.6213   24.6220 C.3     1  UNL1        0.0020
     15 C          -4.3285  -16.8320   25.8784 C.3     1  UNL1        0.0001
     16 C          -5.0076  -15.4960   25.8154 C.3     1  UNL1        0.0000
     17 C          -5.4663  -14.9493   24.4960 C.3     1  UNL1        0.0001
     18 C          -5.2458  -15.7385   23.2397 C.3     1  UNL1        0.0020
     19 C          -7.7923  -19.8129   21.7706 C.3     1  UNL1        0.1552
     20 N          -9.2315  -19.5210   22.0762 N.3     1  UNL1       -0.2895
     21 H          -9.3247  -18.5060   22.1131 H       1  UNL1        0.1237
     22 C          -9.8561  -20.0590   23.3294 C.3     1  UNL1        0.0738
     23 C         -10.6069  -19.1404   24.2473 C.3     1  UNL1        0.0465
     24 C          -9.8231  -16.6733   24.0271 C.ar    1  UNL1        0.1347
     25 C          -9.1401  -15.4705   24.6076 C.ar    1  UNL1        0.0366
     26 C          -8.5581  -15.5321   25.9886 C.ar    1  UNL1        0.0031
     27 C          -8.6590  -16.7966   26.7893 C.ar    1  UNL1       -0.0001
     28 C          -9.3419  -17.9993   26.2088 C.ar    1  UNL1       -0.0012
     29 C          -9.9240  -17.9377   24.8277 C.ar    1  UNL1        0.0132
     30 C         -11.7910  -16.0763   22.4394 C.3     1  UNL1        0.2525
     31 O         -10.4051  -16.6116   22.6460 O.3     1  UNL1       -0.4717
@<TRIPOS>BOND
     1    30    31    1
     2    31    24    1
     3    24    25   ar
     4    25    26   ar
     5    26    27   ar
     6    27    28   ar
     7    28    29   ar
     8    29    23    1
     9    23    22    1
    10    22    20    1
    11    20    19    1
    12    19     1    1
    13     1     2    2
    14     1     3   am
    15     3     4    1
    16     4     5    1
    17     5     6    1
    18     6     7   ar
    19     7     8   ar
    20     8     9   ar
    21     9    10   ar
    22    10    11   ar
    23    11    12    1
    24    12    13    1
    25    13    14    1
    26    14    15    1
    27    15    16    1
    28    16    17    1
    29    17    18    1
    30    29    24   ar
    31    12     3    1
    32    18    13    1
    33    11     6   ar
    34    20    21    1
