@<TRIPOS>MOLECULE
*****
 23 25 0 0 0
SMALL
GASTEIGER

@<TRIPOS>ATOM
      1 C          -7.2432  -18.0352   21.9924 C.3     1  UNL1        0.1895
      2 C          -8.5486  -18.7710   22.0599 C.ar    1  UNL1        0.0172
      3 C          -9.4948  -18.7279   20.8969 C.ar    1  UNL1       -0.0008
      4 C         -10.8002  -19.4638   20.9644 C.ar    1  UNL1       -0.0002
      5 C         -11.1593  -20.2426   22.1950 C.ar    1  UNL1       -0.0000
      6 C         -10.2131  -20.2857   23.3581 C.ar    1  UNL1       -0.0002
      7 C          -8.9077  -19.5499   23.2906 C.ar    1  UNL1       -0.0008
      8 C          -5.9963  -18.7568   21.5744 C.3     1  UNL1        0.0615
      9 C          -5.6904  -19.2626   20.1958 C.3     1  UNL1        0.0224
     10 C          -4.3415  -19.9176   20.2311 C.3     1  UNL1        0.0687
     11 N          -3.8136  -19.8166   21.6315 N.3     1  UNL1       -0.2973
     12 C          -4.8364  -19.0991   22.4618 C.3     1  UNL1        0.0725
     13 H          -2.9373  -19.2945   21.6344 H       1  UNL1        0.1232
     14 O          -7.1847  -16.5779   22.3429 O.3     1  UNL1       -0.4730
     15 CL         -8.6019  -15.3911   27.1991 Cl      1  UNL1       -0.0813
     16 C          -7.5302  -15.5621   26.1637 C.ar    1  UNL1        0.0712
     17 C          -6.0952  -15.3105   26.5210 C.ar    1  UNL1        0.0133
     18 C          -5.0234  -15.4814   25.4856 C.ar    1  UNL1        0.0154
     19 C          -5.3866  -15.9039   24.0929 C.ar    1  UNL1        0.0924
     20 CL         -4.7004  -15.9419   23.6889 Cl      1  UNL1       -0.0791
     21 C          -6.8215  -16.1554   23.7356 C.ar    1  UNL1        0.1605
     22 C          -7.8933  -15.9845   24.7710 C.ar    1  UNL1        0.1029
     23 CL         -9.3282  -16.2361   24.4137 Cl      1  UNL1       -0.0782
@<TRIPOS>BOND
     1    15    16    1
     2    16    17   ar
     3    17    18   ar
     4    18    19   ar
     5    19    20    1
     6    19    21   ar
     7    21    14    1
     8     1    14    1
     9     1     2    1
    10     2     3   ar
    11     3     4   ar
    12     4     5   ar
    13     5     6   ar
    14     6     7   ar
    15     1     8    1
    16     8     9    1
    17     9    10    1
    18    10    11    1
    19    11    12    1
    20    21    22   ar
    21    22    23    1
    22    22    16   ar
    23     7     2   ar
    24    12     8    1
    25    11    13    1
@<TRIPOS>MOLECULE
*****
 23 25 0 0 0
SMALL
GASTEIGER

@<TRIPOS>ATOM
      1 C          -7.7492  -18.2738   22.6739 C.3     1  UNL1        0.1895
      2 C          -6.4397  -18.7011   22.0801 C.ar    1  UNL1        0.0172
      3 C          -6.4148  -19.4604   20.7868 C.ar    1  UNL1       -0.0008
      4 C          -5.1053  -19.8876   20.1929 C.ar    1  UNL1       -0.0002
      5 C          -3.8207  -19.5555   20.8924 C.ar    1  UNL1       -0.0000
      6 C          -3.8455  -18.7962   22.1858 C.ar    1  UNL1       -0.0002
      7 C          -5.1550  -18.3689   22.7797 C.ar    1  UNL1       -0.0008
      8 C          -7.8760  -16.9253   23.3185 C.3     1  UNL1        0.0615
      9 C          -8.2814  -16.6613   24.7384 C.3     1  UNL1        0.0224
     10 C          -8.2756  -15.1769   24.9538 C.3     1  UNL1        0.0687
     11 N          -7.8667  -14.5233   23.6670 N.3     1  UNL1       -0.2973
     12 C          -7.6197  -15.6040   22.6563 C.3     1  UNL1        0.0725
     13 H          -7.0144  -13.9814   23.8096 H       1  UNL1        0.1232
     14 O          -8.9319  -19.1950   22.6232 O.3     1  UNL1       -0.4730
     15 CL        -13.7856  -17.9603   24.0077 Cl      1  UNL1       -0.0813
     16 C         -12.7136  -18.0400   22.9615 C.ar    1  UNL1        0.0712
     17 C         -12.9965  -17.5820   21.5614 C.ar    1  UNL1        0.0133
     18 C         -11.9245  -17.6617   20.5153 C.ar    1  UNL1        0.0154
     19 C         -10.5696  -18.1994   20.8692 C.ar    1  UNL1        0.0924
     20 CL        -10.1384  -18.1666   20.1995 Cl      1  UNL1       -0.0791
     21 C         -10.2867  -18.6574   22.2693 C.ar    1  UNL1        0.1605
     22 C         -11.3588  -18.5777   23.3155 C.ar    1  UNL1        0.1029
     23 CL        -11.0759  -19.0356   24.7155 Cl      1  UNL1       -0.0782
@<TRIPOS>BOND
     1    15    16    1
     2    16    17   ar
     3    17    18   ar
     4    18    19   ar
     5    19    20    1
     6    19    21   ar
     7    21    14    1
     8     1    14    1
     9     1     2    1
    10     2     3   ar
    11     3     4   ar
    12     4     5   ar
    13     5     6   ar
    14     6     7   ar
    15     1     8    1
    16     8     9    1
    17     9    10    1
    18    10    11    1
    19    11    12    1
    20    21    22   ar
    21    22    23    1
    22    22    16   ar
    23     7     2   ar
    24    12     8    1
    25    11    13    1
@<TRIPOS>MOLECULE
*****
 23 25 0 0 0
SMALL
GASTEIGER

@<TRIPOS>ATOM
      1 C          -7.3663  -18.0521   22.1947 C.3     1  UNL1        0.1895
      2 C          -6.1801  -18.8211   21.6934 C.ar    1  UNL1        0.0172
      3 C          -4.8662  -18.7247   22.4106 C.ar    1  UNL1       -0.0008
      4 C          -3.6799  -19.4938   21.9093 C.ar    1  UNL1       -0.0002
      5 C          -3.8075  -20.3593   20.6910 C.ar    1  UNL1       -0.0000
      6 C          -5.1214  -20.4558   19.9738 C.ar    1  UNL1       -0.0002
      7 C          -6.3077  -19.6867   20.4750 C.ar    1  UNL1       -0.0008
      8 C          -8.6788  -18.7484   22.4012 C.3     1  UNL1        0.0615
      9 C          -8.9499  -19.8439   23.3893 C.3     1  UNL1        0.0224
     10 C         -10.3892  -20.2439   23.2547 C.3     1  UNL1        0.0687
     11 N         -11.0078  -19.3956   22.1832 N.3     1  UNL1       -0.2973
     12 C          -9.9507  -18.4713   21.6558 C.3     1  UNL1        0.0725
     13 H         -11.7787  -18.8533   22.5731 H       1  UNL1        0.1232
     14 O          -7.2402  -16.5867   22.4893 O.3     1  UNL1       -0.4730
     15 CL         -8.6063  -15.4725   27.3773 Cl      1  UNL1       -0.0813
     16 C          -7.5540  -15.5712   26.3130 C.ar    1  UNL1        0.0712
     17 C          -6.1323  -15.2112   26.6283 C.ar    1  UNL1        0.0133
     18 C          -5.0800  -15.3098   25.5639 C.ar    1  UNL1        0.0154
     19 C          -5.4493  -15.7683   24.1843 C.ar    1  UNL1        0.0924
     20 CL         -4.7737  -15.7584   23.7613 Cl      1  UNL1       -0.0791
     21 C          -6.8709  -16.1282   23.8690 C.ar    1  UNL1        0.1605
     22 C          -7.9233  -16.0296   24.9334 C.ar    1  UNL1        0.1029
     23 CL         -9.3449  -16.3895   24.6181 Cl      1  UNL1       -0.0782
@<TRIPOS>BOND
     1    15    16    1
     2    16    17   ar
     3    17    18   ar
     4    18    19   ar
     5    19    20    1
     6    19    21   ar
     7    21    14    1
     8     1    14    1
     9     1     2    1
    10     2     3   ar
    11     3     4   ar
    12     4     5   ar
    13     5     6   ar
    14     6     7   ar
    15     1     8    1
    16     8     9    1
    17     9    10    1
    18    10    11    1
    19    11    12    1
    20    21    22   ar
    21    22    23    1
    22    22    16   ar
    23     7     2   ar
    24    12     8    1
    25    11    13    1
@<TRIPOS>MOLECULE
*****
 23 25 0 0 0
SMALL
GASTEIGER

@<TRIPOS>ATOM
      1 C          -7.2762  -18.5696   22.4008 C.3     1  UNL1        0.1895
      2 C          -5.9319  -19.0007   21.8938 C.ar    1  UNL1        0.0172
      3 C          -4.6861  -18.5622   22.6049 C.ar    1  UNL1       -0.0008
      4 C          -3.3419  -18.9932   22.0979 C.ar    1  UNL1       -0.0002
      5 C          -3.2433  -19.8628   20.8797 C.ar    1  UNL1       -0.0000
      6 C          -4.4891  -20.3014   20.1685 C.ar    1  UNL1       -0.0002
      7 C          -5.8334  -19.8703   20.6755 C.ar    1  UNL1       -0.0008
      8 C          -7.4959  -17.1489   22.8292 C.3     1  UNL1        0.0615
      9 C          -7.2616  -16.5962   24.2038 C.3     1  UNL1        0.0224
     10 C          -7.6094  -15.1373   24.1823 C.3     1  UNL1        0.0687
     11 N          -8.0587  -14.7883   22.7943 N.3     1  UNL1       -0.2973
     12 C          -7.9886  -16.0316   21.9580 C.3     1  UNL1        0.0725
     13 H          -7.4470  -14.0724   22.4022 H       1  UNL1        0.1232
     14 O          -8.4007  -19.5592   22.4795 O.3     1  UNL1       -0.4730
     15 CL        -13.0039  -17.5264   21.1840 Cl      1  UNL1       -0.0813
     16 C         -12.0769  -18.0865   22.2218 C.ar    1  UNL1        0.0712
     17 C         -12.5246  -18.1903   23.6497 C.ar    1  UNL1        0.0133
     18 C         -11.5977  -18.7504   24.6875 C.ar    1  UNL1        0.0154
     19 C         -10.2230  -19.2067   24.2974 C.ar    1  UNL1        0.0924
     20 CL         -9.8803  -19.4694   24.9675 Cl      1  UNL1       -0.0791
     21 C          -9.7753  -19.1029   22.8696 C.ar    1  UNL1        0.1605
     22 C         -10.7023  -18.5428   21.8317 C.ar    1  UNL1        0.1029
     23 CL        -10.2546  -18.4389   20.4039 Cl      1  UNL1       -0.0782
@<TRIPOS>BOND
     1    15    16    1
     2    16    17   ar
     3    17    18   ar
     4    18    19   ar
     5    19    20    1
     6    19    21   ar
     7    21    14    1
     8     1    14    1
     9     1     2    1
    10     2     3   ar
    11     3     4   ar
    12     4     5   ar
    13     5     6   ar
    14     6     7   ar
    15     1     8    1
    16     8     9    1
    17     9    10    1
    18    10    11    1
    19    11    12    1
    20    21    22   ar
    21    22    23    1
    22    22    16   ar
    23     7     2   ar
    24    12     8    1
    25    11    13    1
@<TRIPOS>MOLECULE
*****
 23 25 0 0 0
SMALL
GASTEIGER

@<TRIPOS>ATOM
      1 C          -7.5282  -18.0359   21.7682 C.3     1  UNL1        0.1895
      2 C          -6.2234  -18.7129   21.4693 C.ar    1  UNL1        0.0172
      3 C          -5.9637  -19.2700   20.1011 C.ar    1  UNL1       -0.0008
      4 C          -4.6589  -19.9470   19.8022 C.ar    1  UNL1       -0.0002
      5 C          -3.6139  -20.0668   20.8715 C.ar    1  UNL1       -0.0000
      6 C          -3.8736  -19.5096   22.2398 C.ar    1  UNL1       -0.0002
      7 C          -5.1784  -18.8327   22.5387 C.ar    1  UNL1       -0.0008
      8 C          -8.8103  -18.8106   21.6897 C.3     1  UNL1        0.0615
      9 C          -9.4050  -19.6447   22.7854 C.3     1  UNL1        0.0224
     10 C         -10.6850  -20.2367   22.2746 C.3     1  UNL1        0.0687
     11 N         -10.8815  -19.7685   20.8631 N.3     1  UNL1       -0.2973
     12 C          -9.7228  -18.8871   20.5016 C.3     1  UNL1        0.0725
     13 H         -11.7524  -19.2424   20.7910 H       1  UNL1        0.1232
     14 O          -7.5508  -16.5844   22.1455 O.3     1  UNL1       -0.4730
     15 CL         -5.1116  -14.8798   26.4052 Cl      1  UNL1       -0.0813
     16 C          -6.3670  -15.3334   25.7209 C.ar    1  UNL1        0.0712
     17 C          -7.6583  -15.3883   26.4823 C.ar    1  UNL1        0.0133
     18 C          -8.9137  -15.8420   25.7981 C.ar    1  UNL1        0.0154
     19 C          -8.8779  -16.2406   24.3525 C.ar    1  UNL1        0.0924
     20 CL         -9.6237  -16.4490   24.1635 Cl      1  UNL1       -0.0791
     21 C          -7.5867  -16.1857   23.5911 C.ar    1  UNL1        0.1605
     22 C          -6.3312  -15.7321   24.2753 C.ar    1  UNL1        0.1029
     23 CL         -5.0400  -15.6771   23.5140 Cl      1  UNL1       -0.0782
@<TRIPOS>BOND
     1    15    16    1
     2    16    17   ar
     3    17    18   ar
     4    18    19   ar
     5    19    20    1
     6    19    21   ar
     7    21    14    1
     8     1    14    1
     9     1     2    1
    10     2     3   ar
    11     3     4   ar
    12     4     5   ar
    13     5     6   ar
    14     6     7   ar
    15     1     8    1
    16     8     9    1
    17     9    10    1
    18    10    11    1
    19    11    12    1
    20    21    22   ar
    21    22    23    1
    22    22    16   ar
    23     7     2   ar
    24    12     8    1
    25    11    13    1
@<TRIPOS>MOLECULE
*****
 23 25 0 0 0
SMALL
GASTEIGER

@<TRIPOS>ATOM
      1 C          -8.4836  -16.7445   23.4562 C.3     1  UNL1        0.1895
      2 C          -7.9418  -16.2808   24.7759 C.ar    1  UNL1        0.0172
      3 C          -6.6519  -15.5174   24.8305 C.ar    1  UNL1       -0.0008
      4 C          -6.1101  -15.0537   26.1502 C.ar    1  UNL1       -0.0002
      5 C          -6.8583  -15.3536   27.4152 C.ar    1  UNL1       -0.0000
      6 C          -8.1483  -16.1171   27.3606 C.ar    1  UNL1       -0.0002
      7 C          -8.6901  -16.5807   26.0409 C.ar    1  UNL1       -0.0008
      8 C          -9.9034  -17.2174   23.3528 C.3     1  UNL1        0.0615
      9 C         -10.4010  -18.5929   23.6851 C.3     1  UNL1        0.0224
     10 C         -11.8799  -18.6235   23.4365 C.3     1  UNL1        0.0687
     11 N         -12.2964  -17.2668   22.9506 N.3     1  UNL1       -0.2973
     12 C         -11.0748  -16.3978   22.8989 C.3     1  UNL1        0.0725
     13 H         -12.9805  -16.8646   23.5915 H       1  UNL1        0.1232
     14 O          -7.6057  -16.7352   22.2400 O.3     1  UNL1       -0.4730
     15 CL         -3.5180  -19.9424   22.1775 Cl      1  UNL1       -0.0813
     16 C          -4.9139  -19.6085   21.7418 C.ar    1  UNL1        0.0712
     17 C          -5.6619  -20.5442   20.8390 C.ar    1  UNL1        0.0133
     18 C          -7.0578  -20.2103   20.4033 C.ar    1  UNL1        0.0154
     19 C          -7.7057  -18.9406   20.8703 C.ar    1  UNL1        0.0924
     20 CL         -8.4330  -18.9321   20.5439 Cl      1  UNL1       -0.0791
     21 C          -6.9578  -18.0049   21.7730 C.ar    1  UNL1        0.1605
     22 C          -5.5618  -18.3388   22.2088 C.ar    1  UNL1        0.1029
     23 CL         -4.8139  -17.4031   23.1115 Cl      1  UNL1       -0.0782
@<TRIPOS>BOND
     1    15    16    1
     2    16    17   ar
     3    17    18   ar
     4    18    19   ar
     5    19    20    1
     6    19    21   ar
     7    21    14    1
     8     1    14    1
     9     1     2    1
    10     2     3   ar
    11     3     4   ar
    12     4     5   ar
    13     5     6   ar
    14     6     7   ar
    15     1     8    1
    16     8     9    1
    17     9    10    1
    18    10    11    1
    19    11    12    1
    20    21    22   ar
    21    22    23    1
    22    22    16   ar
    23     7     2   ar
    24    12     8    1
    25    11    13    1
@<TRIPOS>MOLECULE
*****
 23 25 0 0 0
SMALL
GASTEIGER

@<TRIPOS>ATOM
      1 C          -9.5894  -17.9762   24.0937 C.3     1  UNL1        0.1895
      2 C          -8.8251  -17.1055   25.0464 C.ar    1  UNL1        0.0172
      3 C          -9.0234  -17.2577   26.5254 C.ar    1  UNL1       -0.0008
      4 C          -8.2591  -16.3870   27.4781 C.ar    1  UNL1       -0.0002
      5 C          -7.2964  -15.3642   26.9518 C.ar    1  UNL1       -0.0000
      6 C          -7.0980  -15.2120   25.4728 C.ar    1  UNL1       -0.0002
      7 C          -7.8623  -16.0827   24.5201 C.ar    1  UNL1       -0.0008
      8 C         -10.9650  -17.5750   23.6498 C.3     1  UNL1        0.0615
      9 C         -12.2420  -18.2875   23.9836 C.3     1  UNL1        0.0224
     10 C         -13.3712  -17.5437   23.3343 C.3     1  UNL1        0.0687
     11 N         -12.7921  -16.3715   22.5991 N.3     1  UNL1       -0.2973
     12 C         -11.3048  -16.3908   22.7941 C.3     1  UNL1        0.0725
     13 H         -13.1787  -15.5041   22.9713 H       1  UNL1        0.1232
     14 O          -8.9783  -19.2480   23.5849 O.3     1  UNL1       -0.4730
     15 CL         -9.5529  -20.1042   18.4920 Cl      1  UNL1       -0.0813
     16 C          -8.6850  -19.7288   19.6564 C.ar    1  UNL1        0.0712
     17 C          -7.2364  -19.4059   19.4387 C.ar    1  UNL1        0.0133
     18 C          -6.3685  -19.0304   20.6030 C.ar    1  UNL1        0.0154
     19 C          -6.9491  -18.9778   21.9851 C.ar    1  UNL1        0.0924
     20 CL         -6.3509  -18.7641   22.4667 Cl      1  UNL1       -0.0791
     21 C          -8.3977  -19.3006   22.2028 C.ar    1  UNL1        0.1605
     22 C          -9.2656  -19.6761   21.0384 C.ar    1  UNL1        0.1029
     23 CL        -10.7142  -19.9990   21.2562 Cl      1  UNL1       -0.0782
@<TRIPOS>BOND
     1    15    16    1
     2    16    17   ar
     3    17    18   ar
     4    18    19   ar
     5    19    20    1
     6    19    21   ar
     7    21    14    1
     8     1    14    1
     9     1     2    1
    10     2     3   ar
    11     3     4   ar
    12     4     5   ar
    13     5     6   ar
    14     6     7   ar
    15     1     8    1
    16     8     9    1
    17     9    10    1
    18    10    11    1
    19    11    12    1
    20    21    22   ar
    21    22    23    1
    22    22    16   ar
    23     7     2   ar
    24    12     8    1
    25    11    13    1
@<TRIPOS>MOLECULE
*****
 23 25 0 0 0
SMALL
GASTEIGER

@<TRIPOS>ATOM
      1 C          -8.1558  -16.8735   23.4550 C.3     1  UNL1        0.1895
      2 C          -7.6528  -16.2724   24.7340 C.ar    1  UNL1        0.0172
      3 C          -6.2438  -15.7654   24.8212 C.ar    1  UNL1       -0.0008
      4 C          -5.7409  -15.1643   26.1001 C.ar    1  UNL1       -0.0002
      5 C          -6.6469  -15.0703   27.2919 C.ar    1  UNL1       -0.0000
      6 C          -8.0560  -15.5773   27.2047 C.ar    1  UNL1       -0.0002
      7 C          -8.5589  -16.1784   25.9257 C.ar    1  UNL1       -0.0008
      8 C          -8.6807  -15.9867   22.3650 C.3     1  UNL1        0.0615
      9 C         -10.0511  -16.0519   21.7585 C.3     1  UNL1        0.0224
     10 C         -10.1447  -14.9845   20.7089 C.3     1  UNL1        0.0687
     11 N          -8.8322  -14.2595   20.6666 N.3     1  UNL1       -0.2973
     12 C          -7.9274  -14.8789   21.6903 C.3     1  UNL1        0.0725
     13 H          -8.9747  -13.2728   20.8824 H       1  UNL1        0.1232
     14 O          -8.1339  -18.3614   23.2660 O.3     1  UNL1       -0.4730
     15 CL         -8.5889  -20.0242   18.3642 Cl      1  UNL1       -0.0813
     16 C          -9.1804  -19.8229   19.7278 C.ar    1  UNL1        0.0712
     17 C         -10.5910  -20.2517   20.0043 C.ar    1  UNL1        0.0133
     18 C         -11.1825  -20.0504   21.3679 C.ar    1  UNL1        0.0154
     19 C         -10.3635  -19.4203   22.4552 C.ar    1  UNL1        0.0924
     20 CL        -10.8340  -19.3951   23.0981 Cl      1  UNL1       -0.0791
     21 C          -8.9529  -18.9915   22.1788 C.ar    1  UNL1        0.1605
     22 C          -8.3613  -19.1928   20.8151 C.ar    1  UNL1        0.1029
     23 CL         -6.9508  -18.7640   20.5387 Cl      1  UNL1       -0.0782
@<TRIPOS>BOND
     1    15    16    1
     2    16    17   ar
     3    17    18   ar
     4    18    19   ar
     5    19    20    1
     6    19    21   ar
     7    21    14    1
     8     1    14    1
     9     1     2    1
    10     2     3   ar
    11     3     4   ar
    12     4     5   ar
    13     5     6   ar
    14     6     7   ar
    15     1     8    1
    16     8     9    1
    17     9    10    1
    18    10    11    1
    19    11    12    1
    20    21    22   ar
    21    22    23    1
    22    22    16   ar
    23     7     2   ar
    24    12     8    1
    25    11    13    1
@<TRIPOS>MOLECULE
*****
 23 25 0 0 0
SMALL
GASTEIGER

@<TRIPOS>ATOM
      1 C          -6.4984  -17.4409   22.2538 C.3     1  UNL1        0.1895
      2 C          -5.3506  -18.3247   21.8647 C.ar    1  UNL1        0.0172
      3 C          -4.0533  -18.2422   22.6131 C.ar    1  UNL1       -0.0008
      4 C          -2.9055  -19.1260   22.2241 C.ar    1  UNL1       -0.0002
      5 C          -3.0549  -20.0923   21.0866 C.ar    1  UNL1       -0.0000
      6 C          -4.3523  -20.1748   20.3381 C.ar    1  UNL1       -0.0002
      7 C          -5.5001  -19.2910   20.7272 C.ar    1  UNL1       -0.0008
      8 C          -6.3995  -16.5778   23.4767 C.3     1  UNL1        0.0615
      9 C          -5.1307  -16.1326   24.1414 C.3     1  UNL1        0.0224
     10 C          -5.4991  -15.2882   25.3251 C.3     1  UNL1        0.0687
     11 N          -6.9957  -15.2115   25.3920 N.3     1  UNL1       -0.2973
     12 C          -7.5522  -16.0086   24.2496 C.3     1  UNL1        0.0725
     13 H          -7.2963  -14.2398   25.3150 H       1  UNL1        0.1232
     14 O          -7.7451  -17.4201   21.4200 O.3     1  UNL1       -0.4730
     15 CL        -10.9832  -20.3107   24.2764 Cl      1  UNL1       -0.0813
     16 C         -10.7030  -19.0609   23.4959 C.ar    1  UNL1        0.0712
     17 C         -11.7615  -18.0064   23.3630 C.ar    1  UNL1        0.0133
     18 C         -11.4812  -16.7565   22.5824 C.ar    1  UNL1        0.0154
     19 C         -10.1424  -16.5611   21.9348 C.ar    1  UNL1        0.0924
     20 CL        -10.1759  -15.8528   21.5705 Cl      1  UNL1       -0.0791
     21 C          -9.0839  -17.6155   22.0677 C.ar    1  UNL1        0.1605
     22 C          -9.3642  -18.8655   22.8482 C.ar    1  UNL1        0.1029
     23 CL         -8.3057  -19.9199   22.9811 Cl      1  UNL1       -0.0782
@<TRIPOS>BOND
     1    15    16    1
     2    16    17   ar
     3    17    18   ar
     4    18    19   ar
     5    19    20    1
     6    19    21   ar
     7    21    14    1
     8     1    14    1
     9     1     2    1
    10     2     3   ar
    11     3     4   ar
    12     4     5   ar
    13     5     6   ar
    14     6     7   ar
    15     1     8    1
    16     8     9    1
    17     9    10    1
    18    10    11    1
    19    11    12    1
    20    21    22   ar
    21    22    23    1
    22    22    16   ar
    23     7     2   ar
    24    12     8    1
    25    11    13    1
