@<TRIPOS>MOLECULE
*****
 44 49 0 0 0
SMALL
GASTEIGER

@<TRIPOS>ATOM
      1 N           2.8884    0.9680   31.4869 N.am    1  UNL1       -0.2222
      2 C           2.3258    0.9493   30.0964 C.2     1  UNL1        0.3219
      3 O           2.7188    0.0056   28.9988 O.2     1  UNL1       -0.2512
      4 N           1.3010    2.0402   29.9965 N.am    1  UNL1       -0.1907
      5 C           1.2303    2.7330   31.3250 C.2     1  UNL1        0.2529
      6 O           0.3357    3.8860   31.6717 O.2     1  UNL1       -0.2724
      7 C           2.2114    2.0703   32.2462 C.3     1  UNL1        0.1391
      8 C           3.2282    1.3127   33.0474 C.3     1  UNL1        0.0449
      9 C           3.4868    1.6867   34.4768 C.3     1  UNL1        0.0746
     10 N           2.7287    2.8184   35.1049 N.3     1  UNL1       -0.2676
     11 C           1.7119    3.5761   34.3036 C.3     1  UNL1        0.0746
     12 C           1.4533    3.2020   32.8743 C.3     1  UNL1        0.0449
     13 C           6.4466   -0.5068   32.4430 C.ar    1  UNL1        0.2293
     14 C           5.3921    0.4151   31.9062 C.ar    1  UNL1        0.0924
     15 C           3.9429    0.0461   32.0236 C.ar    1  UNL1        0.1453
     16 N           3.5483   -1.2447   32.6779 N.ar    1  UNL1       -0.2084
     17 C           4.6027   -2.1666   33.2147 C.ar    1  UNL1        0.2027
     18 N           6.0519   -1.7976   33.0972 N.ar    1  UNL1       -0.1892
     19 C           8.8479   -0.4765   33.4340 C.3     1  UNL1        0.2542
     20 O           7.8957   -0.1379   32.3256 O.3     1  UNL1       -0.4560
     21 C           0.4894    2.3788   28.7813 C.ar    1  UNL1        0.0622
     22 C           0.5044    3.7756   28.2348 C.ar    1  UNL1        0.0154
     23 C          -0.3072    4.1142   27.0196 C.ar    1  UNL1        0.0013
     24 C          -1.1338    3.0560   26.3509 C.ar    1  UNL1       -0.0002
     25 C          -1.1487    1.6591   26.8975 C.ar    1  UNL1        0.0013
     26 C          -0.3371    1.3206   28.1127 C.ar    1  UNL1        0.0154
     27 C          -1.9454    3.3946   25.1357 C.ar    1  UNL1       -0.0040
     28 C          -1.3267    3.3061   23.7721 C.ar    1  UNL1       -0.0003
     29 C          -2.1383    3.6447   22.5569 C.ar    1  UNL1        0.0011
     30 C          -3.5686    4.0718   22.7055 C.ar    1  UNL1        0.0137
     31 C          -4.1872    4.1603   24.0691 C.ar    1  UNL1       -0.0031
     32 C          -3.3757    3.8217   25.2842 C.ar    1  UNL1       -0.0218
     33 C          -3.9943    3.9102   26.6478 C.3     1  UNL1        0.0310
     34 C          -4.3802    4.4104   21.4903 C.2     1  UNL1        0.0729
     35 O          -4.6740    3.3543   20.4665 O.co2   1  UNL1       -0.5446
     36 O          -4.8979    5.8052   21.2989 O.co2   1  UNL1       -0.5446
     37 C           2.9874    3.1924   36.5344 C.3     1  UNL1        0.1183
     38 C           2.2368    2.5059   37.6368 C.ar    1  UNL1        0.0712
     39 N           0.9470    3.0839   38.1390 N.ar    1  UNL1       -0.2471
     40 C           0.1964    2.3974   39.2415 C.ar    1  UNL1        0.0985
     41 C           0.7358    1.1330   39.8418 C.ar    1  UNL1        0.0203
     42 C           2.0256    0.5550   39.3396 C.ar    1  UNL1       -0.0015
     43 C           2.7762    1.2415   38.2371 C.ar    1  UNL1       -0.0069
     44 C           4.0660    0.6635   37.7349 C.3     1  UNL1        0.0323
@<TRIPOS>UNITY_ATOM_ATTR
35 1
charge -1
@<TRIPOS>BOND
     1    19    20    1
     2    20    13    1
     3    13    14   ar
     4    14    15   ar
     5    15     1    1
     6     1     2   am
     7     2     3    2
     8     2     4   am
     9     4    21    1
    10    21    22   ar
    11    22    23   ar
    12    23    24   ar
    13    24    27    1
    14    27    28   ar
    15    28    29   ar
    16    29    30   ar
    17    30    34    1
    18    34    35   ar
    19    34    36   ar
    20    30    31   ar
    21    31    32   ar
    22    32    33    1
    23    24    25   ar
    24    25    26   ar
    25     4     5   am
    26     5     6    2
    27     5     7    1
    28     7     8    1
    29     8     9    1
    30     9    10    1
    31    10    37    1
    32    37    38    1
    33    38    39   ar
    34    39    40   ar
    35    40    41   ar
    36    41    42   ar
    37    42    43   ar
    38    43    44    1
    39    10    11    1
    40    11    12    1
    41    15    16   ar
    42    16    17   ar
    43    17    18   ar
    44    18    13   ar
    45     7     1    1
    46    43    38   ar
    47    26    21   ar
    48    12     7    1
    49    32    27   ar
@<TRIPOS>MOLECULE
*****
 44 49 0 0 0
SMALL
GASTEIGER

@<TRIPOS>ATOM
      1 N           3.6460   -1.0479   21.6789 N.am    1  UNL1       -0.2222
      2 C           2.4307   -0.1768   21.7996 C.2     1  UNL1        0.3219
      3 O           1.5539    0.2749   20.6694 O.2     1  UNL1       -0.2512
      4 N           2.2463    0.1633   23.2489 N.am    1  UNL1       -0.1907
      5 C           3.3475   -0.4976   24.0238 C.2     1  UNL1        0.2529
      6 O           3.5484   -0.4231   25.5084 O.2     1  UNL1       -0.2724
      7 C           4.2126   -1.2461   23.0535 C.3     1  UNL1        0.1391
      8 C           4.9812   -1.9433   21.9705 C.3     1  UNL1        0.0449
      9 C           6.1990   -2.7487   22.3145 C.3     1  UNL1        0.0746
     10 N           6.6482   -2.8568   23.7415 N.3     1  UNL1       -0.2676
     11 C           5.8795   -2.1597   24.8246 C.3     1  UNL1        0.0746
     12 C           4.6618   -1.3543   24.4806 C.3     1  UNL1        0.0449
     13 C           5.7490   -1.4126   18.3331 C.ar    1  UNL1        0.2293
     14 C           5.1973   -0.8403   19.6051 C.ar    1  UNL1        0.0924
     15 C           4.1977   -1.6202   20.4069 C.ar    1  UNL1        0.1453
     16 N           3.7500   -2.9723   19.9365 N.ar    1  UNL1       -0.2084
     17 C           4.3016   -3.5447   18.6646 C.ar    1  UNL1        0.2027
     18 N           5.3012   -2.7648   17.8628 N.ar    1  UNL1       -0.1892
     19 C           6.3114    0.5776   16.7607 C.3     1  UNL1        0.2542
     20 O           6.7485   -0.6328   17.5313 O.3     1  UNL1       -0.4560
     21 C           1.1527    1.0147   23.8224 C.ar    1  UNL1        0.0622
     22 C           0.5852    0.6966   25.1740 C.ar    1  UNL1        0.0154
     23 C          -0.5084    1.5481   25.7475 C.ar    1  UNL1        0.0013
     24 C          -1.0346    2.7176   24.9696 C.ar    1  UNL1       -0.0002
     25 C          -0.4671    3.0358   23.6179 C.ar    1  UNL1        0.0013
     26 C           0.6266    2.1843   23.0444 C.ar    1  UNL1        0.0154
     27 C          -2.1282    3.5691   25.5431 C.ar    1  UNL1       -0.0040
     28 C          -3.5475    3.3636   25.1034 C.ar    1  UNL1       -0.0003
     29 C          -4.6412    4.2151   25.6770 C.ar    1  UNL1        0.0011
     30 C          -4.3154    5.2720   26.6903 C.ar    1  UNL1        0.0137
     31 C          -2.8961    5.4775   27.1300 C.ar    1  UNL1       -0.0031
     32 C          -1.8025    4.6261   26.5565 C.ar    1  UNL1       -0.0218
     33 C          -0.3832    4.8316   26.9962 C.3     1  UNL1        0.0310
     34 C          -5.4090    6.1235   27.2639 C.2     1  UNL1        0.0729
     35 O          -5.1525    6.9481   28.4903 O.co2   1  UNL1       -0.5446
     36 O          -6.7593    6.1502   26.6109 O.co2   1  UNL1       -0.5446
     37 C           7.8660   -3.6623   24.0855 C.3     1  UNL1        0.1183
     38 C           7.7170   -5.0151   24.7159 C.ar    1  UNL1        0.0712
     39 N           7.0191   -5.1546   26.0363 N.ar    1  UNL1       -0.2471
     40 C           6.8702   -6.5076   26.6667 C.ar    1  UNL1        0.0985
     41 C           7.4191   -7.7210   25.9767 C.ar    1  UNL1        0.0203
     42 C           8.1170   -7.5816   24.6563 C.ar    1  UNL1       -0.0015
     43 C           8.2660   -6.2287   24.0259 C.ar    1  UNL1       -0.0069
     44 C           8.9639   -6.0893   22.7055 C.3     1  UNL1        0.0323
@<TRIPOS>UNITY_ATOM_ATTR
35 1
charge -1
@<TRIPOS>BOND
     1    19    20    1
     2    20    13    1
     3    13    14   ar
     4    14    15   ar
     5    15     1    1
     6     1     2   am
     7     2     3    2
     8     2     4   am
     9     4    21    1
    10    21    22   ar
    11    22    23   ar
    12    23    24   ar
    13    24    27    1
    14    27    28   ar
    15    28    29   ar
    16    29    30   ar
    17    30    34    1
    18    34    35   ar
    19    34    36   ar
    20    30    31   ar
    21    31    32   ar
    22    32    33    1
    23    24    25   ar
    24    25    26   ar
    25     4     5   am
    26     5     6    2
    27     5     7    1
    28     7     8    1
    29     8     9    1
    30     9    10    1
    31    10    37    1
    32    37    38    1
    33    38    39   ar
    34    39    40   ar
    35    40    41   ar
    36    41    42   ar
    37    42    43   ar
    38    43    44    1
    39    10    11    1
    40    11    12    1
    41    15    16   ar
    42    16    17   ar
    43    17    18   ar
    44    18    13   ar
    45     7     1    1
    46    43    38   ar
    47    26    21   ar
    48    12     7    1
    49    32    27   ar
@<TRIPOS>MOLECULE
*****
 44 49 0 0 0
SMALL
GASTEIGER

@<TRIPOS>ATOM
      1 N           3.3427   -0.5642   21.9680 N.am    1  UNL1       -0.2222
      2 C           2.0922    0.2570   22.0783 C.2     1  UNL1        0.3219
      3 O           1.2059    0.6707   20.9410 O.2     1  UNL1       -0.2512
      4 N           1.8837    0.5918   23.5255 N.am    1  UNL1       -0.1907
      5 C           3.0052   -0.0224   24.3097 C.2     1  UNL1        0.2529
      6 O           3.1923    0.0629   25.7955 O.2     1  UNL1       -0.2724
      7 C           3.9069   -0.7368   23.3471 C.3     1  UNL1        0.1391
      8 C           4.7110   -1.4041   22.2709 C.3     1  UNL1        0.0449
      9 C           5.9580   -2.1587   22.6252 C.3     1  UNL1        0.0746
     10 N           6.4009   -2.2460   24.0557 N.3     1  UNL1       -0.2676
     11 C           5.5968   -1.5787   25.1318 C.3     1  UNL1        0.0746
     12 C           4.3499   -0.8242   24.7775 C.3     1  UNL1        0.0449
     13 C           4.1261   -3.0402   18.9672 C.ar    1  UNL1        0.2293
     14 C           3.5425   -2.4886   20.2341 C.ar    1  UNL1        0.0924
     15 C           3.9263   -1.1158   20.7011 C.ar    1  UNL1        0.1453
     16 N           4.8938   -0.2947   19.9013 N.ar    1  UNL1       -0.2084
     17 C           5.4775   -0.8463   18.6345 C.ar    1  UNL1        0.2027
     18 N           5.0937   -2.2191   18.1674 N.ar    1  UNL1       -0.1892
     19 C           4.6235   -5.5856   18.8140 C.3     1  UNL1        0.2542
     20 O           3.7424   -4.4130   18.5000 O.3     1  UNL1       -0.4560
     21 C           0.7523    1.3991   24.0895 C.ar    1  UNL1        0.0622
     22 C           0.1967    1.0684   25.4430 C.ar    1  UNL1        0.0154
     23 C          -0.9348    1.8757   26.0070 C.ar    1  UNL1        0.0013
     24 C          -1.5106    3.0137   25.2176 C.ar    1  UNL1       -0.0002
     25 C          -0.9550    3.3445   23.8640 C.ar    1  UNL1        0.0013
     26 C           0.1765    2.5372   23.3001 C.ar    1  UNL1        0.0154
     27 C          -2.6420    3.8211   25.7816 C.ar    1  UNL1       -0.0040
     28 C          -4.0482    3.5596   25.3297 C.ar    1  UNL1       -0.0003
     29 C          -5.1797    4.3669   25.8938 C.ar    1  UNL1        0.0011
     30 C          -4.9048    5.4357   26.9097 C.ar    1  UNL1        0.0137
     31 C          -3.4986    5.6972   27.3615 C.ar    1  UNL1       -0.0031
     32 C          -2.3672    4.8900   26.7976 C.ar    1  UNL1       -0.0218
     33 C          -0.9610    5.1515   27.2494 C.3     1  UNL1        0.0310
     34 C          -6.0362    6.2430   27.4737 C.2     1  UNL1        0.0729
     35 O          -7.3492    6.3014   26.7508 O.co2   1  UNL1       -0.5446
     36 O          -5.8546    6.9920   28.7607 O.co2   1  UNL1       -0.5446
     37 C           7.6480   -3.0006   24.4100 C.3     1  UNL1        0.1183
     38 C           7.5576   -4.4266   24.8663 C.ar    1  UNL1        0.0712
     39 N           6.9451   -4.7510   26.1966 N.ar    1  UNL1       -0.2471
     40 C           6.8547   -6.1771   26.6530 C.ar    1  UNL1        0.0985
     41 C           7.3768   -7.2787   25.7791 C.ar    1  UNL1        0.0203
     42 C           7.9892   -6.9544   24.4488 C.ar    1  UNL1       -0.0015
     43 C           8.0796   -5.5284   23.9924 C.ar    1  UNL1       -0.0069
     44 C           8.6920   -5.2040   22.6621 C.3     1  UNL1        0.0323
@<TRIPOS>UNITY_ATOM_ATTR
35 1
charge -1
@<TRIPOS>BOND
     1    19    20    1
     2    20    13    1
     3    13    14   ar
     4    14    15   ar
     5    15     1    1
     6     1     2   am
     7     2     3    2
     8     2     4   am
     9     4    21    1
    10    21    22   ar
    11    22    23   ar
    12    23    24   ar
    13    24    27    1
    14    27    28   ar
    15    28    29   ar
    16    29    30   ar
    17    30    34    1
    18    34    35   ar
    19    34    36   ar
    20    30    31   ar
    21    31    32   ar
    22    32    33    1
    23    24    25   ar
    24    25    26   ar
    25     4     5   am
    26     5     6    2
    27     5     7    1
    28     7     8    1
    29     8     9    1
    30     9    10    1
    31    10    37    1
    32    37    38    1
    33    38    39   ar
    34    39    40   ar
    35    40    41   ar
    36    41    42   ar
    37    42    43   ar
    38    43    44    1
    39    10    11    1
    40    11    12    1
    41    15    16   ar
    42    16    17   ar
    43    17    18   ar
    44    18    13   ar
    45     7     1    1
    46    43    38   ar
    47    26    21   ar
    48    12     7    1
    49    32    27   ar
@<TRIPOS>MOLECULE
*****
 44 49 0 0 0
SMALL
GASTEIGER

@<TRIPOS>ATOM
      1 N           3.6320   -0.8326   23.2879 N.am    1  UNL1       -0.2222
      2 C           2.4111    0.0357   23.2109 C.2     1  UNL1        0.3219
      3 O           1.6889    0.4323   21.9575 O.2     1  UNL1       -0.2512
      4 N           2.0394    0.4377   24.6075 N.am    1  UNL1       -0.1907
      5 C           3.0304   -0.1821   25.5476 C.2     1  UNL1        0.2529
      6 O           3.0363   -0.0416   27.0409 O.2     1  UNL1       -0.2724
      7 C           4.0147   -0.9672   24.7320 C.3     1  UNL1        0.1391
      8 C           4.9180   -1.7064   23.7900 C.3     1  UNL1        0.0449
      9 C           6.0808   -2.4887   24.3247 C.3     1  UNL1        0.0746
     10 N           6.3403   -2.5317   25.8014 N.3     1  UNL1       -0.2676
     11 C           5.4370   -1.7925   26.7435 C.3     1  UNL1        0.0746
     12 C           4.2742   -1.0102   26.2088 C.3     1  UNL1        0.0449
     13 C           4.6875   -3.4618   20.5090 C.ar    1  UNL1        0.2293
     14 C           3.9747   -2.8378   21.6719 C.ar    1  UNL1        0.0924
     15 C           4.3448   -1.4566   22.1250 C.ar    1  UNL1        0.1453
     16 N           5.4278   -0.6994   21.4151 N.ar    1  UNL1       -0.2084
     17 C           6.1406   -1.3234   20.2522 C.ar    1  UNL1        0.2027
     18 N           5.7705   -2.7047   19.7991 N.ar    1  UNL1       -0.1892
     19 C           4.6610   -5.2938   18.6671 C.3     1  UNL1        0.2542
     20 O           4.3175   -4.8430   20.0559 O.3     1  UNL1       -0.4560
     21 C           0.8803    1.3068   24.9958 C.ar    1  UNL1        0.0622
     22 C           0.1952    1.0987   26.3139 C.ar    1  UNL1        0.0154
     23 C          -0.9640    1.9678   26.7021 C.ar    1  UNL1        0.0013
     24 C          -1.4382    3.0451   25.7723 C.ar    1  UNL1       -0.0002
     25 C          -0.7532    3.2533   24.4542 C.ar    1  UNL1        0.0013
     26 C           0.4061    2.3841   24.0660 C.ar    1  UNL1        0.0154
     27 C          -2.5974    3.9143   26.1606 C.ar    1  UNL1       -0.0040
     28 C          -3.9774    3.5860   25.6730 C.ar    1  UNL1       -0.0003
     29 C          -5.1367    4.4552   26.0612 C.ar    1  UNL1        0.0011
     30 C          -4.9158    5.6526   26.9372 C.ar    1  UNL1        0.0137
     31 C          -3.5358    5.9810   27.4249 C.ar    1  UNL1       -0.0031
     32 C          -2.3766    5.1118   27.0366 C.ar    1  UNL1       -0.0218
     33 C          -0.9966    5.4402   27.5243 C.3     1  UNL1        0.0310
     34 C          -6.0750    6.5218   27.3255 C.2     1  UNL1        0.0729
     35 O          -6.7133    7.4196   26.3074 O.co2   1  UNL1       -0.5446
     36 O          -6.5959    6.4932   28.7319 O.co2   1  UNL1       -0.5446
     37 C           7.5031   -3.3140   26.3361 C.3     1  UNL1        0.1183
     38 C           7.6569   -4.7640   25.9842 C.ar    1  UNL1        0.0712
     39 N           8.4782   -5.1641   24.7945 N.ar    1  UNL1       -0.2471
     40 C           8.6320   -6.6141   24.4426 C.ar    1  UNL1        0.0985
     41 C           7.9645   -7.6641   25.2805 C.ar    1  UNL1        0.0203
     42 C           7.1432   -7.2640   26.4702 C.ar    1  UNL1       -0.0015
     43 C           6.9894   -5.8140   26.8221 C.ar    1  UNL1       -0.0069
     44 C           6.1681   -5.4140   28.0118 C.3     1  UNL1        0.0323
@<TRIPOS>UNITY_ATOM_ATTR
35 1
charge -1
@<TRIPOS>BOND
     1    19    20    1
     2    20    13    1
     3    13    14   ar
     4    14    15   ar
     5    15     1    1
     6     1     2   am
     7     2     3    2
     8     2     4   am
     9     4    21    1
    10    21    22   ar
    11    22    23   ar
    12    23    24   ar
    13    24    27    1
    14    27    28   ar
    15    28    29   ar
    16    29    30   ar
    17    30    34    1
    18    34    35   ar
    19    34    36   ar
    20    30    31   ar
    21    31    32   ar
    22    32    33    1
    23    24    25   ar
    24    25    26   ar
    25     4     5   am
    26     5     6    2
    27     5     7    1
    28     7     8    1
    29     8     9    1
    30     9    10    1
    31    10    37    1
    32    37    38    1
    33    38    39   ar
    34    39    40   ar
    35    40    41   ar
    36    41    42   ar
    37    42    43   ar
    38    43    44    1
    39    10    11    1
    40    11    12    1
    41    15    16   ar
    42    16    17   ar
    43    17    18   ar
    44    18    13   ar
    45     7     1    1
    46    43    38   ar
    47    26    21   ar
    48    12     7    1
    49    32    27   ar
@<TRIPOS>MOLECULE
*****
 44 49 0 0 0
SMALL
GASTEIGER

@<TRIPOS>ATOM
      1 N           6.0147   -2.3210   26.1919 N.am    1  UNL1       -0.2222
      2 C           6.0715   -2.0048   27.6572 C.2     1  UNL1        0.3219
      3 O           7.1023   -2.5017   28.6270 O.2     1  UNL1       -0.2512
      4 N           4.9166   -1.1044   27.9822 N.am    1  UNL1       -0.1907
      5 C           4.1461   -0.8642   26.7179 C.2     1  UNL1        0.2529
      6 O           2.9133   -0.0203   26.5835 O.2     1  UNL1       -0.2724
      7 C           4.8247   -1.6161   25.6114 C.3     1  UNL1        0.1391
      8 C           5.6073   -2.4157   24.6124 C.3     1  UNL1        0.0449
      9 C           5.1723   -2.4556   23.1775 C.3     1  UNL1        0.0746
     10 N           3.9547   -1.6959   22.7415 N.3     1  UNL1       -0.2676
     11 C           3.1720   -0.8962   23.7404 C.3     1  UNL1        0.0746
     12 C           3.6070   -0.8563   25.1754 C.3     1  UNL1        0.0449
     13 C           7.8094   -5.5512   24.7447 C.ar    1  UNL1        0.2293
     14 C           6.8455   -4.6826   25.4972 C.ar    1  UNL1        0.0924
     15 C           6.9786   -3.1896   25.4393 C.ar    1  UNL1        0.1453
     16 N           8.0756   -2.5653   24.6289 N.ar    1  UNL1       -0.2084
     17 C           9.0395   -3.4338   23.8763 C.ar    1  UNL1        0.2027
     18 N           8.9064   -4.9269   23.9342 N.ar    1  UNL1       -0.1892
     19 C           7.3093   -7.7149   26.0930 C.3     1  UNL1        0.2542
     20 O           7.6764   -7.0441   24.8025 O.3     1  UNL1       -0.4560
     21 C           4.5898   -0.5429   29.3341 C.ar    1  UNL1        0.0622
     22 C           5.5495    0.3904   30.0106 C.ar    1  UNL1        0.0154
     23 C           5.2226    0.9519   31.3626 C.ar    1  UNL1        0.0013
     24 C           3.9359    0.5801   32.0381 C.ar    1  UNL1       -0.0002
     25 C           2.9761   -0.3532   31.3615 C.ar    1  UNL1        0.0013
     26 C           3.3031   -0.9147   30.0095 C.ar    1  UNL1        0.0154
     27 C           3.6090    1.1416   33.3901 C.ar    1  UNL1       -0.0040
     28 C           2.6869    2.3186   33.5104 C.ar    1  UNL1       -0.0003
     29 C           2.3600    2.8801   34.8624 C.ar    1  UNL1        0.0011
     30 C           2.9553    2.2646   36.0940 C.ar    1  UNL1        0.0137
     31 C           3.8774    1.0877   35.9736 C.ar    1  UNL1       -0.0031
     32 C           4.2043    0.5262   34.6217 C.ar    1  UNL1       -0.0218
     33 C           5.1264   -0.6508   34.5014 C.3     1  UNL1        0.0310
     34 C           2.6284    2.8261   37.4460 C.2     1  UNL1        0.0729
     35 O           3.7159    3.0191   38.4609 O.co2   1  UNL1       -0.5446
     36 O           1.2139    3.1946   37.7830 O.co2   1  UNL1       -0.5446
     37 C           3.5197   -1.7358   21.3064 C.3     1  UNL1        0.1183
     38 C           4.5442   -1.8228   20.2143 C.ar    1  UNL1        0.0712
     39 N           5.5390   -0.7155   20.0293 N.ar    1  UNL1       -0.2471
     40 C           6.5635   -0.8025   18.9371 C.ar    1  UNL1        0.0985
     41 C           6.5933   -1.9967   18.0300 C.ar    1  UNL1        0.0203
     42 C           5.5985   -3.1041   18.2151 C.ar    1  UNL1       -0.0015
     43 C           4.5740   -3.0171   19.3072 C.ar    1  UNL1       -0.0069
     44 C           3.5792   -4.1244   19.4923 C.3     1  UNL1        0.0323
@<TRIPOS>UNITY_ATOM_ATTR
35 1
charge -1
@<TRIPOS>BOND
     1    19    20    1
     2    20    13    1
     3    13    14   ar
     4    14    15   ar
     5    15     1    1
     6     1     2   am
     7     2     3    2
     8     2     4   am
     9     4    21    1
    10    21    22   ar
    11    22    23   ar
    12    23    24   ar
    13    24    27    1
    14    27    28   ar
    15    28    29   ar
    16    29    30   ar
    17    30    34    1
    18    34    35   ar
    19    34    36   ar
    20    30    31   ar
    21    31    32   ar
    22    32    33    1
    23    24    25   ar
    24    25    26   ar
    25     4     5   am
    26     5     6    2
    27     5     7    1
    28     7     8    1
    29     8     9    1
    30     9    10    1
    31    10    37    1
    32    37    38    1
    33    38    39   ar
    34    39    40   ar
    35    40    41   ar
    36    41    42   ar
    37    42    43   ar
    38    43    44    1
    39    10    11    1
    40    11    12    1
    41    15    16   ar
    42    16    17   ar
    43    17    18   ar
    44    18    13   ar
    45     7     1    1
    46    43    38   ar
    47    26    21   ar
    48    12     7    1
    49    32    27   ar
@<TRIPOS>MOLECULE
*****
 44 49 0 0 0
SMALL
GASTEIGER

@<TRIPOS>ATOM
      1 N           1.5590    1.8859   24.2601 N.am    1  UNL1       -0.2222
      2 C           1.6818    2.1404   25.7333 C.2     1  UNL1        0.3219
      3 O           1.1169    3.3154   26.4752 O.2     1  UNL1       -0.2512
      4 N           2.4687    1.0136   26.3344 N.am    1  UNL1       -0.1907
      5 C           2.8322    0.0628   25.2327 C.2     1  UNL1        0.2529
      6 O           3.6197   -1.2046   25.3860 O.2     1  UNL1       -0.2724
      7 C           2.2700    0.6019   23.9507 C.3     1  UNL1        0.1391
      8 C           1.6519    1.2608   22.7534 C.3     1  UNL1        0.0449
      9 C           1.7785    0.6271   21.3997 C.3     1  UNL1        0.0746
     10 N           2.5232   -0.6655   21.2434 N.3     1  UNL1       -0.2676
     11 C           3.1413   -1.3245   22.4408 C.3     1  UNL1        0.0746
     12 C           3.0148   -0.6908   23.7944 C.3     1  UNL1        0.0449
     13 C          -1.3109    3.4071   21.9799 C.ar    1  UNL1        0.2293
     14 C          -0.6016    2.5313   22.9698 C.ar    1  UNL1        0.0924
     15 C           0.8498    2.7617   23.2702 C.ar    1  UNL1        0.1453
     16 N           1.5920    3.8679   22.5806 N.ar    1  UNL1       -0.2084
     17 C           0.8829    4.7437   21.5907 C.ar    1  UNL1        0.2027
     18 N          -0.5687    4.5133   21.2903 N.ar    1  UNL1       -0.1892
     19 C          -3.2601    3.2716   20.2677 C.3     1  UNL1        0.2542
     20 O          -2.7623    3.1768   21.6795 O.3     1  UNL1       -0.4560
     21 C           2.8288    0.8640   27.7827 C.ar    1  UNL1        0.0622
     22 C           1.9351    0.0842   28.7011 C.ar    1  UNL1        0.0154
     23 C           2.2953   -0.0654   30.1495 C.ar    1  UNL1        0.0013
     24 C           3.5490    0.5647   30.6796 C.ar    1  UNL1       -0.0002
     25 C           4.4427    1.3446   29.7612 C.ar    1  UNL1        0.0013
     26 C           4.0825    1.4941   28.3128 C.ar    1  UNL1        0.0154
     27 C           3.9091    0.4151   32.1280 C.ar    1  UNL1       -0.0040
     28 C           3.4202    1.4186   33.1300 C.ar    1  UNL1       -0.0003
     29 C           3.7803    1.2690   34.5784 C.ar    1  UNL1        0.0011
     30 C           4.6294    0.1158   35.0248 C.ar    1  UNL1        0.0137
     31 C           5.1183   -0.8877   34.0229 C.ar    1  UNL1       -0.0031
     32 C           4.7582   -0.7381   32.5745 C.ar    1  UNL1       -0.0218
     33 C           5.2472   -1.7416   31.5726 C.3     1  UNL1        0.0310
     34 C           4.9895   -0.0338   36.4732 C.2     1  UNL1        0.0729
     35 O           4.0369    0.4305   37.5348 O.co2   1  UNL1       -0.5446
     36 O           6.3023   -0.6479   36.8601 O.co2   1  UNL1       -0.5446
     37 C           2.6498   -1.2992   19.8897 C.3     1  UNL1        0.1183
     38 C           4.0067   -1.5294   19.2933 C.ar    1  UNL1        0.0712
     39 N           4.9271   -0.3695   19.0534 N.ar    1  UNL1       -0.2471
     40 C           6.2841   -0.5997   18.4569 C.ar    1  UNL1        0.0985
     41 C           6.7205   -1.9898   18.1003 C.ar    1  UNL1        0.0203
     42 C           5.8001   -3.1496   18.3401 C.ar    1  UNL1       -0.0015
     43 C           4.4432   -2.9195   18.9366 C.ar    1  UNL1       -0.0069
     44 C           3.5228   -4.0794   19.1764 C.3     1  UNL1        0.0323
@<TRIPOS>UNITY_ATOM_ATTR
35 1
charge -1
@<TRIPOS>BOND
     1    19    20    1
     2    20    13    1
     3    13    14   ar
     4    14    15   ar
     5    15     1    1
     6     1     2   am
     7     2     3    2
     8     2     4   am
     9     4    21    1
    10    21    22   ar
    11    22    23   ar
    12    23    24   ar
    13    24    27    1
    14    27    28   ar
    15    28    29   ar
    16    29    30   ar
    17    30    34    1
    18    34    35   ar
    19    34    36   ar
    20    30    31   ar
    21    31    32   ar
    22    32    33    1
    23    24    25   ar
    24    25    26   ar
    25     4     5   am
    26     5     6    2
    27     5     7    1
    28     7     8    1
    29     8     9    1
    30     9    10    1
    31    10    37    1
    32    37    38    1
    33    38    39   ar
    34    39    40   ar
    35    40    41   ar
    36    41    42   ar
    37    42    43   ar
    38    43    44    1
    39    10    11    1
    40    11    12    1
    41    15    16   ar
    42    16    17   ar
    43    17    18   ar
    44    18    13   ar
    45     7     1    1
    46    43    38   ar
    47    26    21   ar
    48    12     7    1
    49    32    27   ar
@<TRIPOS>MOLECULE
*****
 44 49 0 0 0
SMALL
GASTEIGER

@<TRIPOS>ATOM
      1 N           2.2318    0.9494   24.1083 N.am    1  UNL1       -0.2222
      2 C           1.8422    1.7588   25.3097 C.2     1  UNL1        0.3219
      3 O           0.9992    2.9994   25.3014 O.2     1  UNL1       -0.2512
      4 N           2.4437    1.1095   26.5208 N.am    1  UNL1       -0.1907
      5 C           3.2050   -0.1010   26.0680 C.2     1  UNL1        0.2529
      6 O           3.9640   -1.0465   26.9510 O.2     1  UNL1       -0.2724
      7 C           3.0740   -0.2000   24.5769 C.3     1  UNL1        0.1391
      8 C           2.8556   -0.1687   23.0932 C.3     1  UNL1        0.0449
      9 C           3.4606   -1.2306   22.2236 C.3     1  UNL1        0.0746
     10 N           4.2841   -2.3237   22.8376 N.3     1  UNL1       -0.2676
     11 C           4.5025   -2.3550   24.3213 C.3     1  UNL1        0.0746
     12 C           3.8975   -1.2931   25.1909 C.3     1  UNL1        0.0449
     13 C           2.3374    2.3978   20.4149 C.ar    1  UNL1        0.2293
     14 C           2.7225    2.1085   21.8355 C.ar    1  UNL1        0.0924
     15 C           1.8467    1.2386   22.6877 C.ar    1  UNL1        0.1453
     16 N           0.5858    0.6580   22.1193 N.ar    1  UNL1       -0.2084
     17 C           0.2006    0.9472   20.6988 C.ar    1  UNL1        0.2027
     18 N           1.0765    1.8172   19.8466 N.ar    1  UNL1       -0.1892
     19 C           2.7340    3.7242   18.2166 C.3     1  UNL1        0.2542
     20 O           3.2131    3.2677   19.5627 O.3     1  UNL1       -0.4560
     21 C           2.3078    1.5870   27.9362 C.ar    1  UNL1        0.0622
     22 C           1.1366    1.1509   28.7657 C.ar    1  UNL1        0.0154
     23 C           1.0007    1.6284   30.1812 C.ar    1  UNL1        0.0013
     24 C           2.0360    2.5421   30.7671 C.ar    1  UNL1       -0.0002
     25 C           3.2073    2.9783   29.9376 C.ar    1  UNL1        0.0013
     26 C           3.3431    2.5007   28.5222 C.ar    1  UNL1        0.0154
     27 C           1.9001    3.0196   32.1826 C.ar    1  UNL1       -0.0040
     28 C           1.1990    4.3133   32.4736 C.ar    1  UNL1       -0.0003
     29 C           1.0631    4.7908   33.8891 C.ar    1  UNL1        0.0011
     30 C           1.6283    3.9745   35.0135 C.ar    1  UNL1        0.0137
     31 C           2.3294    2.6808   34.7224 C.ar    1  UNL1       -0.0031
     32 C           2.4653    2.2033   33.3071 C.ar    1  UNL1       -0.0218
     33 C           3.1665    0.9096   33.0160 C.3     1  UNL1        0.0310
     34 C           1.4924    4.4520   36.4289 C.2     1  UNL1        0.0729
     35 O           1.6159    5.9137   36.7425 O.co2   1  UNL1       -0.5446
     36 O           1.2330    3.4678   37.5309 O.co2   1  UNL1       -0.5446
     37 C           4.8891   -3.3857   21.9679 C.3     1  UNL1        0.1183
     38 C           5.5115   -3.0148   20.6545 C.ar    1  UNL1        0.0712
     39 N           6.8101   -2.2645   20.6252 N.ar    1  UNL1       -0.2471
     40 C           7.4324   -1.8937   19.3117 C.ar    1  UNL1        0.0985
     41 C           6.7563   -2.2731   18.0276 C.ar    1  UNL1        0.0203
     42 C           5.4577   -3.0233   18.0570 C.ar    1  UNL1       -0.0015
     43 C           4.8353   -3.3942   19.3704 C.ar    1  UNL1       -0.0069
     44 C           3.5368   -4.1445   19.3997 C.3     1  UNL1        0.0323
@<TRIPOS>UNITY_ATOM_ATTR
35 1
charge -1
@<TRIPOS>BOND
     1    19    20    1
     2    20    13    1
     3    13    14   ar
     4    14    15   ar
     5    15     1    1
     6     1     2   am
     7     2     3    2
     8     2     4   am
     9     4    21    1
    10    21    22   ar
    11    22    23   ar
    12    23    24   ar
    13    24    27    1
    14    27    28   ar
    15    28    29   ar
    16    29    30   ar
    17    30    34    1
    18    34    35   ar
    19    34    36   ar
    20    30    31   ar
    21    31    32   ar
    22    32    33    1
    23    24    25   ar
    24    25    26   ar
    25     4     5   am
    26     5     6    2
    27     5     7    1
    28     7     8    1
    29     8     9    1
    30     9    10    1
    31    10    37    1
    32    37    38    1
    33    38    39   ar
    34    39    40   ar
    35    40    41   ar
    36    41    42   ar
    37    42    43   ar
    38    43    44    1
    39    10    11    1
    40    11    12    1
    41    15    16   ar
    42    16    17   ar
    43    17    18   ar
    44    18    13   ar
    45     7     1    1
    46    43    38   ar
    47    26    21   ar
    48    12     7    1
    49    32    27   ar
@<TRIPOS>MOLECULE
*****
 44 49 0 0 0
SMALL
GASTEIGER

@<TRIPOS>ATOM
      1 N           3.9138   -0.8707   23.5375 N.am    1  UNL1       -0.2222
      2 C           2.6719   -0.0428   23.3873 C.2     1  UNL1        0.3219
      3 O           1.9971    0.3079   22.0944 O.2     1  UNL1       -0.2512
      4 N           2.2234    0.3727   24.7571 N.am    1  UNL1       -0.1907
      5 C           3.1881   -0.1983   25.7538 C.2     1  UNL1        0.2529
      6 O           3.1200   -0.0304   27.2428 O.2     1  UNL1       -0.2724
      7 C           4.2328   -0.9668   25.0000 C.3     1  UNL1        0.1391
      8 C           5.2012   -1.6944   24.1153 C.3     1  UNL1        0.0449
      9 C           6.3611   -2.4298   24.7182 C.3     1  UNL1        0.0746
     10 N           6.5527   -2.4377   26.2059 N.3     1  UNL1       -0.2676
     11 C           5.5843   -1.7101   27.0907 C.3     1  UNL1        0.0746
     12 C           4.4244   -0.9747   26.4877 C.3     1  UNL1        0.0449
     13 C           5.0769   -3.4509   20.7555 C.ar    1  UNL1        0.2293
     14 C           4.2919   -2.8284   21.8718 C.ar    1  UNL1        0.0924
     15 C           4.6988   -1.4932   22.4211 C.ar    1  UNL1        0.1453
     16 N           5.8906   -0.7805   21.8540 N.ar    1  UNL1       -0.2084
     17 C           6.6756   -1.4029   20.7377 C.ar    1  UNL1        0.2027
     18 N           6.2687   -2.7382   20.1884 N.ar    1  UNL1       -0.1892
     19 C           3.8068   -4.8618   18.9818 C.3     1  UNL1        0.2542
     20 O           4.6701   -4.7861   20.2061 O.3     1  UNL1       -0.4560
     21 C           1.0214    1.2120   25.0744 C.ar    1  UNL1        0.0622
     22 C           0.5999    2.3035   24.1359 C.ar    1  UNL1        0.0154
     23 C          -0.6022    3.1428   24.4533 C.ar    1  UNL1        0.0013
     24 C          -1.3827    2.8905   25.7091 C.ar    1  UNL1       -0.0002
     25 C          -0.9612    1.7988   26.6476 C.ar    1  UNL1        0.0013
     26 C           0.2409    0.9596   26.3302 C.ar    1  UNL1        0.0154
     27 C          -2.5848    3.7297   26.0264 C.ar    1  UNL1       -0.0040
     28 C          -3.9137    3.3979   25.4151 C.ar    1  UNL1       -0.0003
     29 C          -5.1158    4.2371   25.7324 C.ar    1  UNL1        0.0011
     30 C          -4.9888    5.4082   26.6611 C.ar    1  UNL1        0.0137
     31 C          -3.6599    5.7401   27.2724 C.ar    1  UNL1       -0.0031
     32 C          -2.4579    4.9009   26.9551 C.ar    1  UNL1       -0.0218
     33 C          -1.1289    5.2327   27.5664 C.3     1  UNL1        0.0310
     34 C          -6.1909    6.2475   26.9785 C.2     1  UNL1        0.0729
     35 O          -6.7949    7.1228   25.9207 O.co2   1  UNL1       -0.5446
     36 O          -6.7889    6.2114   28.3537 O.co2   1  UNL1       -0.5446
     37 C           7.7127   -3.1732   26.8089 C.3     1  UNL1        0.1183
     38 C           7.6049   -3.7369   28.1947 C.ar    1  UNL1        0.0712
     39 N           8.0817   -2.9355   29.3696 N.ar    1  UNL1       -0.2471
     40 C           7.9738   -3.4993   30.7555 C.ar    1  UNL1        0.0985
     41 C           7.3891   -4.8644   30.9664 C.ar    1  UNL1        0.0203
     42 C           6.9122   -5.6658   29.7915 C.ar    1  UNL1       -0.0015
     43 C           7.0201   -5.1020   28.4057 C.ar    1  UNL1       -0.0069
     44 C           6.5432   -5.9034   27.2308 C.3     1  UNL1        0.0323
@<TRIPOS>UNITY_ATOM_ATTR
35 1
charge -1
@<TRIPOS>BOND
     1    19    20    1
     2    20    13    1
     3    13    14   ar
     4    14    15   ar
     5    15     1    1
     6     1     2   am
     7     2     3    2
     8     2     4   am
     9     4    21    1
    10    21    22   ar
    11    22    23   ar
    12    23    24   ar
    13    24    27    1
    14    27    28   ar
    15    28    29   ar
    16    29    30   ar
    17    30    34    1
    18    34    35   ar
    19    34    36   ar
    20    30    31   ar
    21    31    32   ar
    22    32    33    1
    23    24    25   ar
    24    25    26   ar
    25     4     5   am
    26     5     6    2
    27     5     7    1
    28     7     8    1
    29     8     9    1
    30     9    10    1
    31    10    37    1
    32    37    38    1
    33    38    39   ar
    34    39    40   ar
    35    40    41   ar
    36    41    42   ar
    37    42    43   ar
    38    43    44    1
    39    10    11    1
    40    11    12    1
    41    15    16   ar
    42    16    17   ar
    43    17    18   ar
    44    18    13   ar
    45     7     1    1
    46    43    38   ar
    47    26    21   ar
    48    12     7    1
    49    32    27   ar
@<TRIPOS>MOLECULE
*****
 44 49 0 0 0
SMALL
GASTEIGER

@<TRIPOS>ATOM
      1 N           6.1693   -2.1053   26.2616 N.am    1  UNL1       -0.2222
      2 C           6.3855   -1.9705   27.7399 C.2     1  UNL1        0.3219
      3 O           7.5448   -2.5224   28.5154 O.2     1  UNL1       -0.2512
      4 N           5.2387   -1.1869   28.3064 N.am    1  UNL1       -0.1907
      5 C           4.3138   -0.8375   27.1784 C.2     1  UNL1        0.2529
      6 O           3.0379   -0.0574   27.2937 O.2     1  UNL1       -0.2724
      7 C           4.8890   -1.4051   25.9145 C.3     1  UNL1        0.1391
      8 C           5.5821   -2.0273   24.7388 C.3     1  UNL1        0.0449
      9 C           4.9823   -1.9144   23.3687 C.3     1  UNL1        0.0746
     10 N           3.6893   -1.1794   23.1742 N.3     1  UNL1       -0.2676
     11 C           2.9961   -0.5572   24.3499 C.3     1  UNL1        0.0746
     12 C           3.5959   -0.6701   25.7201 C.3     1  UNL1        0.0449
     13 C           7.8252   -5.0009   24.1113 C.ar    1  UNL1        0.2293
     14 C           6.9199   -4.2905   25.0735 C.ar    1  UNL1        0.0924
     15 C           7.0745   -2.8157   25.2994 C.ar    1  UNL1        0.1453
     16 N           8.1344   -2.0513   24.5630 N.ar    1  UNL1       -0.2084
     17 C           9.0397   -2.7615   23.6008 C.ar    1  UNL1        0.2027
     18 N           8.8851   -4.2364   23.3749 N.ar    1  UNL1       -0.1892
     19 C           8.8304   -7.2829   23.3821 C.3     1  UNL1        0.2542
     20 O           7.6706   -6.4757   23.8854 O.3     1  UNL1       -0.4560
     21 C           5.0499   -0.8176   29.7479 C.ar    1  UNL1        0.0622
     22 C           3.8247   -1.2720   30.4843 C.ar    1  UNL1        0.0154
     23 C           3.6360   -0.9027   31.9258 C.ar    1  UNL1        0.0013
     24 C           4.6724   -0.0790   32.6309 C.ar    1  UNL1       -0.0002
     25 C           5.8977    0.3755   31.8945 C.ar    1  UNL1        0.0013
     26 C           6.0864    0.0061   30.4530 C.ar    1  UNL1        0.0154
     27 C           4.4837    0.2903   34.0725 C.ar    1  UNL1       -0.0040
     28 C           5.1725   -0.4997   35.1455 C.ar    1  UNL1       -0.0003
     29 C           4.9837   -0.1304   36.5870 C.ar    1  UNL1        0.0011
     30 C           4.1061    1.0290   36.9554 C.ar    1  UNL1        0.0137
     31 C           3.4173    1.8190   35.8824 C.ar    1  UNL1       -0.0031
     32 C           3.6060    1.4497   34.4410 C.ar    1  UNL1       -0.0218
     33 C           2.9172    2.2398   33.3680 C.3     1  UNL1        0.0310
     34 C           3.9174    1.3983   38.3970 C.2     1  UNL1        0.0729
     35 O           4.9930    2.1473   39.1264 O.co2   1  UNL1       -0.5446
     36 O           2.6529    1.0186   39.1091 O.co2   1  UNL1       -0.5446
     37 C           3.0894   -1.0666   21.8040 C.3     1  UNL1        0.1183
     38 C           3.8120   -1.6369   20.6197 C.ar    1  UNL1        0.0712
     39 N           3.5587   -3.0538   20.1975 N.ar    1  UNL1       -0.2471
     40 C           4.2813   -3.6240   19.0131 C.ar    1  UNL1        0.0985
     41 C           5.2572   -2.7774   18.2510 C.ar    1  UNL1        0.0203
     42 C           5.5105   -1.3605   18.6732 C.ar    1  UNL1       -0.0015
     43 C           4.7879   -0.7902   19.8575 C.ar    1  UNL1       -0.0069
     44 C           5.0412    0.6267   20.2796 C.3     1  UNL1        0.0323
@<TRIPOS>UNITY_ATOM_ATTR
35 1
charge -1
@<TRIPOS>BOND
     1    19    20    1
     2    20    13    1
     3    13    14   ar
     4    14    15   ar
     5    15     1    1
     6     1     2   am
     7     2     3    2
     8     2     4   am
     9     4    21    1
    10    21    22   ar
    11    22    23   ar
    12    23    24   ar
    13    24    27    1
    14    27    28   ar
    15    28    29   ar
    16    29    30   ar
    17    30    34    1
    18    34    35   ar
    19    34    36   ar
    20    30    31   ar
    21    31    32   ar
    22    32    33    1
    23    24    25   ar
    24    25    26   ar
    25     4     5   am
    26     5     6    2
    27     5     7    1
    28     7     8    1
    29     8     9    1
    30     9    10    1
    31    10    37    1
    32    37    38    1
    33    38    39   ar
    34    39    40   ar
    35    40    41   ar
    36    41    42   ar
    37    42    43   ar
    38    43    44    1
    39    10    11    1
    40    11    12    1
    41    15    16   ar
    42    16    17   ar
    43    17    18   ar
    44    18    13   ar
    45     7     1    1
    46    43    38   ar
    47    26    21   ar
    48    12     7    1
    49    32    27   ar
