@<TRIPOS>MOLECULE
*****
 32 35 0 0 0
SMALL
GASTEIGER

@<TRIPOS>ATOM
      1 C          -7.7088  -19.0022   20.0507 C.2     1  UNL1        0.3337
      2 N          -8.6061  -19.9363   19.2942 N.2     1  UNL1        0.0756
      3 N          -9.9410  -19.9522   19.9781 N.2     1  UNL1       -0.0381
      4 C          -9.8687  -19.0279   21.1573 C.2     1  UNL1        0.1207
      5 C          -8.4891  -18.4408   21.2022 C.3     1  UNL1        0.1739
      6 C         -10.9807  -18.7411   22.1223 C.ar    1  UNL1        0.0184
      7 C         -12.1810  -17.9614   21.6732 C.ar    1  UNL1        0.0044
      8 C         -13.2930  -17.6746   22.6382 C.ar    1  UNL1        0.0367
      9 C         -13.2048  -18.1674   24.0521 C.ar    1  UNL1        0.1337
     10 O         -14.3168  -17.8807   25.0172 O.3     1  UNL1       -0.5055
     11 C         -12.0046  -18.9471   24.5011 C.ar    1  UNL1        0.0367
     12 C         -10.8926  -19.2339   23.5362 C.ar    1  UNL1        0.0044
     13 H         -15.0665  -17.3936   24.7368 H       1  UNL1        0.2922
     14 C          -7.9794  -17.4638   22.2198 C.ar    1  UNL1       -0.0050
     15 C          -6.5978  -17.6197   22.7830 C.ar    1  UNL1       -0.0002
     16 C          -6.0880  -16.6427   23.8006 C.ar    1  UNL1        0.0363
     17 C          -6.9598  -15.5098   24.2551 C.ar    1  UNL1        0.1337
     18 O          -6.4501  -14.5327   25.2728 O.3     1  UNL1       -0.5055
     19 C          -8.3413  -15.3539   23.6921 C.ar    1  UNL1        0.0363
     20 C          -8.8510  -16.3309   22.6744 C.ar    1  UNL1       -0.0002
     21 H          -5.5871  -14.6301   25.6245 H       1  UNL1        0.2922
     22 N          -6.2817  -18.6852   19.7147 N.pl3   1  UNL1       -0.2161
     23 H          -6.0616  -17.8528   19.2374 H       1  UNL1        0.2923
     24 C          -5.1899  -19.6365   20.1059 C.3     1  UNL1        0.2264
     25 O           0.4420  -17.6566   20.7065 O.3     1  UNL1       -0.5055
     26 C          -0.9659  -18.1516   20.5564 C.ar    1  UNL1        0.1337
     27 C          -1.6412  -18.0975   19.2181 C.ar    1  UNL1        0.0364
     28 C          -3.0492  -18.5925   19.0679 C.ar    1  UNL1        0.0028
     29 C          -3.7819  -19.1415   20.2561 C.ar    1  UNL1        0.0243
     30 C          -3.1066  -19.1956   21.5943 C.ar    1  UNL1        0.0028
     31 C          -1.6987  -18.7006   21.7445 C.ar    1  UNL1        0.0364
     32 H           0.8997  -17.3136   19.9643 H       1  UNL1        0.2922
@<TRIPOS>BOND
     1    25    26    1
     2    26    27   ar
     3    27    28   ar
     4    28    29   ar
     5    29    24    1
     6    24    22    1
     7    22     1    1
     8     1     2    2
     9     2     3    1
    10     3     4    2
    11     4     6    1
    12     6     7   ar
    13     7     8   ar
    14     8     9   ar
    15     9    10    1
    16     9    11   ar
    17    11    12   ar
    18     4     5    1
    19     5    14    1
    20    14    15   ar
    21    15    16   ar
    22    16    17   ar
    23    17    18    1
    24    17    19   ar
    25    19    20   ar
    26    29    30   ar
    27    30    31   ar
    28    31    26   ar
    29     5     1    1
    30    20    14   ar
    31    12     6   ar
    32    25    32    1
    33    22    23    1
    34    10    13    1
    35    18    21    1
@<TRIPOS>MOLECULE
*****
 32 35 0 0 0
SMALL
GASTEIGER

@<TRIPOS>ATOM
      1 C          -7.1028  -20.0505   21.4303 C.2     1  UNL1        0.3337
      2 N          -6.7459  -21.0734   20.3929 N.2     1  UNL1        0.0756
      3 N          -5.3467  -20.7950   19.9295 N.2     1  UNL1       -0.0381
      4 C          -4.8389  -19.6000   20.6805 C.2     1  UNL1        0.1207
      5 C          -5.9242  -19.1398   21.6081 C.3     1  UNL1        0.1739
      6 C          -3.4836  -18.9748   20.5303 C.ar    1  UNL1        0.0184
      7 C          -3.1847  -18.1084   19.3429 C.ar    1  UNL1        0.0044
      8 C          -1.8295  -17.4833   19.1927 C.ar    1  UNL1        0.0367
      9 C          -0.7732  -17.7245   20.2300 C.ar    1  UNL1        0.1337
     10 O           0.5821  -17.0994   20.0800 O.3     1  UNL1       -0.5055
     11 C          -1.0722  -18.5909   21.4175 C.ar    1  UNL1        0.0367
     12 C          -2.4274  -19.2160   21.5677 C.ar    1  UNL1        0.0044
     13 H           0.7689  -16.5582   19.3383 H       1  UNL1        0.2922
     14 C          -5.8448  -17.9738   22.5483 C.ar    1  UNL1       -0.0050
     15 C          -4.5724  -17.6956   23.2925 C.ar    1  UNL1       -0.0002
     16 C          -4.4931  -16.5296   24.2327 C.ar    1  UNL1        0.0363
     17 C          -5.6861  -15.6417   24.4288 C.ar    1  UNL1        0.1337
     18 O          -5.6067  -14.4757   25.3690 O.3     1  UNL1       -0.5055
     19 C          -6.9584  -15.9198   23.6847 C.ar    1  UNL1        0.0363
     20 C          -7.0377  -17.0858   22.7444 C.ar    1  UNL1       -0.0002
     21 H          -4.8120  -14.3019   25.8339 H       1  UNL1        0.2922
     22 N          -8.4090  -19.9550   22.1616 N.pl3   1  UNL1       -0.2161
     23 H          -8.4850  -20.2999   23.0806 H       1  UNL1        0.2923
     24 C          -9.5994  -19.3340   21.4927 C.3     1  UNL1        0.2264
     25 O         -14.4161  -17.8261   24.7370 O.3     1  UNL1       -0.5055
     26 C         -13.2119  -18.2030   23.9259 C.ar    1  UNL1        0.1337
     27 C         -12.0545  -18.8976   24.5801 C.ar    1  UNL1        0.0364
     28 C         -10.8503  -19.2746   23.7690 C.ar    1  UNL1        0.0028
     29 C         -10.8035  -18.9570   22.3038 C.ar    1  UNL1        0.0243
     30 C         -11.9609  -18.2624   21.6496 C.ar    1  UNL1        0.0028
     31 C         -13.1651  -17.8854   22.4607 C.ar    1  UNL1        0.0364
     32 H         -14.4453  -18.0245   25.6523 H       1  UNL1        0.2922
@<TRIPOS>BOND
     1    25    26    1
     2    26    27   ar
     3    27    28   ar
     4    28    29   ar
     5    29    24    1
     6    24    22    1
     7    22     1    1
     8     1     2    2
     9     2     3    1
    10     3     4    2
    11     4     6    1
    12     6     7   ar
    13     7     8   ar
    14     8     9   ar
    15     9    10    1
    16     9    11   ar
    17    11    12   ar
    18     4     5    1
    19     5    14    1
    20    14    15   ar
    21    15    16   ar
    22    16    17   ar
    23    17    18    1
    24    17    19   ar
    25    19    20   ar
    26    29    30   ar
    27    30    31   ar
    28    31    26   ar
    29     5     1    1
    30    20    14   ar
    31    12     6   ar
    32    25    32    1
    33    22    23    1
    34    10    13    1
    35    18    21    1
@<TRIPOS>MOLECULE
*****
 32 35 0 0 0
SMALL
GASTEIGER

@<TRIPOS>ATOM
      1 C          -7.2657  -19.9009   22.0198 C.2     1  UNL1        0.3337
      2 N          -7.0688  -20.9353   20.9515 N.2     1  UNL1        0.0756
      3 N          -5.7469  -20.6748   20.2921 N.2     1  UNL1       -0.0381
      4 C          -5.1269  -19.4795   20.9529 C.2     1  UNL1        0.1207
      5 C          -6.0655  -19.0011   22.0207 C.3     1  UNL1        0.1739
      6 C          -3.8009  -18.8695   20.6067 C.ar    1  UNL1        0.0184
      7 C          -3.6401  -18.0996   19.3294 C.ar    1  UNL1        0.0044
      8 C          -2.3142  -17.4896   18.9833 C.ar    1  UNL1        0.0367
      9 C          -1.1491  -17.6495   19.9144 C.ar    1  UNL1        0.1337
     10 O           0.1769  -17.0395   19.5683 O.3     1  UNL1       -0.5055
     11 C          -1.3100  -18.4194   21.1917 C.ar    1  UNL1        0.0367
     12 C          -2.6359  -19.0293   21.5378 C.ar    1  UNL1        0.0044
     13 H           0.2774  -16.5586   18.7705 H       1  UNL1        0.2922
     14 C          -5.8431  -17.8289   22.9296 C.ar    1  UNL1       -0.0050
     15 C          -6.9222  -16.8021   23.1072 C.ar    1  UNL1       -0.0002
     16 C          -6.6997  -15.6298   24.0163 C.ar    1  UNL1        0.0363
     17 C          -5.3982  -15.4843   24.7477 C.ar    1  UNL1        0.1337
     18 O          -5.1758  -14.3121   25.6568 O.3     1  UNL1       -0.5055
     19 C          -4.3192  -16.5110   24.5702 C.ar    1  UNL1        0.0363
     20 C          -4.5417  -17.6833   23.6611 C.ar    1  UNL1       -0.0002
     21 H          -5.8498  -13.6707   25.7677 H       1  UNL1        0.2922
     22 N          -8.4542  -19.7864   22.9278 N.pl3   1  UNL1       -0.2161
     23 H          -8.3299  -19.5380   23.8723 H       1  UNL1        0.2923
     24 C          -9.8320  -20.0503   22.3967 C.3     1  UNL1        0.2264
     25 O         -12.8369  -15.7016   19.5578 O.3     1  UNL1       -0.5055
     26 C         -12.0857  -16.7888   20.2675 C.ar    1  UNL1        0.1337
     27 C         -11.1352  -17.6642   19.5057 C.ar    1  UNL1        0.0364
     28 C         -10.3840  -18.7513   20.2155 C.ar    1  UNL1        0.0028
     29 C         -10.5832  -18.9631   21.6870 C.ar    1  UNL1        0.0243
     30 C         -11.5336  -18.0878   22.4488 C.ar    1  UNL1        0.0028
     31 C         -12.2849  -17.0006   21.7390 C.ar    1  UNL1        0.0364
     32 H         -12.7124  -15.5693   18.6386 H       1  UNL1        0.2922
@<TRIPOS>BOND
     1    25    26    1
     2    26    27   ar
     3    27    28   ar
     4    28    29   ar
     5    29    24    1
     6    24    22    1
     7    22     1    1
     8     1     2    2
     9     2     3    1
    10     3     4    2
    11     4     6    1
    12     6     7   ar
    13     7     8   ar
    14     8     9   ar
    15     9    10    1
    16     9    11   ar
    17    11    12   ar
    18     4     5    1
    19     5    14    1
    20    14    15   ar
    21    15    16   ar
    22    16    17   ar
    23    17    18    1
    24    17    19   ar
    25    19    20   ar
    26    29    30   ar
    27    30    31   ar
    28    31    26   ar
    29     5     1    1
    30    20    14   ar
    31    12     6   ar
    32    25    32    1
    33    22    23    1
    34    10    13    1
    35    18    21    1
@<TRIPOS>MOLECULE
*****
 32 35 0 0 0
SMALL
GASTEIGER

@<TRIPOS>ATOM
      1 C         -11.8554   -6.2748   18.9142 C.2     1  UNL1        0.3337
      2 N         -10.3614   -6.1556   18.8531 N.2     1  UNL1        0.0756
      3 N         -10.0226   -4.7274   18.5442 N.2     1  UNL1       -0.0381
      4 C         -11.3072   -3.9639   18.4144 C.2     1  UNL1        0.1207
      5 C         -12.4400   -4.9202   18.6431 C.3     1  UNL1        0.1739
      6 C         -11.4365   -2.5009   18.1095 C.ar    1  UNL1        0.0184
      7 C         -12.4032   -1.6557   18.8848 C.ar    1  UNL1        0.0044
      8 C         -12.5325   -0.1927   18.5799 C.ar    1  UNL1        0.0367
      9 C         -11.6950    0.4251   17.4997 C.ar    1  UNL1        0.1337
     10 O         -11.8241    1.8880   17.1947 O.3     1  UNL1       -0.5055
     11 C         -10.7282   -0.4201   16.7244 C.ar    1  UNL1        0.0367
     12 C         -10.5990   -1.8831   17.0293 C.ar    1  UNL1        0.0044
     13 H         -12.4280    2.4161   17.6789 H       1  UNL1        0.2922
     14 C         -13.9007   -4.5815   18.6070 C.ar    1  UNL1       -0.0050
     15 C         -14.6215   -4.5082   17.2935 C.ar    1  UNL1       -0.0002
     16 C         -16.0823   -4.1695   17.2574 C.ar    1  UNL1        0.0363
     17 C         -16.8224   -3.9041   18.5348 C.ar    1  UNL1        0.1337
     18 O         -18.2832   -3.5654   18.4988 O.3     1  UNL1       -0.5055
     19 C         -16.1018   -3.9774   19.8483 C.ar    1  UNL1        0.0363
     20 C         -14.6410   -4.3162   19.8844 C.ar    1  UNL1       -0.0002
     21 H         -18.7334   -3.5196   17.6783 H       1  UNL1        0.2922
     22 N         -12.6290   -7.5285   19.1968 N.pl3   1  UNL1       -0.2161
     23 H         -12.5300   -7.9830   20.0645 H       1  UNL1        0.2923
     24 C         -13.5535   -8.0897   18.1575 C.3     1  UNL1        0.2264
     25 O         -19.0295   -9.9800   19.7195 O.3     1  UNL1       -0.5055
     26 C         -17.6605   -9.5074   19.3290 C.ar    1  UNL1        0.1337
     27 C         -16.7855  -10.3714   18.4700 C.ar    1  UNL1        0.0364
     28 C         -15.4165   -9.8988   18.0795 C.ar    1  UNL1        0.0028
     29 C         -14.9225   -8.5623   18.5480 C.ar    1  UNL1        0.0243
     30 C         -15.7975   -7.6983   19.4069 C.ar    1  UNL1        0.0028
     31 C         -17.1665   -8.1709   19.7974 C.ar    1  UNL1        0.0364
     32 H         -19.3381  -10.8150   19.4268 H       1  UNL1        0.2922
@<TRIPOS>BOND
     1    25    26    1
     2    26    27   ar
     3    27    28   ar
     4    28    29   ar
     5    29    24    1
     6    24    22    1
     7    22     1    1
     8     1     2    2
     9     2     3    1
    10     3     4    2
    11     4     6    1
    12     6     7   ar
    13     7     8   ar
    14     8     9   ar
    15     9    10    1
    16     9    11   ar
    17    11    12   ar
    18     4     5    1
    19     5    14    1
    20    14    15   ar
    21    15    16   ar
    22    16    17   ar
    23    17    18    1
    24    17    19   ar
    25    19    20   ar
    26    29    30   ar
    27    30    31   ar
    28    31    26   ar
    29     5     1    1
    30    20    14   ar
    31    12     6   ar
    32    25    32    1
    33    22    23    1
    34    10    13    1
    35    18    21    1
@<TRIPOS>MOLECULE
*****
 32 35 0 0 0
SMALL
GASTEIGER

@<TRIPOS>ATOM
      1 C         -12.0022   -0.7868   18.3305 C.2     1  UNL1        0.3337
      2 N         -12.1710    0.6978   18.1991 N.2     1  UNL1        0.0756
      3 N         -13.6234    1.0183   18.3933 N.2     1  UNL1       -0.0381
      4 C         -14.3524   -0.2683   18.6448 C.2     1  UNL1        0.1207
      5 C         -13.3504   -1.3840   18.6060 C.3     1  UNL1        0.1739
      6 C         -15.8247   -0.4138   18.8917 C.ar    1  UNL1        0.0184
      7 C         -16.3997   -0.0563   20.2303 C.ar    1  UNL1        0.0044
      8 C         -17.8720   -0.2018   20.4772 C.ar    1  UNL1        0.0367
      9 C         -18.7694   -0.7048   19.3856 C.ar    1  UNL1        0.1337
     10 O         -20.2418   -0.8503   19.6324 O.3     1  UNL1       -0.5055
     11 C         -18.1945   -1.0623   18.0471 C.ar    1  UNL1        0.0367
     12 C         -16.7221   -0.9168   17.8001 C.ar    1  UNL1        0.0044
     13 H         -20.6010   -0.6271   20.4685 H       1  UNL1        0.2922
     14 C         -13.6449   -2.8409   18.8073 C.ar    1  UNL1       -0.0050
     15 C         -14.2802   -3.6369   17.7059 C.ar    1  UNL1       -0.0002
     16 C         -14.5747   -5.0938   17.9073 C.ar    1  UNL1        0.0363
     17 C         -14.2340   -5.7548   19.2100 C.ar    1  UNL1        0.1337
     18 O         -14.5285   -7.2118   19.4113 O.3     1  UNL1       -0.5055
     19 C         -13.5988   -4.9590   20.3113 C.ar    1  UNL1        0.0363
     20 C         -13.3043   -3.5020   20.1100 C.ar    1  UNL1       -0.0002
     21 H         -14.9253   -7.7090   18.7234 H       1  UNL1        0.2922
     22 N         -10.7119   -1.5418   18.2080 N.pl3   1  UNL1       -0.2161
     23 H          -9.9478   -1.3071   18.7827 H       1  UNL1        0.2923
     24 C         -10.5858   -2.6544   17.2100 C.3     1  UNL1        0.2264
     25 O          -9.9261   -8.3131   19.0926 O.3     1  UNL1       -0.5055
     26 C         -10.0910   -6.8984   18.6219 C.ar    1  UNL1        0.1337
     27 C          -9.5116   -5.7695   19.4218 C.ar    1  UNL1        0.0364
     28 C          -9.6765   -4.3548   18.9511 C.ar    1  UNL1        0.0028
     29 C         -10.4208   -4.0691   17.6806 C.ar    1  UNL1        0.0243
     30 C         -11.0002   -5.1980   16.8808 C.ar    1  UNL1        0.0028
     31 C         -10.8353   -6.6126   17.3514 C.ar    1  UNL1        0.0364
     32 H          -9.4611   -8.4916   19.8863 H       1  UNL1        0.2922
@<TRIPOS>BOND
     1    25    26    1
     2    26    27   ar
     3    27    28   ar
     4    28    29   ar
     5    29    24    1
     6    24    22    1
     7    22     1    1
     8     1     2    2
     9     2     3    1
    10     3     4    2
    11     4     6    1
    12     6     7   ar
    13     7     8   ar
    14     8     9   ar
    15     9    10    1
    16     9    11   ar
    17    11    12   ar
    18     4     5    1
    19     5    14    1
    20    14    15   ar
    21    15    16   ar
    22    16    17   ar
    23    17    18    1
    24    17    19   ar
    25    19    20   ar
    26    29    30   ar
    27    30    31   ar
    28    31    26   ar
    29     5     1    1
    30    20    14   ar
    31    12     6   ar
    32    25    32    1
    33    22    23    1
    34    10    13    1
    35    18    21    1
@<TRIPOS>MOLECULE
*****
 32 35 0 0 0
SMALL
GASTEIGER

@<TRIPOS>ATOM
      1 C         -15.8627   -3.6099   19.5718 C.2     1  UNL1        0.3337
      2 N         -17.2834   -3.2887   19.9300 N.2     1  UNL1        0.0756
      3 N         -18.0959   -4.5395   19.7707 N.2     1  UNL1       -0.0381
      4 C         -17.1773   -5.6339   19.3140 C.2     1  UNL1        0.1207
      5 C         -15.7970   -5.0594   19.1911 C.3     1  UNL1        0.1739
      6 C         -17.5698   -7.0535   19.0301 C.ar    1  UNL1        0.0184
      7 C         -18.4403   -7.3692   17.8500 C.ar    1  UNL1        0.0044
      8 C         -18.8329   -8.7888   17.5661 C.ar    1  UNL1        0.0367
      9 C         -18.3550   -9.8926   18.4622 C.ar    1  UNL1        0.1337
     10 O         -18.7475  -11.3123   18.1784 O.3     1  UNL1       -0.5055
     11 C         -17.4845   -9.5769   19.6423 C.ar    1  UNL1        0.0367
     12 C         -17.0919   -8.1573   19.9263 C.ar    1  UNL1        0.0044
     13 H         -19.2912  -11.5096   17.4413 H       1  UNL1        0.2922
     14 C         -14.5673   -5.8036   18.7626 C.ar    1  UNL1       -0.0050
     15 C         -14.4948   -6.4058   17.3906 C.ar    1  UNL1       -0.0002
     16 C         -13.2650   -7.1500   16.9622 C.ar    1  UNL1        0.0363
     17 C         -12.1075   -7.2921   17.9057 C.ar    1  UNL1        0.1337
     18 O         -10.8776   -8.0363   17.4773 O.3     1  UNL1       -0.5055
     19 C         -12.1799   -6.6899   19.2776 C.ar    1  UNL1        0.0363
     20 C         -13.4097   -5.9457   19.7060 C.ar    1  UNL1       -0.0002
     21 H         -10.8324   -8.4124   16.6203 H       1  UNL1        0.2922
     22 N         -14.7100   -2.6503   19.5909 N.pl3   1  UNL1       -0.2161
     23 H         -14.3896   -2.2828   20.4462 H       1  UNL1        0.2923
     24 C         -14.0455   -2.2506   18.3070 C.3     1  UNL1        0.2264
     25 O          -8.8065   -4.7225   16.7442 O.3     1  UNL1       -0.5055
     26 C         -10.1162   -4.1045   17.1349 C.ar    1  UNL1        0.1337
     27 C         -10.3000   -3.5460   18.5148 C.ar    1  UNL1        0.0364
     28 C         -11.6098   -2.9280   18.9055 C.ar    1  UNL1        0.0028
     29 C         -12.7357   -2.8686   17.9163 C.ar    1  UNL1        0.0243
     30 C         -12.5519   -3.4271   16.5363 C.ar    1  UNL1        0.0028
     31 C         -11.2422   -4.0450   16.1456 C.ar    1  UNL1        0.0364
     32 H          -8.1031   -4.7596   17.3621 H       1  UNL1        0.2922
@<TRIPOS>BOND
     1    25    26    1
     2    26    27   ar
     3    27    28   ar
     4    28    29   ar
     5    29    24    1
     6    24    22    1
     7    22     1    1
     8     1     2    2
     9     2     3    1
    10     3     4    2
    11     4     6    1
    12     6     7   ar
    13     7     8   ar
    14     8     9   ar
    15     9    10    1
    16     9    11   ar
    17    11    12   ar
    18     4     5    1
    19     5    14    1
    20    14    15   ar
    21    15    16   ar
    22    16    17   ar
    23    17    18    1
    24    17    19   ar
    25    19    20   ar
    26    29    30   ar
    27    30    31   ar
    28    31    26   ar
    29     5     1    1
    30    20    14   ar
    31    12     6   ar
    32    25    32    1
    33    22    23    1
    34    10    13    1
    35    18    21    1
@<TRIPOS>MOLECULE
*****
 32 35 0 0 0
SMALL
GASTEIGER

@<TRIPOS>ATOM
      1 C         -11.3141   -5.8258   18.8276 C.2     1  UNL1        0.3337
      2 N         -10.9404   -7.2030   18.3655 N.2     1  UNL1        0.0756
      3 N         -12.2060   -7.9528   18.0721 N.2     1  UNL1       -0.0381
      4 C         -13.3619   -7.0390   18.3528 C.2     1  UNL1        0.1207
      5 C         -12.8107   -5.7243   18.8197 C.3     1  UNL1        0.1739
      6 C         -14.8140   -7.3798   18.1943 C.ar    1  UNL1        0.0184
      7 C         -15.4105   -7.5021   16.8235 C.ar    1  UNL1        0.0044
      8 C         -16.8626   -7.8430   16.6650 C.ar    1  UNL1        0.0367
      9 C         -17.7183   -8.0616   17.8775 C.ar    1  UNL1        0.1337
     10 O         -19.1704   -8.4024   17.7192 O.3     1  UNL1       -0.5055
     11 C         -17.1218   -7.9393   19.2484 C.ar    1  UNL1        0.0367
     12 C         -15.6697   -7.5984   19.4068 C.ar    1  UNL1        0.0044
     13 H         -19.5431   -8.4788   16.8629 H       1  UNL1        0.2922
     14 C         -13.6148   -4.5199   19.2102 C.ar    1  UNL1       -0.0050
     15 C         -14.4716   -3.8277   18.1918 C.ar    1  UNL1       -0.0002
     16 C         -15.2758   -2.6232   18.5824 C.ar    1  UNL1        0.0363
     17 C         -15.2232   -2.1109   19.9912 C.ar    1  UNL1        0.1337
     18 O         -16.0274   -0.9064   20.3817 O.3     1  UNL1       -0.5055
     19 C         -14.3665   -2.8030   21.0095 C.ar    1  UNL1        0.0363
     20 C         -13.5624   -4.0075   20.6190 C.ar    1  UNL1       -0.0002
     21 H         -16.5625   -0.4740   19.7456 H       1  UNL1        0.2922
     22 N         -10.3590   -4.7404   19.2274 N.pl3   1  UNL1       -0.2161
     23 H         -10.0101   -4.7060   20.1474 H       1  UNL1        0.2923
     24 C          -9.9354   -3.7076   18.2255 C.3     1  UNL1        0.2264
     25 O         -13.7637    0.6007   16.5571 O.3     1  UNL1       -0.5055
     26 C         -12.8066   -0.4764   16.9742 C.ar    1  UNL1        0.1337
     27 C         -12.2898   -0.5166   18.3818 C.ar    1  UNL1        0.0364
     28 C         -11.3327   -1.5936   18.7989 C.ar    1  UNL1        0.0028
     29 C         -10.8925   -2.6305   17.8084 C.ar    1  UNL1        0.0243
     30 C         -11.4093   -2.5903   16.4009 C.ar    1  UNL1        0.0028
     31 C         -12.3664   -1.5133   15.9838 C.ar    1  UNL1        0.0364
     32 H         -14.0387    1.2484   17.1758 H       1  UNL1        0.2922
@<TRIPOS>BOND
     1    25    26    1
     2    26    27   ar
     3    27    28   ar
     4    28    29   ar
     5    29    24    1
     6    24    22    1
     7    22     1    1
     8     1     2    2
     9     2     3    1
    10     3     4    2
    11     4     6    1
    12     6     7   ar
    13     7     8   ar
    14     8     9   ar
    15     9    10    1
    16     9    11   ar
    17    11    12   ar
    18     4     5    1
    19     5    14    1
    20    14    15   ar
    21    15    16   ar
    22    16    17   ar
    23    17    18    1
    24    17    19   ar
    25    19    20   ar
    26    29    30   ar
    27    30    31   ar
    28    31    26   ar
    29     5     1    1
    30    20    14   ar
    31    12     6   ar
    32    25    32    1
    33    22    23    1
    34    10    13    1
    35    18    21    1
@<TRIPOS>MOLECULE
*****
 32 35 0 0 0
SMALL
GASTEIGER

@<TRIPOS>ATOM
      1 C         -11.0095   -3.8434   18.9107 C.2     1  UNL1        0.3337
      2 N         -10.0674   -5.0101   18.8742 N.2     1  UNL1        0.0756
      3 N         -10.8861   -6.2651   18.8063 N.2     1  UNL1       -0.0381
      4 C         -12.3343   -5.8741   18.8008 C.2     1  UNL1        0.1207
      5 C         -12.4106   -4.3774   18.8653 C.3     1  UNL1        0.1739
      6 C         -13.5012   -6.8146   18.7413 C.ar    1  UNL1        0.0184
      7 C         -13.4352   -8.0380   17.8757 C.ar    1  UNL1        0.0044
      8 C         -14.6022   -8.9785   17.8162 C.ar    1  UNL1        0.0367
      9 C         -15.8352   -8.6957   18.6223 C.ar    1  UNL1        0.1337
     10 O         -17.0023   -9.6362   18.5628 O.3     1  UNL1       -0.5055
     11 C         -15.9012   -7.4724   19.4878 C.ar    1  UNL1        0.0367
     12 C         -14.7342   -6.5319   19.5473 C.ar    1  UNL1        0.0044
     13 H         -16.9611  -10.4003   18.0222 H       1  UNL1        0.2922
     14 C         -13.6672   -3.5586   18.8816 C.ar    1  UNL1       -0.0050
     15 C         -14.0259   -2.7593   20.0993 C.ar    1  UNL1       -0.0002
     16 C         -15.2825   -1.9404   20.1155 C.ar    1  UNL1        0.0363
     17 C         -16.1805   -1.9208   18.9142 C.ar    1  UNL1        0.1337
     18 O         -17.4372   -1.1019   18.9304 O.3     1  UNL1       -0.5055
     19 C         -15.8219   -2.7199   17.6965 C.ar    1  UNL1        0.0363
     20 C         -14.5652   -3.5388   17.6803 C.ar    1  UNL1       -0.0002
     21 H         -17.6612   -0.6026   19.6910 H       1  UNL1        0.2922
     22 N         -10.6192   -2.3968   18.9803 N.pl3   1  UNL1       -0.2161
     23 H         -10.2800   -2.0184   19.8235 H       1  UNL1        0.2923
     24 C         -10.7457   -1.5265   17.7651 C.3     1  UNL1        0.2264
     25 O         -15.7974    1.5637   16.8006 O.3     1  UNL1       -0.5055
     26 C         -14.5345    0.7911   17.0417 C.ar    1  UNL1        0.1337
     27 C         -14.0038   -0.1283   15.9820 C.ar    1  UNL1        0.0364
     28 C         -12.7409   -0.9009   16.2232 C.ar    1  UNL1        0.0028
     29 C         -12.0086   -0.7540   17.5240 C.ar    1  UNL1        0.0243
     30 C         -12.5393    0.1655   18.5837 C.ar    1  UNL1        0.0028
     31 C         -13.8022    0.9380   18.3425 C.ar    1  UNL1        0.0364
     32 H         -16.2549    1.4719   15.9880 H       1  UNL1        0.2922
@<TRIPOS>BOND
     1    25    26    1
     2    26    27   ar
     3    27    28   ar
     4    28    29   ar
     5    29    24    1
     6    24    22    1
     7    22     1    1
     8     1     2    2
     9     2     3    1
    10     3     4    2
    11     4     6    1
    12     6     7   ar
    13     7     8   ar
    14     8     9   ar
    15     9    10    1
    16     9    11   ar
    17    11    12   ar
    18     4     5    1
    19     5    14    1
    20    14    15   ar
    21    15    16   ar
    22    16    17   ar
    23    17    18    1
    24    17    19   ar
    25    19    20   ar
    26    29    30   ar
    27    30    31   ar
    28    31    26   ar
    29     5     1    1
    30    20    14   ar
    31    12     6   ar
    32    25    32    1
    33    22    23    1
    34    10    13    1
    35    18    21    1
@<TRIPOS>MOLECULE
*****
 32 35 0 0 0
SMALL
GASTEIGER

@<TRIPOS>ATOM
      1 C           5.2028   -2.3031   17.9518 C.2     1  UNL1        0.3337
      2 N           6.5938   -2.2465   17.3930 N.2     1  UNL1        0.0756
      3 N           7.0286   -0.8110   17.3765 N.2     1  UNL1       -0.0381
      4 C           5.9064    0.0196   17.9251 C.2     1  UNL1        0.1207
      5 C           4.7780   -0.9026   18.2806 C.3     1  UNL1        0.1739
      6 C           5.9117    1.5106   18.0893 C.ar    1  UNL1        0.0184
      7 C           5.7348    2.1159   19.4503 C.ar    1  UNL1        0.0044
      8 C           5.7401    3.6068   19.6145 C.ar    1  UNL1        0.0367
      9 C           5.9221    4.4925   18.4177 C.ar    1  UNL1        0.1337
     10 O           5.9274    5.9835   18.5817 O.3     1  UNL1       -0.5055
     11 C           6.0989    3.8872   17.0566 C.ar    1  UNL1        0.0367
     12 C           6.0937    2.3962   16.8924 C.ar    1  UNL1        0.0044
     13 H           5.8169    6.3617   19.4319 H       1  UNL1        0.2922
     14 C           3.4569   -0.4957   18.8627 C.ar    1  UNL1       -0.0050
     15 C           2.4950    0.3151   18.0456 C.ar    1  UNL1       -0.0002
     16 C           1.1738    0.7220   18.6277 C.ar    1  UNL1        0.0363
     17 C           0.8144    0.3181   20.0269 C.ar    1  UNL1        0.1337
     18 O          -0.5068    0.7250   20.6090 O.3     1  UNL1       -0.5055
     19 C           1.7761   -0.4926   20.8440 C.ar    1  UNL1        0.0363
     20 C           3.0974   -0.8995   20.2618 C.ar    1  UNL1       -0.0002
     21 H          -1.1076    1.2314   20.0986 H       1  UNL1        0.2922
     22 N           4.3810   -3.5426   18.1473 N.pl3   1  UNL1       -0.2161
     23 H           3.5878   -3.7009   17.5861 H       1  UNL1        0.2923
     24 C           4.7678   -4.5409   19.1979 C.3     1  UNL1        0.2264
     25 O           6.8378   -2.6603   24.5062 O.3     1  UNL1       -0.5055
     26 C           6.3203   -3.1304   23.1792 C.ar    1  UNL1        0.1337
     27 C           7.2694   -3.3465   22.0379 C.ar    1  UNL1        0.0364
     28 C           6.7519   -3.8166   20.7108 C.ar    1  UNL1        0.0028
     29 C           5.2853   -4.0708   20.5250 C.ar    1  UNL1        0.0243
     30 C           4.3362   -3.8547   21.6663 C.ar    1  UNL1        0.0028
     31 C           4.8537   -3.3846   22.9933 C.ar    1  UNL1        0.0364
     32 H           7.7539   -2.5015   24.6223 H       1  UNL1        0.2922
@<TRIPOS>BOND
     1    25    26    1
     2    26    27   ar
     3    27    28   ar
     4    28    29   ar
     5    29    24    1
     6    24    22    1
     7    22     1    1
     8     1     2    2
     9     2     3    1
    10     3     4    2
    11     4     6    1
    12     6     7   ar
    13     7     8   ar
    14     8     9   ar
    15     9    10    1
    16     9    11   ar
    17    11    12   ar
    18     4     5    1
    19     5    14    1
    20    14    15   ar
    21    15    16   ar
    22    16    17   ar
    23    17    18    1
    24    17    19   ar
    25    19    20   ar
    26    29    30   ar
    27    30    31   ar
    28    31    26   ar
    29     5     1    1
    30    20    14   ar
    31    12     6   ar
    32    25    32    1
    33    22    23    1
    34    10    13    1
    35    18    21    1
