@<TRIPOS>MOLECULE
*****
 22 24 0 0 0
SMALL
GASTEIGER

@<TRIPOS>ATOM
      1 C         -10.3034  -17.3528   22.3279 C.3     1  UNL1        0.1894
      2 C          -9.8041  -18.2494   21.2339 C.ar    1  UNL1        0.0172
      3 C         -10.7478  -18.7381   20.1754 C.ar    1  UNL1       -0.0008
      4 C         -10.2485  -19.6346   19.0814 C.ar    1  UNL1       -0.0002
      5 C          -8.8055  -20.0425   19.0459 C.ar    1  UNL1       -0.0000
      6 C          -7.8617  -19.5537   20.1044 C.ar    1  UNL1       -0.0002
      7 C          -8.3610  -18.6572   21.1984 C.ar    1  UNL1       -0.0008
      8 C         -11.4416  -17.7951   23.1992 C.3     1  UNL1        0.0615
      9 C         -12.8918  -17.4782   22.9834 C.3     1  UNL1        0.0224
     10 C         -13.6759  -18.1191   24.0900 C.3     1  UNL1        0.0687
     11 N         -12.7102  -18.8320   24.9897 N.3     1  UNL1       -0.2973
     12 C         -11.3294  -18.6317   24.4391 C.3     1  UNL1        0.0725
     13 H         -12.9315  -19.8274   25.0156 H       1  UNL1        0.1232
     14 O          -9.6646  -16.0141   22.5507 O.3     1  UNL1       -0.4747
     15 CL         -8.3408  -15.3124   27.5262 Cl      1  UNL1       -0.0821
     16 C          -7.9466  -15.5021   26.0914 C.ar    1  UNL1        0.0615
     17 C          -6.4963  -15.5306   25.7095 C.ar    1  UNL1        0.0230
     18 C          -6.1021  -15.7202   24.2747 C.ar    1  UNL1        0.0615
     19 CL         -4.6518  -15.7487   23.8928 Cl      1  UNL1       -0.0821
     20 C          -7.1582  -15.8814   23.2218 C.ar    1  UNL1        0.0483
     21 C          -8.6085  -15.8529   23.6037 C.ar    1  UNL1        0.1405
     22 C          -9.0027  -15.6633   25.0385 C.ar    1  UNL1        0.0483
@<TRIPOS>BOND
     1    15    16    1
     2    16    17   ar
     3    17    18   ar
     4    18    19    1
     5    18    20   ar
     6    20    21   ar
     7    21    14    1
     8     1    14    1
     9     1     2    1
    10     2     3   ar
    11     3     4   ar
    12     4     5   ar
    13     5     6   ar
    14     6     7   ar
    15     1     8    1
    16     8     9    1
    17     9    10    1
    18    10    11    1
    19    11    12    1
    20    21    22   ar
    21    22    16   ar
    22     7     2   ar
    23    12     8    1
    24    11    13    1
@<TRIPOS>MOLECULE
*****
 22 24 0 0 0
SMALL
GASTEIGER

@<TRIPOS>ATOM
      1 C         -10.3020  -17.3514   22.3272 C.3     1  UNL1        0.1894
      2 C          -9.8051  -18.2464   21.2308 C.ar    1  UNL1        0.0172
      3 C         -10.7521  -18.7374   20.1764 C.ar    1  UNL1       -0.0008
      4 C         -10.2551  -19.6324   19.0800 C.ar    1  UNL1       -0.0002
      5 C          -8.8112  -20.0364   19.0381 C.ar    1  UNL1       -0.0000
      6 C          -7.8641  -19.5454   20.0926 C.ar    1  UNL1       -0.0002
      7 C          -8.3610  -18.6503   21.1890 C.ar    1  UNL1       -0.0008
      8 C         -11.4384  -17.7948   23.2002 C.3     1  UNL1        0.0615
      9 C         -12.8890  -17.4779   22.9877 C.3     1  UNL1        0.0224
     10 C         -13.6708  -18.1202   24.0952 C.3     1  UNL1        0.0687
     11 N         -12.7033  -18.8340   24.9920 N.3     1  UNL1       -0.2973
     12 C         -11.3236  -18.6329   24.4389 C.3     1  UNL1        0.0725
     13 H         -12.9244  -19.8294   25.0173 H       1  UNL1        0.1232
     14 O          -9.6626  -16.0130   22.5506 O.3     1  UNL1       -0.4747
     15 CL         -4.6512  -15.7477   23.8981 Cl      1  UNL1       -0.0821
     16 C          -6.1019  -15.7197   24.2785 C.ar    1  UNL1        0.0615
     17 C          -6.4976  -15.5310   25.7129 C.ar    1  UNL1        0.0230
     18 C          -7.9483  -15.5030   26.0933 C.ar    1  UNL1        0.0615
     19 CL         -8.3440  -15.3144   27.5279 Cl      1  UNL1       -0.0821
     20 C          -9.0033  -15.6637   25.0392 C.ar    1  UNL1        0.0483
     21 C          -8.6076  -15.8524   23.6048 C.ar    1  UNL1        0.1405
     22 C          -7.1569  -15.8804   23.2244 C.ar    1  UNL1        0.0483
@<TRIPOS>BOND
     1    15    16    1
     2    16    17   ar
     3    17    18   ar
     4    18    19    1
     5    18    20   ar
     6    20    21   ar
     7    21    14    1
     8     1    14    1
     9     1     2    1
    10     2     3   ar
    11     3     4   ar
    12     4     5   ar
    13     5     6   ar
    14     6     7   ar
    15     1     8    1
    16     8     9    1
    17     9    10    1
    18    10    11    1
    19    11    12    1
    20    21    22   ar
    21    22    16   ar
    22     7     2   ar
    23    12     8    1
    24    11    13    1
@<TRIPOS>MOLECULE
*****
 22 24 0 0 0
SMALL
GASTEIGER

@<TRIPOS>ATOM
      1 C          -7.6982  -18.0801   22.5944 C.3     1  UNL1        0.1894
      2 C          -6.3444  -18.5368   22.1377 C.ar    1  UNL1        0.0172
      3 C          -5.1195  -18.1380   22.9062 C.ar    1  UNL1       -0.0008
      4 C          -3.7657  -18.5947   22.4494 C.ar    1  UNL1       -0.0002
      5 C          -3.6368  -19.4502   21.2241 C.ar    1  UNL1       -0.0000
      6 C          -4.8617  -19.8491   20.4555 C.ar    1  UNL1       -0.0002
      7 C          -6.2155  -19.3924   20.9123 C.ar    1  UNL1       -0.0008
      8 C          -7.8361  -16.8065   23.3750 C.3     1  UNL1        0.0615
      9 C          -8.3331  -16.6863   24.7852 C.3     1  UNL1        0.0224
     10 C          -8.3055  -15.2351   25.1642 C.3     1  UNL1        0.0687
     11 N          -7.7915  -14.4587   23.9881 N.3     1  UNL1       -0.2973
     12 C          -7.5014  -15.4298   22.8824 C.3     1  UNL1        0.0725
     13 H          -6.9381  -13.9634   24.2466 H       1  UNL1        0.1232
     14 O          -8.9139  -18.8968   22.2707 O.3     1  UNL1       -0.4747
     15 CL        -13.7911  -17.9447   23.7897 Cl      1  UNL1       -0.0821
     16 C         -12.6732  -17.7447   22.8096 C.ar    1  UNL1        0.0615
     17 C         -12.8761  -16.8688   21.6090 C.ar    1  UNL1        0.0230
     18 C         -11.7583  -16.6688   20.6290 C.ar    1  UNL1        0.0615
     19 CL        -11.9613  -15.7927   19.4283 Cl      1  UNL1       -0.0821
     20 C         -10.4376  -17.3448   20.8495 C.ar    1  UNL1        0.0483
     21 C         -10.2347  -18.2207   22.0501 C.ar    1  UNL1        0.1405
     22 C         -11.3525  -18.4207   23.0302 C.ar    1  UNL1        0.0483
@<TRIPOS>BOND
     1    15    16    1
     2    16    17   ar
     3    17    18   ar
     4    18    19    1
     5    18    20   ar
     6    20    21   ar
     7    21    14    1
     8     1    14    1
     9     1     2    1
    10     2     3   ar
    11     3     4   ar
    12     4     5   ar
    13     5     6   ar
    14     6     7   ar
    15     1     8    1
    16     8     9    1
    17     9    10    1
    18    10    11    1
    19    11    12    1
    20    21    22   ar
    21    22    16   ar
    22     7     2   ar
    23    12     8    1
    24    11    13    1
@<TRIPOS>MOLECULE
*****
 22 24 0 0 0
SMALL
GASTEIGER

@<TRIPOS>ATOM
      1 C          -7.6814  -18.0437   22.6159 C.3     1  UNL1        0.1894
      2 C          -6.3257  -18.4866   22.1512 C.ar    1  UNL1        0.0172
      3 C          -6.1960  -19.3490   20.9308 C.ar    1  UNL1       -0.0008
      4 C          -4.8403  -19.7920   20.4661 C.ar    1  UNL1       -0.0002
      5 C          -3.6144  -19.3725   21.2218 C.ar    1  UNL1       -0.0000
      6 C          -3.7441  -18.5101   22.4423 C.ar    1  UNL1       -0.0002
      7 C          -5.0998  -18.0672   22.9070 C.ar    1  UNL1       -0.0008
      8 C          -7.8274  -16.7730   23.3996 C.3     1  UNL1        0.0615
      9 C          -8.3561  -16.6557   24.7985 C.3     1  UNL1        0.0224
     10 C          -8.3259  -15.2067   25.1854 C.3     1  UNL1        0.0687
     11 N          -7.7785  -14.4286   24.0257 N.3     1  UNL1       -0.2973
     12 C          -7.4705  -15.3966   22.9220 C.3     1  UNL1        0.0725
     13 H          -6.9274  -13.9415   24.3064 H       1  UNL1        0.1232
     14 O          -8.8910  -18.8714   22.2970 O.3     1  UNL1       -0.4747
     15 CL        -11.9488  -15.7939   19.4370 Cl      1  UNL1       -0.0821
     16 C         -11.7449  -16.6676   20.6392 C.ar    1  UNL1        0.0615
     17 C         -12.8662  -16.8761   21.6135 C.ar    1  UNL1        0.0230
     18 C         -12.6623  -17.7498   22.8157 C.ar    1  UNL1        0.0615
     19 CL        -13.7837  -17.9584   23.7900 Cl      1  UNL1       -0.0821
     20 C         -11.3373  -18.4149   23.0435 C.ar    1  UNL1        0.0483
     21 C         -10.2161  -18.2063   22.0692 C.ar    1  UNL1        0.1405
     22 C         -10.4199  -17.3326   20.8670 C.ar    1  UNL1        0.0483
@<TRIPOS>BOND
     1    15    16    1
     2    16    17   ar
     3    17    18   ar
     4    18    19    1
     5    18    20   ar
     6    20    21   ar
     7    21    14    1
     8     1    14    1
     9     1     2    1
    10     2     3   ar
    11     3     4   ar
    12     4     5   ar
    13     5     6   ar
    14     6     7   ar
    15     1     8    1
    16     8     9    1
    17     9    10    1
    18    10    11    1
    19    11    12    1
    20    21    22   ar
    21    22    16   ar
    22     7     2   ar
    23    12     8    1
    24    11    13    1
@<TRIPOS>MOLECULE
*****
 22 24 0 0 0
SMALL
GASTEIGER

@<TRIPOS>ATOM
      1 C          -7.4877  -16.6453   23.1456 C.3     1  UNL1        0.1894
      2 C          -7.2596  -16.1709   24.5502 C.ar    1  UNL1        0.0172
      3 C          -5.9249  -15.6121   24.9456 C.ar    1  UNL1       -0.0008
      4 C          -5.6968  -15.1377   26.3502 C.ar    1  UNL1       -0.0002
      5 C          -6.8034  -15.2221   27.3594 C.ar    1  UNL1       -0.0000
      6 C          -8.1381  -15.7809   26.9639 C.ar    1  UNL1       -0.0002
      7 C          -8.3662  -16.2553   25.5593 C.ar    1  UNL1       -0.0008
      8 C          -6.8966  -17.9458   22.6879 C.3     1  UNL1        0.0615
      9 C          -7.6639  -19.1758   22.3027 C.3     1  UNL1        0.0224
     10 C          -6.6760  -20.2349   21.9118 C.3     1  UNL1        0.0687
     11 N          -5.2982  -19.6592   22.0554 N.3     1  UNL1       -0.2973
     12 C          -5.4346  -18.2445   22.5350 C.3     1  UNL1        0.0725
     13 H          -4.8210  -19.6746   21.1540 H       1  UNL1        0.1232
     14 O          -8.3068  -15.8193   22.1987 O.3     1  UNL1       -0.4747
     15 CL        -12.4744  -15.6851   19.0981 Cl      1  UNL1       -0.0821
     16 C         -11.8191  -16.1196   20.3756 C.ar    1  UNL1        0.0615
     17 C         -12.5923  -16.9214   21.3801 C.ar    1  UNL1        0.0230
     18 C         -11.9370  -17.3559   22.6576 C.ar    1  UNL1        0.0615
     19 CL        -12.7102  -18.1578   23.6622 Cl      1  UNL1       -0.0821
     20 C         -10.5085  -16.9885   22.9304 C.ar    1  UNL1        0.0483
     21 C          -9.7354  -16.1867   21.9258 C.ar    1  UNL1        0.1405
     22 C         -10.3907  -15.7522   20.6484 C.ar    1  UNL1        0.0483
@<TRIPOS>BOND
     1    15    16    1
     2    16    17   ar
     3    17    18   ar
     4    18    19    1
     5    18    20   ar
     6    20    21   ar
     7    21    14    1
     8     1    14    1
     9     1     2    1
    10     2     3   ar
    11     3     4   ar
    12     4     5   ar
    13     5     6   ar
    14     6     7   ar
    15     1     8    1
    16     8     9    1
    17     9    10    1
    18    10    11    1
    19    11    12    1
    20    21    22   ar
    21    22    16   ar
    22     7     2   ar
    23    12     8    1
    24    11    13    1
@<TRIPOS>MOLECULE
*****
 22 24 0 0 0
SMALL
GASTEIGER

@<TRIPOS>ATOM
      1 C         -10.2758  -16.6334   23.0434 C.3     1  UNL1        0.1894
      2 C          -9.9660  -18.0486   23.4321 C.ar    1  UNL1        0.0172
      3 C          -8.9146  -18.8177   22.6885 C.ar    1  UNL1       -0.0008
      4 C          -8.6048  -20.2329   23.0773 C.ar    1  UNL1       -0.0002
      5 C          -9.3464  -20.8791   24.2097 C.ar    1  UNL1       -0.0000
      6 C         -10.3978  -20.1100   24.9534 C.ar    1  UNL1       -0.0002
      7 C         -10.7077  -18.6948   24.5646 C.ar    1  UNL1       -0.0008
      8 C         -11.0013  -16.3494   21.7615 C.3     1  UNL1        0.0615
      9 C         -10.4185  -15.6918   20.5457 C.3     1  UNL1        0.0224
     10 C         -11.4939  -15.6092   19.5031 C.3     1  UNL1        0.0687
     11 N         -12.7412  -16.2158   20.0746 N.3     1  UNL1       -0.2973
     12 C         -12.4367  -16.6732   21.4703 C.3     1  UNL1        0.0725
     13 H         -13.0317  -17.0107   19.5054 H       1  UNL1        0.1232
     14 O          -9.8603  -15.5022   23.9364 O.3     1  UNL1       -0.4747
     15 CL         -4.7001  -15.2015   23.4053 Cl      1  UNL1       -0.0821
     16 C          -5.9098  -15.3423   24.2809 C.ar    1  UNL1        0.0615
     17 C          -5.7493  -15.4737   25.7664 C.ar    1  UNL1        0.0230
     18 C          -6.9591  -15.6145   26.6420 C.ar    1  UNL1        0.0615
     19 CL         -6.7985  -15.7459   28.1276 Cl      1  UNL1       -0.0821
     20 C          -8.3294  -15.6240   26.0320 C.ar    1  UNL1        0.0483
     21 C          -8.4899  -15.4927   24.5465 C.ar    1  UNL1        0.1405
     22 C          -7.2801  -15.3518   23.6709 C.ar    1  UNL1        0.0483
@<TRIPOS>BOND
     1    15    16    1
     2    16    17   ar
     3    17    18   ar
     4    18    19    1
     5    18    20   ar
     6    20    21   ar
     7    21    14    1
     8     1    14    1
     9     1     2    1
    10     2     3   ar
    11     3     4   ar
    12     4     5   ar
    13     5     6   ar
    14     6     7   ar
    15     1     8    1
    16     8     9    1
    17     9    10    1
    18    10    11    1
    19    11    12    1
    20    21    22   ar
    21    22    16   ar
    22     7     2   ar
    23    12     8    1
    24    11    13    1
@<TRIPOS>MOLECULE
*****
 22 24 0 0 0
SMALL
GASTEIGER

@<TRIPOS>ATOM
      1 C          -8.6335  -16.5523   23.6374 C.3     1  UNL1        0.1894
      2 C         -10.0448  -17.0598   23.6082 C.ar    1  UNL1        0.0172
      3 C         -11.0854  -16.3369   22.8056 C.ar    1  UNL1       -0.0008
      4 C         -12.4966  -16.8444   22.7764 C.ar    1  UNL1       -0.0002
      5 C         -12.8672  -18.0749   23.5500 C.ar    1  UNL1       -0.0000
      6 C         -11.8266  -18.7980   24.3527 C.ar    1  UNL1       -0.0002
      7 C         -10.4153  -18.2904   24.3818 C.ar    1  UNL1       -0.0008
      8 C          -8.0597  -16.0044   24.9104 C.3     1  UNL1        0.0615
      9 C          -8.5397  -16.3119   26.2979 C.3     1  UNL1        0.0224
     10 C          -7.6818  -15.5504   27.2645 C.3     1  UNL1        0.0687
     11 N          -6.6716  -14.7723   26.4743 N.3     1  UNL1       -0.2973
     12 C          -6.9052  -15.0530   25.0194 C.3     1  UNL1        0.0725
     13 H          -5.7294  -15.0626   26.7359 H       1  UNL1        0.1232
     14 O          -7.7962  -16.5926   22.3935 O.3     1  UNL1       -0.4747
     15 CL         -6.0178  -21.0991   20.5150 Cl      1  UNL1       -0.0821
     16 C          -5.8044  -19.8546   21.3247 C.ar    1  UNL1        0.0615
     17 C          -4.4885  -19.6189   22.0050 C.ar    1  UNL1        0.0230
     18 C          -4.2752  -18.3744   22.8148 C.ar    1  UNL1        0.0615
     19 CL         -2.9592  -18.1387   23.4950 Cl      1  UNL1       -0.0821
     20 C          -5.3777  -17.3657   22.9443 C.ar    1  UNL1        0.0483
     21 C          -6.6936  -17.6014   22.2640 C.ar    1  UNL1        0.1405
     22 C          -6.9070  -18.8459   21.4543 C.ar    1  UNL1        0.0483
@<TRIPOS>BOND
     1    15    16    1
     2    16    17   ar
     3    17    18   ar
     4    18    19    1
     5    18    20   ar
     6    20    21   ar
     7    21    14    1
     8     1    14    1
     9     1     2    1
    10     2     3   ar
    11     3     4   ar
    12     4     5   ar
    13     5     6   ar
    14     6     7   ar
    15     1     8    1
    16     8     9    1
    17     9    10    1
    18    10    11    1
    19    11    12    1
    20    21    22   ar
    21    22    16   ar
    22     7     2   ar
    23    12     8    1
    24    11    13    1
@<TRIPOS>MOLECULE
*****
 22 24 0 0 0
SMALL
GASTEIGER

@<TRIPOS>ATOM
      1 C          -7.0623  -16.1524   23.5317 C.3     1  UNL1        0.1894
      2 C          -6.0936  -17.2265   23.1344 C.ar    1  UNL1        0.0172
      3 C          -6.5771  -18.4332   22.3861 C.ar    1  UNL1       -0.0008
      4 C          -5.6083  -19.5073   21.9888 C.ar    1  UNL1       -0.0002
      5 C          -4.1561  -19.3747   22.3398 C.ar    1  UNL1       -0.0000
      6 C          -3.6725  -18.1679   23.0882 C.ar    1  UNL1       -0.0002
      7 C          -4.6412  -17.0938   23.4855 C.ar    1  UNL1       -0.0008
      8 C          -7.1810  -15.7442   24.9702 C.3     1  UNL1        0.0615
      9 C          -8.4128  -15.8544   25.8191 C.3     1  UNL1        0.0224
     10 C          -8.0819  -15.3324   27.1860 C.3     1  UNL1        0.0687
     11 N          -6.6456  -14.8996   27.1817 N.3     1  UNL1       -0.2973
     12 C          -6.0889  -15.1541   25.8123 C.3     1  UNL1        0.0725
     13 H          -6.1208  -15.4346   27.8736 H       1  UNL1        0.1232
     14 O          -7.9123  -15.4865   22.4905 O.3     1  UNL1       -0.4747
     15 CL        -11.9097  -18.5951   23.6555 Cl      1  UNL1       -0.0821
     16 C         -11.2632  -17.5982   22.7400 C.ar    1  UNL1        0.0615
     17 C         -11.9689  -17.1586   21.4916 C.ar    1  UNL1        0.0230
     18 C         -11.3224  -16.1617   20.5760 C.ar    1  UNL1        0.0615
     19 CL        -12.0282  -15.7221   19.3275 Cl      1  UNL1       -0.0821
     20 C          -9.9702  -15.6043   20.9090 C.ar    1  UNL1        0.0483
     21 C          -9.2646  -16.0439   22.1575 C.ar    1  UNL1        0.1405
     22 C          -9.9111  -17.0408   23.0730 C.ar    1  UNL1        0.0483
@<TRIPOS>BOND
     1    15    16    1
     2    16    17   ar
     3    17    18   ar
     4    18    19    1
     5    18    20   ar
     6    20    21   ar
     7    21    14    1
     8     1    14    1
     9     1     2    1
    10     2     3   ar
    11     3     4   ar
    12     4     5   ar
    13     5     6   ar
    14     6     7   ar
    15     1     8    1
    16     8     9    1
    17     9    10    1
    18    10    11    1
    19    11    12    1
    20    21    22   ar
    21    22    16   ar
    22     7     2   ar
    23    12     8    1
    24    11    13    1
@<TRIPOS>MOLECULE
*****
 22 24 0 0 0
SMALL
GASTEIGER

@<TRIPOS>ATOM
      1 C          -8.7359  -16.9123   23.8462 C.3     1  UNL1        0.1894
      2 C          -7.9692  -16.2705   24.9644 C.ar    1  UNL1        0.0172
      3 C          -8.6084  -16.0993   26.3105 C.ar    1  UNL1       -0.0008
      4 C          -7.8416  -15.4576   27.4287 C.ar    1  UNL1       -0.0002
      5 C          -6.4358  -14.9870   27.2007 C.ar    1  UNL1       -0.0000
      6 C          -5.7965  -15.1582   25.8545 C.ar    1  UNL1       -0.0002
      7 C          -6.5632  -15.8000   24.7364 C.ar    1  UNL1       -0.0008
      8 C          -9.9430  -17.7499   24.1486 C.3     1  UNL1        0.0615
      9 C         -11.3252  -17.5319   23.6081 C.3     1  UNL1        0.0224
     10 C         -12.2163  -18.5998   24.1700 C.3     1  UNL1        0.0687
     11 N         -11.3848  -19.4777   25.0576 N.3     1  UNL1       -0.2973
     12 C          -9.9799  -18.9525   25.0444 C.3     1  UNL1        0.0725
     13 H         -11.3994  -20.4360   24.7085 H       1  UNL1        0.1232
     14 O          -8.2956  -16.7165   22.4258 O.3     1  UNL1       -0.4747
     15 CL         -4.4472  -20.0524   21.3954 Cl      1  UNL1       -0.0821
     16 C          -5.8323  -19.5436   21.1259 C.ar    1  UNL1        0.0615
     17 C          -6.6783  -20.1940   20.0718 C.ar    1  UNL1        0.0230
     18 C          -8.0634  -19.6852   19.8023 C.ar    1  UNL1        0.0615
     19 CL         -8.9094  -20.3356   18.7481 Cl      1  UNL1       -0.0821
     20 C          -8.6025  -18.5260   20.5870 C.ar    1  UNL1        0.0483
     21 C          -7.7565  -17.8757   21.6411 C.ar    1  UNL1        0.1405
     22 C          -6.3714  -18.3845   21.9106 C.ar    1  UNL1        0.0483
@<TRIPOS>BOND
     1    15    16    1
     2    16    17   ar
     3    17    18   ar
     4    18    19    1
     5    18    20   ar
     6    20    21   ar
     7    21    14    1
     8     1    14    1
     9     1     2    1
    10     2     3   ar
    11     3     4   ar
    12     4     5   ar
    13     5     6   ar
    14     6     7   ar
    15     1     8    1
    16     8     9    1
    17     9    10    1
    18    10    11    1
    19    11    12    1
    20    21    22   ar
    21    22    16   ar
    22     7     2   ar
    23    12     8    1
    24    11    13    1
