@<TRIPOS>MOLECULE
*****
 21 23 0 0 0
SMALL
GASTEIGER

@<TRIPOS>ATOM
      1 O          -8.2789  -15.2915   24.9693 O.2     1  UNL1       -0.2492
      2 C          -8.1404  -16.2871   23.8560 C.2     1  UNL1        0.3282
      3 C          -9.3501  -16.7196   23.0818 C.3     1  UNL1        0.1326
      4 C          -9.2117  -17.7152   21.9684 C.2     1  UNL1       -0.0196
      5 C          -7.8634  -18.2784   21.6293 C.2     1  UNL1        0.1550
      6 C          -7.7249  -19.2740   20.5159 C.2     1  UNL1        0.3816
      7 O          -8.9347  -19.7065   19.7417 O.2     1  UNL1       -0.2375
      8 N          -6.3767  -19.8371   20.1768 N.am    1  UNL1        0.0378
      9 C          -5.1668  -19.4046   20.9510 C.2     1  UNL1        0.4158
     10 N          -5.3053  -18.4090   22.0643 N.2     1  UNL1        0.0043
     11 C          -6.6537  -17.8459   22.4035 C.2     1  UNL1        0.3522
     12 O          -6.7922  -16.8502   23.5168 O.3     1  UNL1       -0.3856
     13 C          -3.8186  -19.9677   20.6118 C.3     1  UNL1        0.4255
     14 F          -2.7529  -20.0481   21.6644 F       1  UNL1       -0.1845
     15 F          -3.5360  -20.4506   19.2200 F       1  UNL1       -0.1845
     16 C         -10.4215  -18.1477   21.1942 C.3     1  UNL1        0.0230
     17 C         -11.5223  -17.1681   20.9140 C.3     1  UNL1        0.0044
     18 C         -12.8895  -17.3914   21.4893 C.3     1  UNL1        0.0003
     19 C         -13.0406  -17.8271   22.9167 C.3     1  UNL1        0.0000
     20 C         -12.4460  -18.3937   24.1718 C.3     1  UNL1        0.0000
     21 C         -13.8969  -18.0151   24.1338 C.3     1  UNL1        0.0000
@<TRIPOS>BOND
     1     1     2    2
     2     2     3    1
     3     3     4    1
     4     4    16    1
     5    16    17    1
     6    17    18    1
     7    18    19    1
     8    19    20    1
     9    20    21    1
    10     4     5    2
    11     5     6    1
    12     6     7    2
    13     6     8    1
    14     8     9    2
    15     9    13    1
    16    13    14    1
    17    13    15    1
    18     9    10    1
    19    10    11    2
    20    11    12    1
    21    12     2    1
    22    21    19    1
    23    11     5    1
@<TRIPOS>MOLECULE
*****
 21 23 0 0 0
SMALL
GASTEIGER

@<TRIPOS>ATOM
      1 O          -8.6088  -15.2149   24.9052 O.2     1  UNL1       -0.2492
      2 C          -8.3807  -16.1888   23.7875 C.2     1  UNL1        0.3282
      3 C          -9.5113  -16.5614   22.8749 C.3     1  UNL1        0.1326
      4 C          -9.2832  -17.5353   21.7571 C.2     1  UNL1       -0.0196
      5 C          -7.9245  -18.1367   21.5519 C.2     1  UNL1        0.1550
      6 C          -7.6964  -19.1107   20.4342 C.2     1  UNL1        0.3816
      7 O          -8.8270  -19.4832   19.5216 O.2     1  UNL1       -0.2375
      8 N          -6.3377  -19.7120   20.2290 N.am    1  UNL1        0.0378
      9 C          -5.2069  -19.3395   21.1416 C.2     1  UNL1        0.4158
     10 N          -5.4351  -18.3655   22.2593 N.2     1  UNL1        0.0043
     11 C          -6.7939  -17.7641   22.4645 C.2     1  UNL1        0.3522
     12 O          -7.0220  -16.7902   23.5823 O.3     1  UNL1       -0.3856
     13 C          -3.8482  -19.9408   20.9364 C.3     1  UNL1        0.4255
     14 F          -3.5431  -20.6915   19.6740 F       1  UNL1       -0.1845
     15 F          -2.7945  -19.7916   21.9935 F       1  UNL1       -0.1845
     16 C         -10.4140  -17.9079   20.8445 C.3     1  UNL1        0.0230
     17 C         -11.5165  -18.7958   21.3403 C.3     1  UNL1        0.0044
     18 C         -11.1887  -20.1104   21.9842 C.3     1  UNL1        0.0003
     19 C         -10.5106  -20.1420   23.3218 C.3     1  UNL1        0.0000
     20 C         -10.4116  -19.6627   24.7397 C.3     1  UNL1        0.0000
     21 C          -9.4350  -20.6760   24.2206 C.3     1  UNL1        0.0000
@<TRIPOS>BOND
     1     1     2    2
     2     2     3    1
     3     3     4    1
     4     4    16    1
     5    16    17    1
     6    17    18    1
     7    18    19    1
     8    19    20    1
     9    20    21    1
    10     4     5    2
    11     5     6    1
    12     6     7    2
    13     6     8    1
    14     8     9    2
    15     9    13    1
    16    13    14    1
    17    13    15    1
    18     9    10    1
    19    10    11    2
    20    11    12    1
    21    12     2    1
    22    21    19    1
    23    11     5    1
@<TRIPOS>MOLECULE
*****
 21 23 0 0 0
SMALL
GASTEIGER

@<TRIPOS>ATOM
      1 O          -8.9482  -20.3172   18.6544 O.2     1  UNL1       -0.2492
      2 C          -8.9708  -19.3271   19.7810 C.2     1  UNL1        0.3282
      3 C         -10.2711  -18.7243   20.2236 C.3     1  UNL1        0.1326
      4 C         -10.2937  -17.7342   21.3502 C.2     1  UNL1       -0.0196
      5 C          -9.0162  -17.3471   22.0343 C.2     1  UNL1        0.1550
      6 C          -9.0389  -16.3571   23.1610 C.2     1  UNL1        0.3816
      7 O         -10.3391  -15.7542   23.6035 O.2     1  UNL1       -0.2375
      8 N          -7.7614  -15.9699   23.8450 N.am    1  UNL1        0.0378
      9 C          -6.4611  -16.5728   23.4025 C.2     1  UNL1        0.4158
     10 N          -6.4384  -17.5629   22.2758 N.2     1  UNL1        0.0043
     11 C          -7.7160  -17.9500   21.5917 C.2     1  UNL1        0.3522
     12 O          -7.6933  -18.9400   20.4651 O.3     1  UNL1       -0.3856
     13 C          -5.1835  -16.1857   24.0866 C.3     1  UNL1        0.4255
     14 F          -5.1565  -15.9983   25.5746 F       1  UNL1       -0.1845
     15 F          -3.9330  -15.9860   23.2827 F       1  UNL1       -0.1845
     16 C         -11.5941  -17.1313   21.7928 C.3     1  UNL1        0.0230
     17 C         -12.6383  -17.9922   22.4396 C.3     1  UNL1        0.0044
     18 C         -12.4785  -18.4192   23.8687 C.3     1  UNL1        0.0003
     19 C         -11.2332  -19.1334   24.3033 C.3     1  UNL1        0.0000
     20 C         -10.2758  -20.2792   24.1604 C.3     1  UNL1        0.0000
     21 C         -10.0336  -19.2246   25.1992 C.3     1  UNL1        0.0000
@<TRIPOS>BOND
     1     1     2    2
     2     2     3    1
     3     3     4    1
     4     4    16    1
     5    16    17    1
     6    17    18    1
     7    18    19    1
     8    19    20    1
     9    20    21    1
    10     4     5    2
    11     5     6    1
    12     6     7    2
    13     6     8    1
    14     8     9    2
    15     9    13    1
    16    13    14    1
    17    13    15    1
    18     9    10    1
    19    10    11    2
    20    11    12    1
    21    12     2    1
    22    21    19    1
    23    11     5    1
@<TRIPOS>MOLECULE
*****
 21 23 0 0 0
SMALL
GASTEIGER

@<TRIPOS>ATOM
      1 O         -11.9420  -15.2112   19.0113 O.2     1  UNL1       -0.2492
      2 C         -10.9826  -15.9500   19.8967 C.2     1  UNL1        0.3282
      3 C         -11.0927  -17.4386   20.0444 C.3     1  UNL1        0.1326
      4 C         -10.1334  -18.1774   20.9298 C.2     1  UNL1       -0.0196
      5 C          -9.0640  -17.4276   21.6674 C.2     1  UNL1        0.1550
      6 C          -8.1047  -18.1664   22.5527 C.2     1  UNL1        0.3816
      7 O          -8.2148  -19.6550   22.7005 O.2     1  UNL1       -0.2375
      8 N          -7.0352  -17.4166   23.2903 N.am    1  UNL1        0.0378
      9 C          -6.9251  -15.9280   23.1426 C.2     1  UNL1        0.4158
     10 N          -7.8844  -15.1891   22.2572 N.2     1  UNL1        0.0043
     11 C          -8.9539  -15.9390   21.5196 C.2     1  UNL1        0.3522
     12 O          -9.9132  -15.2002   20.6343 O.3     1  UNL1       -0.3856
     13 C          -5.8557  -15.1782   23.8802 C.3     1  UNL1        0.4255
     14 F          -4.5919  -14.7854   23.1739 F       1  UNL1       -0.1845
     15 F          -6.0499  -14.8211   25.3240 F       1  UNL1       -0.1845
     16 C         -10.2436  -19.6661   21.0775 C.3     1  UNL1        0.0230
     17 C         -11.1979  -20.2522   22.0753 C.3     1  UNL1        0.0044
     18 C         -11.4394  -19.5550   23.3814 C.3     1  UNL1        0.0003
     19 C         -12.4598  -18.4592   23.4692 C.3     1  UNL1        0.0000
     20 C         -12.9316  -17.0894   23.0808 C.3     1  UNL1        0.0000
     21 C         -13.7555  -17.9309   24.0098 C.3     1  UNL1        0.0000
@<TRIPOS>BOND
     1     1     2    2
     2     2     3    1
     3     3     4    1
     4     4    16    1
     5    16    17    1
     6    17    18    1
     7    18    19    1
     8    19    20    1
     9    20    21    1
    10     4     5    2
    11     5     6    1
    12     6     7    2
    13     6     8    1
    14     8     9    2
    15     9    13    1
    16    13    14    1
    17    13    15    1
    18     9    10    1
    19    10    11    2
    20    11    12    1
    21    12     2    1
    22    21    19    1
    23    11     5    1
@<TRIPOS>MOLECULE
*****
 21 23 0 0 0
SMALL
GASTEIGER

@<TRIPOS>ATOM
      1 O          -9.2200  -21.1736   17.7284 O.2     1  UNL1       -0.2492
      2 C          -8.8682  -20.2750   18.8767 C.2     1  UNL1        0.3282
      3 C          -9.9049  -19.3598   19.4578 C.3     1  UNL1        0.1326
      4 C          -9.5531  -18.4612   20.6062 C.2     1  UNL1       -0.0196
      5 C          -8.1647  -18.4778   21.1735 C.2     1  UNL1        0.1550
      6 C          -7.8129  -17.5792   22.3219 C.2     1  UNL1        0.3816
      7 O          -8.8496  -16.6640   22.9030 O.2     1  UNL1       -0.2375
      8 N          -6.4244  -17.5958   22.8892 N.am    1  UNL1        0.0378
      9 C          -5.3877  -18.5110   22.3081 C.2     1  UNL1        0.4158
     10 N          -5.7395  -19.4096   21.1597 N.2     1  UNL1        0.0043
     11 C          -7.1280  -19.3930   20.5924 C.2     1  UNL1        0.3522
     12 O          -7.4798  -20.2916   19.4441 O.3     1  UNL1       -0.3856
     13 C          -3.9992  -18.5276   22.8754 C.3     1  UNL1        0.4255
     14 F          -2.9164  -19.3033   22.1856 F       1  UNL1       -0.1845
     15 F          -3.6936  -17.7686   24.1326 F       1  UNL1       -0.1845
     16 C         -10.5899  -17.5460   21.1873 C.3     1  UNL1        0.0230
     17 C         -11.9054  -18.0997   21.6483 C.3     1  UNL1        0.0044
     18 C         -12.1025  -18.4624   23.0905 C.3     1  UNL1        0.0003
     19 C         -11.0041  -19.1469   23.8486 C.3     1  UNL1        0.0000
     20 C         -10.0474  -20.2924   23.9982 C.3     1  UNL1        0.0000
     21 C         -10.0583  -19.1871   25.0121 C.3     1  UNL1        0.0000
@<TRIPOS>BOND
     1     1     2    2
     2     2     3    1
     3     3     4    1
     4     4    16    1
     5    16    17    1
     6    17    18    1
     7    18    19    1
     8    19    20    1
     9    20    21    1
    10     4     5    2
    11     5     6    1
    12     6     7    2
    13     6     8    1
    14     8     9    2
    15     9    13    1
    16    13    14    1
    17    13    15    1
    18     9    10    1
    19    10    11    2
    20    11    12    1
    21    12     2    1
    22    21    19    1
    23    11     5    1
@<TRIPOS>MOLECULE
*****
 21 23 0 0 0
SMALL
GASTEIGER

@<TRIPOS>ATOM
      1 O         -11.3853  -15.0651   19.0333 O.2     1  UNL1       -0.2492
      2 C         -10.7950  -15.5329   20.3305 C.2     1  UNL1        0.3282
      3 C         -11.5853  -16.4341   21.2324 C.3     1  UNL1        0.1326
      4 C         -10.9950  -16.9020   22.5296 C.2     1  UNL1       -0.0196
      5 C          -9.6145  -16.4686   22.9250 C.2     1  UNL1        0.1550
      6 C          -9.0242  -16.9364   24.2222 C.2     1  UNL1        0.3816
      7 O          -9.8145  -17.8376   25.1240 O.2     1  UNL1       -0.2375
      8 N          -7.6437  -16.5030   24.6175 N.am    1  UNL1        0.0378
      9 C          -6.8534  -15.6018   23.7157 C.2     1  UNL1        0.4158
     10 N          -7.4437  -15.1339   22.4185 N.2     1  UNL1        0.0043
     11 C          -8.8243  -15.5674   22.0231 C.2     1  UNL1        0.3522
     12 O          -9.4145  -15.0996   20.7259 O.3     1  UNL1       -0.3856
     13 C          -5.4729  -15.1684   24.1111 C.3     1  UNL1        0.4255
     14 F          -4.4891  -14.7473   23.0599 F       1  UNL1       -0.1845
     15 F          -5.0762  -15.1560   25.5576 F       1  UNL1       -0.1845
     16 C         -11.7853  -17.8032   23.4314 C.3     1  UNL1        0.0230
     17 C         -11.9850  -19.2438   23.0643 C.3     1  UNL1        0.0044
     18 C         -10.8405  -20.0437   22.5160 C.3     1  UNL1        0.0003
     19 C         -10.2738  -19.7146   21.1668 C.3     1  UNL1        0.0000
     20 C          -9.1163  -19.2903   20.3123 C.3     1  UNL1        0.0000
     21 C         -10.4498  -19.5688   19.6843 C.3     1  UNL1        0.0000
@<TRIPOS>BOND
     1     1     2    2
     2     2     3    1
     3     3     4    1
     4     4    16    1
     5    16    17    1
     6    17    18    1
     7    18    19    1
     8    19    20    1
     9    20    21    1
    10     4     5    2
    11     5     6    1
    12     6     7    2
    13     6     8    1
    14     8     9    2
    15     9    13    1
    16    13    14    1
    17    13    15    1
    18     9    10    1
    19    10    11    2
    20    11    12    1
    21    12     2    1
    22    21    19    1
    23    11     5    1
@<TRIPOS>MOLECULE
*****
 21 23 0 0 0
SMALL
GASTEIGER

@<TRIPOS>ATOM
      1 O          -5.4406  -20.2366   21.4921 O.2     1  UNL1       -0.2492
      2 C          -6.4117  -19.2217   22.0184 C.2     1  UNL1        0.3282
      3 C          -5.9073  -17.9685   22.6701 C.3     1  UNL1        0.1326
      4 C          -6.8784  -16.9536   23.1965 C.2     1  UNL1       -0.0196
      5 C          -8.3540  -17.1921   23.0711 C.2     1  UNL1        0.1550
      6 C          -9.3251  -16.1772   23.5974 C.2     1  UNL1        0.3816
      7 O          -8.8207  -14.9240   24.2492 O.2     1  UNL1       -0.2375
      8 N         -10.8007  -16.4157   23.4720 N.am    1  UNL1        0.0378
      9 C         -11.3052  -17.6690   22.8202 C.2     1  UNL1        0.4158
     10 N         -10.3341  -18.6838   22.2939 N.2     1  UNL1        0.0043
     11 C          -8.8584  -18.4453   22.4193 C.2     1  UNL1        0.3522
     12 O          -7.8873  -19.4602   21.8930 O.3     1  UNL1       -0.3856
     13 C         -12.7808  -17.9074   22.6948 C.3     1  UNL1        0.4255
     14 F         -13.6095  -18.1431   23.9228 F       1  UNL1       -0.1845
     15 F         -13.4278  -17.9101   21.3415 F       1  UNL1       -0.1845
     16 C          -6.3739  -15.7003   23.8483 C.3     1  UNL1        0.0230
     17 C          -5.3249  -15.7809   24.9174 C.3     1  UNL1        0.0044
     18 C          -5.6509  -15.3640   26.3210 C.3     1  UNL1        0.0003
     19 C          -7.0120  -15.6392   26.8882 C.3     1  UNL1        0.0000
     20 C          -8.1013  -16.6088   27.2391 C.3     1  UNL1        0.0000
     21 C          -8.2801  -15.1462   27.5196 C.3     1  UNL1        0.0000
@<TRIPOS>BOND
     1     1     2    2
     2     2     3    1
     3     3     4    1
     4     4    16    1
     5    16    17    1
     6    17    18    1
     7    18    19    1
     8    19    20    1
     9    20    21    1
    10     4     5    2
    11     5     6    1
    12     6     7    2
    13     6     8    1
    14     8     9    2
    15     9    13    1
    16    13    14    1
    17    13    15    1
    18     9    10    1
    19    10    11    2
    20    11    12    1
    21    12     2    1
    22    21    19    1
    23    11     5    1
@<TRIPOS>MOLECULE
*****
 21 23 0 0 0
SMALL
GASTEIGER

@<TRIPOS>ATOM
      1 O          -8.4667  -15.2979   25.6410 O.2     1  UNL1       -0.2492
      2 C          -8.5427  -16.2978   24.5255 C.2     1  UNL1        0.3282
      3 C          -9.8590  -16.9195   24.1639 C.3     1  UNL1        0.1326
      4 C          -9.9350  -17.9193   23.0484 C.2     1  UNL1       -0.0196
      5 C          -8.6948  -18.2975   22.2943 C.2     1  UNL1        0.1550
      6 C          -8.7708  -19.2974   21.1788 C.2     1  UNL1        0.3816
      7 O         -10.0871  -19.9191   20.8173 O.2     1  UNL1       -0.2375
      8 N          -7.5305  -19.6756   20.4247 N.am    1  UNL1        0.0378
      9 C          -6.2141  -19.0539   20.7862 C.2     1  UNL1        0.4158
     10 N          -6.1381  -18.0540   21.9018 N.2     1  UNL1        0.0043
     11 C          -7.3784  -17.6758   22.6559 C.2     1  UNL1        0.3522
     12 O          -7.3024  -16.6760   23.7714 O.3     1  UNL1       -0.3856
     13 C          -4.9738  -19.4320   20.0322 C.3     1  UNL1        0.4255
     14 F          -4.3550  -18.4608   19.0710 F       1  UNL1       -0.1845
     15 F          -4.3523  -20.7814   20.2393 F       1  UNL1       -0.1845
     16 C         -11.2515  -18.5410   22.6869 C.3     1  UNL1        0.0230
     17 C         -12.5270  -17.7888   22.9259 C.3     1  UNL1        0.0044
     18 C         -12.7462  -16.4569   22.2716 C.3     1  UNL1        0.0003
     19 C         -11.9940  -16.1017   21.0234 C.3     1  UNL1        0.0000
     20 C         -10.7345  -15.6388   20.3531 C.3     1  UNL1        0.0000
     21 C         -11.9507  -15.9493   19.5318 C.3     1  UNL1        0.0000
@<TRIPOS>BOND
     1     1     2    2
     2     2     3    1
     3     3     4    1
     4     4    16    1
     5    16    17    1
     6    17    18    1
     7    18    19    1
     8    19    20    1
     9    20    21    1
    10     4     5    2
    11     5     6    1
    12     6     7    2
    13     6     8    1
    14     8     9    2
    15     9    13    1
    16    13    14    1
    17    13    15    1
    18     9    10    1
    19    10    11    2
    20    11    12    1
    21    12     2    1
    22    21    19    1
    23    11     5    1
@<TRIPOS>MOLECULE
*****
 21 23 0 0 0
SMALL
GASTEIGER

@<TRIPOS>ATOM
      1 O          -5.1385  -14.5179   25.8591 O.2     1  UNL1       -0.2492
      2 C          -5.5878  -15.5077   24.8256 C.2     1  UNL1        0.3282
      3 C          -7.0470  -15.6523   24.5099 C.3     1  UNL1        0.1326
      4 C          -7.4963  -16.6422   23.4763 C.2     1  UNL1       -0.0196
      5 C          -6.4864  -17.4875   22.7585 C.2     1  UNL1        0.1550
      6 C          -6.9357  -18.4774   21.7249 C.2     1  UNL1        0.3816
      7 O          -8.3949  -18.6219   21.4092 O.2     1  UNL1       -0.2375
      8 N          -5.9258  -19.3228   21.0071 N.am    1  UNL1        0.0378
      9 C          -4.4665  -19.1783   21.3228 C.2     1  UNL1        0.4158
     10 N          -4.0172  -18.1884   22.3563 N.2     1  UNL1        0.0043
     11 C          -5.0272  -17.3430   23.0742 C.2     1  UNL1        0.3522
     12 O          -4.5779  -16.3531   24.1077 O.3     1  UNL1       -0.3856
     13 C          -3.4565  -20.0237   20.6049 C.3     1  UNL1        0.4255
     14 F          -3.9029  -20.9907   19.5485 F       1  UNL1       -0.1845
     15 F          -2.0003  -19.9022   20.9434 F       1  UNL1       -0.1845
     16 C          -8.9557  -16.7866   23.1606 C.3     1  UNL1        0.0230
     17 C          -9.9296  -17.1198   24.2516 C.3     1  UNL1        0.0044
     18 C         -10.8601  -18.2861   24.0960 C.3     1  UNL1        0.0003
     19 C         -12.2703  -18.0642   23.6357 C.3     1  UNL1        0.0000
     20 C         -13.7403  -18.0152   23.9300 C.3     1  UNL1        0.0000
     21 C         -13.2430  -17.7288   22.5442 C.3     1  UNL1        0.0000
@<TRIPOS>BOND
     1     1     2    2
     2     2     3    1
     3     3     4    1
     4     4    16    1
     5    16    17    1
     6    17    18    1
     7    18    19    1
     8    19    20    1
     9    20    21    1
    10     4     5    2
    11     5     6    1
    12     6     7    2
    13     6     8    1
    14     8     9    2
    15     9    13    1
    16    13    14    1
    17    13    15    1
    18     9    10    1
    19    10    11    2
    20    11    12    1
    21    12     2    1
    22    21    19    1
    23    11     5    1
