@<TRIPOS>MOLECULE
*****
 33 37 0 0 0
SMALL
GASTEIGER

@<TRIPOS>ATOM
      1 O         -11.0176  -20.3310   22.0556 O.2     1  UNL1       -0.4710
      2 C          -3.5876  -19.0308   20.4981 C.3     1  UNL1        0.0458
      3 C          -3.4525  -19.2238   21.9795 C.3     1  UNL1        0.0110
      4 C          -4.8171  -19.5016   22.5371 C.3     1  UNL1        0.0280
      5 C          -5.7955  -19.4802   21.4002 C.2     1  UNL1       -0.0074
      6 C          -5.0356  -19.1892   20.1401 C.2     1  UNL1        0.0547
      7 N          -6.0140  -19.1679   19.0034 N.2     1  UNL1       -0.2540
      8 C          -7.3786  -19.4456   19.5609 C.2     1  UNL1        0.0628
      9 C          -8.7266  -19.5477   18.9111 C.3     1  UNL1        0.0749
     10 C          -9.9396  -19.8428   19.7426 C.2     1  UNL1        0.0171
     11 C          -9.8045  -20.0359   21.2240 C.2     1  UNL1        0.1352
     12 C          -8.4565  -19.9338   21.8739 C.2     1  UNL1        0.0375
     13 C          -7.2435  -19.6387   21.0423 C.2     1  UNL1        0.0140
     14 C          -2.4707  -18.7318   19.5425 C.3     1  UNL1        0.0476
     15 O          -1.3131  -16.7258   20.7196 O.co2   1  UNL1       -0.5492
     16 C          -1.2245  -18.0564   20.0332 C.2     1  UNL1        0.0507
     17 O           0.1105  -18.7119   19.8374 O.co2   1  UNL1       -0.5492
     18 C         -11.5406  -19.3001   23.0115 C.3     1  UNL1        0.2320
     19 C         -10.5846  -18.4616   23.8072 C.ar    1  UNL1        0.0211
     20 C         -10.4319  -18.6929   25.2813 C.ar    1  UNL1       -0.0010
     21 C          -9.4760  -17.8545   26.0769 C.ar    1  UNL1       -0.0045
     22 C          -8.6727  -16.7847   25.3984 C.ar    1  UNL1       -0.0186
     23 C          -8.8255  -16.5533   23.9243 C.ar    1  UNL1        0.0673
     24 C          -9.7814  -17.3918   23.1287 C.ar    1  UNL1        0.0028
     25 C          -7.7168  -15.9462   26.1942 C.3     1  UNL1        0.0223
     26 C          -6.2658  -15.7277   25.8828 C.3     1  UNL1        0.0043
     27 C          -5.6961  -14.8255   26.9371 C.3     1  UNL1        0.0003
     28 C          -6.7952  -14.4863   27.9000 C.3     1  UNL1        0.0003
     29 C          -8.0439  -15.1789   27.4409 C.3     1  UNL1        0.0043
     30 C          -8.0222  -15.4835   23.2458 C.3     1  UNL1        0.4183
     31 F          -7.2190  -14.4137   22.5673 F       1  UNL1       -0.1659
     32 F          -7.3528  -16.5240   22.3977 F       1  UNL1       -0.1659
     33 F          -8.6916  -14.4431   24.0939 F       1  UNL1       -0.1659
@<TRIPOS>UNITY_ATOM_ATTR
15 1
charge -1
@<TRIPOS>BOND
     1    15    16   ar
     2    16    17   ar
     3    16    14    1
     4     2    14    1
     5     2     3    1
     6     3     4    1
     7     4     5    1
     8     5     6    2
     9     6     7    1
    10     7     8    2
    11     8     9    1
    12     9    10    1
    13    10    11    2
    14    11     1    1
    15     1    18    1
    16    18    19    1
    17    19    20   ar
    18    20    21   ar
    19    21    22   ar
    20    22    25    1
    21    25    26    1
    22    26    27    1
    23    27    28    1
    24    28    29    1
    25    22    23   ar
    26    23    30    1
    27    30    31    1
    28    30    32    1
    29    30    33    1
    30    23    24   ar
    31    11    12    1
    32    12    13    2
    33     6     2    1
    34    13     8    1
    35    13     5    1
    36    24    19   ar
    37    29    25    1
@<TRIPOS>MOLECULE
*****
 33 37 0 0 0
SMALL
GASTEIGER

@<TRIPOS>ATOM
      1 O          -0.2230    3.4492   19.8462 O.2     1  UNL1       -0.4710
      2 C          -6.7468    4.3148   23.8478 C.3     1  UNL1        0.0458
      3 C          -5.8126    4.1735   25.0129 C.3     1  UNL1        0.0110
      4 C          -4.4251    3.9863   24.4745 C.3     1  UNL1        0.0280
      5 C          -4.5018    4.0119   22.9766 C.2     1  UNL1       -0.0074
      6 C          -5.9367    4.2149   22.5894 C.2     1  UNL1        0.0547
      7 N          -6.0133    4.2405   21.0915 N.2     1  UNL1       -0.2540
      8 C          -4.6259    4.0533   20.5531 C.2     1  UNL1        0.0628
      9 C          -4.0925    3.9932   19.1524 C.3     1  UNL1        0.0749
     10 C          -2.6249    3.7919   18.9168 C.2     1  UNL1        0.0171
     11 C          -1.6907    3.6506   20.0819 C.2     1  UNL1        0.1352
     12 C          -2.2241    3.7107   21.4825 C.2     1  UNL1        0.0375
     13 C          -3.6917    3.9120   21.7181 C.2     1  UNL1        0.0140
     14 C          -8.2305    4.5199   23.9273 C.3     1  UNL1        0.0476
     15 O          -8.9483    6.1731   25.7986 O.co2   1  UNL1       -0.5492
     16 C          -8.7823    5.8514   24.3430 C.2     1  UNL1        0.0507
     17 O          -9.1681    6.8612   23.3030 O.co2   1  UNL1       -0.5492
     18 C           0.2430    2.5913   18.7075 C.3     1  UNL1        0.2320
     19 C           1.0398    1.3501   18.9807 C.ar    1  UNL1        0.0211
     20 C           0.5597    0.3598   19.9998 C.ar    1  UNL1       -0.0010
     21 C           1.3565   -0.8813   20.2730 C.ar    1  UNL1       -0.0045
     22 C           2.6334   -1.1321   19.5270 C.ar    1  UNL1       -0.0186
     23 C           3.1136   -0.1418   18.5079 C.ar    1  UNL1        0.0673
     24 C           2.3168    1.0993   18.2347 C.ar    1  UNL1        0.0028
     25 C           3.4302   -2.3733   19.8003 C.3     1  UNL1        0.0223
     26 C           3.2733   -3.6928   19.1043 C.3     1  UNL1        0.0043
     27 C           4.2699   -4.6479   19.6913 C.3     1  UNL1        0.0003
     28 C           5.0428   -3.9187   20.7500 C.3     1  UNL1        0.0003
     29 C           4.5238   -2.5129   20.8173 C.3     1  UNL1        0.0043
     30 C           4.3906   -0.3926   17.7620 C.3     1  UNL1        0.4183
     31 F           5.6675   -0.6434   17.0160 F       1  UNL1       -0.1659
     32 F           5.1657    0.2544   18.8713 F       1  UNL1       -0.1659
     33 F           3.6155   -1.0396   16.6526 F       1  UNL1       -0.1659
@<TRIPOS>UNITY_ATOM_ATTR
15 1
charge -1
@<TRIPOS>BOND
     1    15    16   ar
     2    16    17   ar
     3    16    14    1
     4     2    14    1
     5     2     3    1
     6     3     4    1
     7     4     5    1
     8     5     6    2
     9     6     7    1
    10     7     8    2
    11     8     9    1
    12     9    10    1
    13    10    11    2
    14    11     1    1
    15     1    18    1
    16    18    19    1
    17    19    20   ar
    18    20    21   ar
    19    21    22   ar
    20    22    25    1
    21    25    26    1
    22    26    27    1
    23    27    28    1
    24    28    29    1
    25    22    23   ar
    26    23    30    1
    27    30    31    1
    28    30    32    1
    29    30    33    1
    30    23    24   ar
    31    11    12    1
    32    12    13    2
    33     6     2    1
    34    13     8    1
    35    13     5    1
    36    24    19   ar
    37    29    25    1
@<TRIPOS>MOLECULE
*****
 33 37 0 0 0
SMALL
GASTEIGER

@<TRIPOS>ATOM
      1 O           8.7068   -6.2189   22.0798 O.2     1  UNL1       -0.4710
      2 C           6.9125   -3.8660   29.1908 C.3     1  UNL1        0.0458
      3 C           6.8610   -2.5273   28.5162 C.3     1  UNL1        0.0110
      4 C           7.1871   -2.7262   27.0656 C.3     1  UNL1        0.0280
      5 C           7.4402   -4.1881   26.8437 C.2     1  UNL1       -0.0074
      6 C           7.2705   -4.8924   28.1571 C.2     1  UNL1        0.0547
      7 N           7.5236   -6.3541   27.9352 N.2     1  UNL1       -0.2540
      8 C           7.8497   -6.5532   26.4847 C.2     1  UNL1        0.0628
      9 C           8.1869   -7.7805   25.6910 C.3     1  UNL1        0.0749
     10 C           8.4726   -7.6691   24.2228 C.2     1  UNL1        0.0171
     11 C           8.4210   -6.3303   23.5481 C.2     1  UNL1        0.1352
     12 C           8.0838   -5.1030   24.3418 C.2     1  UNL1        0.0375
     13 C           7.7982   -5.2145   25.8101 C.2     1  UNL1        0.0140
     14 C           6.6519   -4.1317   30.6438 C.3     1  UNL1        0.0476
     15 O           6.6545   -6.2842   32.0988 O.co2   1  UNL1       -0.5492
     16 C           7.4029   -5.2189   31.3539 C.2     1  UNL1        0.0507
     17 O           8.9024   -5.2407   31.3189 O.co2   1  UNL1       -0.5492
     18 C           9.0689   -4.8904   21.4848 C.3     1  UNL1        0.2320
     19 C           8.0088   -4.0374   20.8534 C.ar    1  UNL1        0.0211
     20 C           8.2984   -2.6031   20.5233 C.ar    1  UNL1       -0.0010
     21 C           7.2383   -1.7501   19.8919 C.ar    1  UNL1       -0.0045
     22 C           5.8887   -2.3314   19.5907 C.ar    1  UNL1       -0.0186
     23 C           5.5992   -3.7656   19.9209 C.ar    1  UNL1        0.0673
     24 C           6.6592   -4.6186   20.5523 C.ar    1  UNL1        0.0028
     25 C           4.8286   -1.4783   18.9593 C.3     1  UNL1        0.0223
     26 C           3.8049   -0.6600   19.6890 C.3     1  UNL1        0.0043
     27 C           2.9498    0.0303   18.6682 C.3     1  UNL1        0.0003
     28 C           3.4450   -0.3615   17.3075 C.3     1  UNL1        0.0003
     29 C           4.6062   -1.2938   17.4875 C.3     1  UNL1        0.0043
     30 C           4.2495   -4.3469   19.6197 C.3     1  UNL1        0.4183
     31 F           2.8999   -4.9281   19.3185 F       1  UNL1       -0.1659
     32 F           3.7917   -4.0022   21.0059 F       1  UNL1       -0.1659
     33 F           4.7073   -4.6916   18.2335 F       1  UNL1       -0.1659
@<TRIPOS>UNITY_ATOM_ATTR
15 1
charge -1
@<TRIPOS>BOND
     1    15    16   ar
     2    16    17   ar
     3    16    14    1
     4     2    14    1
     5     2     3    1
     6     3     4    1
     7     4     5    1
     8     5     6    2
     9     6     7    1
    10     7     8    2
    11     8     9    1
    12     9    10    1
    13    10    11    2
    14    11     1    1
    15     1    18    1
    16    18    19    1
    17    19    20   ar
    18    20    21   ar
    19    21    22   ar
    20    22    25    1
    21    25    26    1
    22    26    27    1
    23    27    28    1
    24    28    29    1
    25    22    23   ar
    26    23    30    1
    27    30    31    1
    28    30    32    1
    29    30    33    1
    30    23    24   ar
    31    11    12    1
    32    12    13    2
    33     6     2    1
    34    13     8    1
    35    13     5    1
    36    24    19   ar
    37    29    25    1
@<TRIPOS>MOLECULE
*****
 33 37 0 0 0
SMALL
GASTEIGER

@<TRIPOS>ATOM
      1 O          -0.9748    2.9042   18.8616 O.2     1  UNL1       -0.4710
      2 C          -5.8177    4.9522   24.4896 C.3     1  UNL1        0.0458
      3 C          -6.8375    4.4068   23.5343 C.3     1  UNL1        0.0110
      4 C          -6.1157    3.9259   22.3104 C.3     1  UNL1        0.0280
      5 C          -4.6497    4.1741   22.5094 C.2     1  UNL1       -0.0074
      6 C          -4.4656    4.8083   23.8562 C.2     1  UNL1        0.0547
      7 N          -2.9997    5.0564   24.0551 N.2     1  UNL1       -0.2540
      8 C          -2.2778    4.5755   22.8313 C.2     1  UNL1        0.0628
      9 C          -0.8237    4.5637   22.4635 C.3     1  UNL1        0.0749
     10 C          -0.3894    4.0066   21.1403 C.2     1  UNL1        0.0171
     11 C          -1.4092    3.4613   20.1849 C.2     1  UNL1        0.1352
     12 C          -2.8633    3.4731   20.5528 C.2     1  UNL1        0.0375
     13 C          -3.2976    4.0302   21.8760 C.2     1  UNL1        0.0140
     14 C          -6.1003    5.5384   25.8410 C.3     1  UNL1        0.0476
     15 O          -5.0122    6.2271   28.0976 O.co2   1  UNL1       -0.5492
     16 C          -5.1992    5.2239   26.9983 C.2     1  UNL1        0.0507
     17 O          -4.4851    3.9060   27.0561 O.co2   1  UNL1       -0.5492
     18 C           0.4856    2.7548   18.5538 C.3     1  UNL1        0.2320
     19 C           1.1965    1.4778   18.8916 C.ar    1  UNL1        0.0211
     20 C           0.5969    0.5252   19.8829 C.ar    1  UNL1       -0.0010
     21 C           1.3078   -0.7517   20.2207 C.ar    1  UNL1       -0.0045
     22 C           2.6184   -1.0760   19.5670 C.ar    1  UNL1       -0.0186
     23 C           3.2180   -0.1234   18.5757 C.ar    1  UNL1        0.0673
     24 C           2.5071    1.1535   18.2379 C.ar    1  UNL1        0.0028
     25 C           3.3293   -2.3529   19.9048 C.3     1  UNL1        0.0223
     26 C           4.2629   -2.5633   21.0599 C.3     1  UNL1        0.0043
     27 C           4.7420   -3.9840   21.0159 C.3     1  UNL1        0.0003
     28 C           4.1046   -4.6517   19.8335 C.3     1  UNL1        0.0003
     29 C           3.2315   -3.6436   19.1469 C.3     1  UNL1        0.0043
     30 C           4.5286   -0.4476   17.9220 C.3     1  UNL1        0.4183
     31 F           5.8392   -0.7719   17.2684 F       1  UNL1       -0.1659
     32 F           5.2576    0.1904   19.0672 F       1  UNL1       -0.1659
     33 F           3.7996   -1.0857   16.7769 F       1  UNL1       -0.1659
@<TRIPOS>UNITY_ATOM_ATTR
15 1
charge -1
@<TRIPOS>BOND
     1    15    16   ar
     2    16    17   ar
     3    16    14    1
     4     2    14    1
     5     2     3    1
     6     3     4    1
     7     4     5    1
     8     5     6    2
     9     6     7    1
    10     7     8    2
    11     8     9    1
    12     9    10    1
    13    10    11    2
    14    11     1    1
    15     1    18    1
    16    18    19    1
    17    19    20   ar
    18    20    21   ar
    19    21    22   ar
    20    22    25    1
    21    25    26    1
    22    26    27    1
    23    27    28    1
    24    28    29    1
    25    22    23   ar
    26    23    30    1
    27    30    31    1
    28    30    32    1
    29    30    33    1
    30    23    24   ar
    31    11    12    1
    32    12    13    2
    33     6     2    1
    34    13     8    1
    35    13     5    1
    36    24    19   ar
    37    29    25    1
@<TRIPOS>MOLECULE
*****
 33 37 0 0 0
SMALL
GASTEIGER

@<TRIPOS>ATOM
      1 O           1.7779    2.0859   24.8586 O.2     1  UNL1       -0.4710
      2 C          -5.5671    4.2811   24.1136 C.3     1  UNL1        0.0458
      3 C          -5.2814    4.0360   22.6616 C.3     1  UNL1        0.0110
      4 C          -3.8570    3.5815   22.5397 C.3     1  UNL1        0.0280
      5 C          -3.2624    3.5458   23.9164 C.2     1  UNL1       -0.0074
      6 C          -4.3193    3.9782   24.8891 C.2     1  UNL1        0.0547
      7 N          -3.7247    3.9425   26.2657 N.2     1  UNL1       -0.2540
      8 C          -2.3004    3.4881   26.1439 C.2     1  UNL1        0.0628
      9 C          -1.2267    3.2659   27.1674 C.3     1  UNL1        0.0749
     10 C           0.1327    2.7985   26.7390 C.2     1  UNL1        0.0171
     11 C           0.4184    2.5533   25.2870 C.2     1  UNL1        0.1352
     12 C          -0.6553    2.7755   24.2634 C.2     1  UNL1        0.0375
     13 C          -2.0147    3.2429   24.6919 C.2     1  UNL1        0.0140
     14 C          -6.8714    4.7473   24.6891 C.3     1  UNL1        0.0476
     15 O          -8.1259    5.9948   22.7865 O.co2   1  UNL1       -0.5492
     16 C          -8.0728    4.8930   23.8028 C.2     1  UNL1        0.0507
     17 O          -9.2212    3.9367   23.9329 O.co2   1  UNL1       -0.5492
     18 C           2.1566    0.6424   25.0094 C.3     1  UNL1        0.2320
     19 C           2.6516   -0.1310   23.8232 C.ar    1  UNL1        0.0211
     20 C           3.6727   -1.2143   24.0072 C.ar    1  UNL1       -0.0010
     21 C           4.1676   -1.9877   22.8211 C.ar    1  UNL1       -0.0045
     22 C           3.6415   -1.6777   21.4510 C.ar    1  UNL1       -0.0186
     23 C           2.6204   -0.5944   21.2670 C.ar    1  UNL1        0.0673
     24 C           2.1255    0.1789   22.4532 C.ar    1  UNL1        0.0028
     25 C           4.1365   -2.4511   20.2649 C.3     1  UNL1        0.0223
     26 C           3.5859   -3.7561   19.7710 C.3     1  UNL1        0.0043
     27 C           4.3780   -4.1669   18.5653 C.3     1  UNL1        0.0003
     28 C           5.4182   -3.1157   18.3140 C.3     1  UNL1        0.0003
     29 C           5.2689   -2.0554   19.3644 C.3     1  UNL1        0.0043
     30 C           2.0943   -0.2845   19.8970 C.3     1  UNL1        0.4183
     31 F           1.5682    0.0254   18.5269 F       1  UNL1       -0.1659
     32 F           3.2188    0.6852   19.6845 F       1  UNL1       -0.1659
     33 F           0.9698   -1.2542   20.1094 F       1  UNL1       -0.1659
@<TRIPOS>UNITY_ATOM_ATTR
15 1
charge -1
@<TRIPOS>BOND
     1    15    16   ar
     2    16    17   ar
     3    16    14    1
     4     2    14    1
     5     2     3    1
     6     3     4    1
     7     4     5    1
     8     5     6    2
     9     6     7    1
    10     7     8    2
    11     8     9    1
    12     9    10    1
    13    10    11    2
    14    11     1    1
    15     1    18    1
    16    18    19    1
    17    19    20   ar
    18    20    21   ar
    19    21    22   ar
    20    22    25    1
    21    25    26    1
    22    26    27    1
    23    27    28    1
    24    28    29    1
    25    22    23   ar
    26    23    30    1
    27    30    31    1
    28    30    32    1
    29    30    33    1
    30    23    24   ar
    31    11    12    1
    32    12    13    2
    33     6     2    1
    34    13     8    1
    35    13     5    1
    36    24    19   ar
    37    29    25    1
@<TRIPOS>MOLECULE
*****
 33 37 0 0 0
SMALL
GASTEIGER

@<TRIPOS>ATOM
      1 O           0.4053    3.7427   19.9148 O.2     1  UNL1       -0.4710
      2 C           0.6981    2.1142   27.4370 C.3     1  UNL1        0.0458
      3 C          -0.7864    1.9904   27.2613 C.3     1  UNL1        0.0110
      4 C          -1.1082    2.2726   25.8236 C.3     1  UNL1        0.0280
      5 C           0.1775    2.5707   25.1108 C.2     1  UNL1       -0.0074
      6 C           1.2938    2.4728   26.1079 C.2     1  UNL1        0.0547
      7 N           2.5795    2.7709   25.3951 N.2     1  UNL1       -0.2540
      8 C           2.2578    3.0531   23.9574 C.2     1  UNL1        0.0628
      9 C           3.1248    3.4067   22.7856 C.3     1  UNL1        0.0749
     10 C           2.5073    3.6366   21.4381 C.2     1  UNL1        0.0171
     11 C           1.0228    3.5128   21.2624 C.2     1  UNL1        0.1352
     12 C           0.1558    3.1592   22.4342 C.2     1  UNL1        0.0375
     13 C           0.7733    2.9294   23.7817 C.2     1  UNL1        0.0140
     14 C           1.4542    1.9144   28.7170 C.3     1  UNL1        0.0476
     15 O          -0.1054    1.5068   30.7546 O.co2   1  UNL1       -0.5492
     16 C           0.9103    0.9998   29.7743 C.2     1  UNL1        0.0507
     17 O           1.3822   -0.4220   29.8512 O.co2   1  UNL1       -0.5492
     18 C           0.2437    2.5983   18.9588 C.3     1  UNL1        0.2320
     19 C           1.0699    1.3577   19.1274 C.ar    1  UNL1        0.0211
     20 C           0.6366    0.2932   20.0913 C.ar    1  UNL1       -0.0010
     21 C           1.4628   -0.9473   20.2599 C.ar    1  UNL1       -0.0045
     22 C           2.7224   -1.1233   19.4647 C.ar    1  UNL1       -0.0186
     23 C           3.1558   -0.0589   18.5008 C.ar    1  UNL1        0.0673
     24 C           2.3295    1.1816   18.3322 C.ar    1  UNL1        0.0028
     25 C           3.5486   -2.3639   19.6334 C.3     1  UNL1        0.0223
     26 C           3.3158   -3.6781   18.9487 C.3     1  UNL1        0.0043
     27 C           4.3759   -4.6345   19.4085 C.3     1  UNL1        0.0003
     28 C           5.2640   -3.9114   20.3773 C.3     1  UNL1        0.0003
     29 C           4.7526   -2.5081   20.5163 C.3     1  UNL1        0.0043
     30 C           4.4154   -0.2349   17.7056 C.3     1  UNL1        0.4183
     31 F           5.6750   -0.4110   16.9103 F       1  UNL1       -0.1659
     32 F           3.6294   -0.8817   16.6038 F       1  UNL1       -0.1659
     33 F           5.2014    0.4118   18.8074 F       1  UNL1       -0.1659
@<TRIPOS>UNITY_ATOM_ATTR
15 1
charge -1
@<TRIPOS>BOND
     1    15    16   ar
     2    16    17   ar
     3    16    14    1
     4     2    14    1
     5     2     3    1
     6     3     4    1
     7     4     5    1
     8     5     6    2
     9     6     7    1
    10     7     8    2
    11     8     9    1
    12     9    10    1
    13    10    11    2
    14    11     1    1
    15     1    18    1
    16    18    19    1
    17    19    20   ar
    18    20    21   ar
    19    21    22   ar
    20    22    25    1
    21    25    26    1
    22    26    27    1
    23    27    28    1
    24    28    29    1
    25    22    23   ar
    26    23    30    1
    27    30    31    1
    28    30    32    1
    29    30    33    1
    30    23    24   ar
    31    11    12    1
    32    12    13    2
    33     6     2    1
    34    13     8    1
    35    13     5    1
    36    24    19   ar
    37    29    25    1
@<TRIPOS>MOLECULE
*****
 33 37 0 0 0
SMALL
GASTEIGER

@<TRIPOS>ATOM
      1 O           0.7356    1.2186   25.2695 O.2     1  UNL1       -0.4710
      2 C          -5.6736    5.4331   25.9639 C.3     1  UNL1        0.0458
      3 C          -6.1572    4.5059   24.8886 C.3     1  UNL1        0.0110
      4 C          -5.0462    3.5513   24.5653 C.3     1  UNL1        0.0280
      5 C          -3.8759    3.8886   25.4409 C.2     1  UNL1       -0.0074
      6 C          -4.2636    5.0516   26.3053 C.2     1  UNL1        0.0547
      7 N          -3.0933    5.3888   27.1809 N.2     1  UNL1       -0.2540
      8 C          -1.9823    4.4343   26.8577 C.2     1  UNL1        0.0628
      9 C          -0.5927    4.2896   27.4036 C.3     1  UNL1        0.0749
     10 C           0.3132    3.2177   26.8742 C.2     1  UNL1        0.0171
     11 C          -0.1704    2.2905   25.7989 C.2     1  UNL1        0.1352
     12 C          -1.5600    2.4352   25.2529 C.2     1  UNL1        0.0375
     13 C          -2.4659    3.5071   25.7823 C.2     1  UNL1        0.0140
     14 C          -6.4615    6.5464   26.5883 C.3     1  UNL1        0.0476
     15 O          -5.6870    6.9687   29.0320 O.co2   1  UNL1       -0.5492
     16 C          -6.7435    6.5310   28.0615 C.2     1  UNL1        0.0507
     17 O          -8.0822    6.0777   28.5641 O.co2   1  UNL1       -0.5492
     18 C           1.9359    1.5885   24.4496 C.3     1  UNL1        0.2320
     19 C           2.4432    0.6488   23.3962 C.ar    1  UNL1        0.0211
     20 C           3.4080   -0.4394   23.7635 C.ar    1  UNL1       -0.0010
     21 C           3.9153   -1.3790   22.7101 C.ar    1  UNL1       -0.0045
     22 C           3.4578   -1.2305   21.2893 C.ar    1  UNL1       -0.0186
     23 C           2.4930   -0.1423   20.9220 C.ar    1  UNL1        0.0673
     24 C           1.9858    0.7974   21.9754 C.ar    1  UNL1        0.0028
     25 C           3.9651   -2.1702   20.2359 C.3     1  UNL1        0.0223
     26 C           5.1084   -1.9112   19.3000 C.3     1  UNL1        0.0043
     27 C           5.2681   -3.1147   18.4191 C.3     1  UNL1        0.0003
     28 C           4.2235   -4.1175   18.8106 C.3     1  UNL1        0.0003
     29 C           3.4182   -3.5338   19.9334 C.3     1  UNL1        0.0043
     30 C           2.0355    0.0063   19.5012 C.3     1  UNL1        0.4183
     31 F           1.5780    0.1549   18.0804 F       1  UNL1       -0.1659
     32 F           3.1862    0.9287   19.2271 F       1  UNL1       -0.1659
     33 F           0.8848   -0.9161   19.7753 F       1  UNL1       -0.1659
@<TRIPOS>UNITY_ATOM_ATTR
15 1
charge -1
@<TRIPOS>BOND
     1    15    16   ar
     2    16    17   ar
     3    16    14    1
     4     2    14    1
     5     2     3    1
     6     3     4    1
     7     4     5    1
     8     5     6    2
     9     6     7    1
    10     7     8    2
    11     8     9    1
    12     9    10    1
    13    10    11    2
    14    11     1    1
    15     1    18    1
    16    18    19    1
    17    19    20   ar
    18    20    21   ar
    19    21    22   ar
    20    22    25    1
    21    25    26    1
    22    26    27    1
    23    27    28    1
    24    28    29    1
    25    22    23   ar
    26    23    30    1
    27    30    31    1
    28    30    32    1
    29    30    33    1
    30    23    24   ar
    31    11    12    1
    32    12    13    2
    33     6     2    1
    34    13     8    1
    35    13     5    1
    36    24    19   ar
    37    29    25    1
@<TRIPOS>MOLECULE
*****
 33 37 0 0 0
SMALL
GASTEIGER

@<TRIPOS>ATOM
      1 O          -0.0410    2.8583   22.0123 O.2     1  UNL1       -0.4710
      2 C          -6.3904    5.5121   25.4713 C.3     1  UNL1        0.0458
      3 C          -5.5186    5.4251   26.6889 C.3     1  UNL1        0.0110
      4 C          -4.1749    4.9134   26.2613 C.3     1  UNL1        0.0280
      5 C          -4.2163    4.6841   24.7795 C.2     1  UNL1       -0.0074
      6 C          -5.5856    5.0541   24.2913 C.2     1  UNL1        0.0547
      7 N          -5.6269    4.8249   22.8095 N.2     1  UNL1       -0.2540
      8 C          -4.2833    4.3132   22.3819 C.2     1  UNL1        0.0628
      9 C          -3.7410    3.9152   21.0412 C.3     1  UNL1        0.0749
     10 C          -2.3270    3.4303   20.9180 C.2     1  UNL1        0.0171
     11 C          -1.4552    3.3433   22.1355 C.2     1  UNL1        0.1352
     12 C          -1.9974    3.7412   23.4762 C.2     1  UNL1        0.0375
     13 C          -3.4115    4.2262   23.5994 C.2     1  UNL1        0.0140
     14 C          -7.8166    5.9756   25.4394 C.3     1  UNL1        0.0476
     15 O          -8.9610    4.2088   23.9166 O.co2   1  UNL1       -0.5492
     16 C          -8.6875    5.6419   24.2645 C.2     1  UNL1        0.0507
     17 O          -9.2849    6.7416   23.4375 O.co2   1  UNL1       -0.5492
     18 C           0.3708    1.5732   22.6671 C.3     1  UNL1        0.2320
     19 C           1.2030    0.5796   21.9118 C.ar    1  UNL1        0.0211
     20 C           0.7647    0.1108   20.5561 C.ar    1  UNL1       -0.0010
     21 C           1.5969   -0.8827   19.8009 C.ar    1  UNL1       -0.0045
     22 C           2.8674   -1.4073   20.4013 C.ar    1  UNL1       -0.0186
     23 C           3.3058   -0.9384   21.7571 C.ar    1  UNL1        0.0673
     24 C           2.4736    0.0550   22.5123 C.ar    1  UNL1        0.0028
     25 C           3.6996   -2.4009   19.6460 C.3     1  UNL1        0.0223
     26 C           3.5192   -3.8900   19.6550 C.3     1  UNL1        0.0043
     27 C           4.5664   -4.4892   18.7637 C.3     1  UNL1        0.0003
     28 C           5.3940   -3.3703   18.2039 C.3     1  UNL1        0.0003
     29 C           4.8583   -2.0797   18.7493 C.3     1  UNL1        0.0043
     30 C           4.5763   -1.4631   22.3575 C.3     1  UNL1        0.4183
     31 F           5.8468   -1.9877   22.9580 F       1  UNL1       -0.1659
     32 F           5.3266   -0.2943   21.7909 F       1  UNL1       -0.1659
     33 F           3.8259   -2.6318   22.9242 F       1  UNL1       -0.1659
@<TRIPOS>UNITY_ATOM_ATTR
15 1
charge -1
@<TRIPOS>BOND
     1    15    16   ar
     2    16    17   ar
     3    16    14    1
     4     2    14    1
     5     2     3    1
     6     3     4    1
     7     4     5    1
     8     5     6    2
     9     6     7    1
    10     7     8    2
    11     8     9    1
    12     9    10    1
    13    10    11    2
    14    11     1    1
    15     1    18    1
    16    18    19    1
    17    19    20   ar
    18    20    21   ar
    19    21    22   ar
    20    22    25    1
    21    25    26    1
    22    26    27    1
    23    27    28    1
    24    28    29    1
    25    22    23   ar
    26    23    30    1
    27    30    31    1
    28    30    32    1
    29    30    33    1
    30    23    24   ar
    31    11    12    1
    32    12    13    2
    33     6     2    1
    34    13     8    1
    35    13     5    1
    36    24    19   ar
    37    29    25    1
@<TRIPOS>MOLECULE
*****
 33 37 0 0 0
SMALL
GASTEIGER

@<TRIPOS>ATOM
      1 O           1.7288    1.9499   25.7274 O.2     1  UNL1       -0.4710
      2 C           5.6743   -1.4372   31.4091 C.3     1  UNL1        0.0458
      3 C           6.8436   -1.0584   30.5493 C.3     1  UNL1        0.0110
      4 C           6.3165   -0.3571   29.3325 C.3     1  UNL1        0.0280
      5 C           4.8213   -0.3025   29.4404 C.2     1  UNL1       -0.0074
      6 C           4.4245   -0.9700   30.7238 C.2     1  UNL1        0.0547
      7 N           2.9294   -0.9154   30.8316 N.2     1  UNL1       -0.2540
      8 C           2.4021   -0.2142   29.6149 C.2     1  UNL1        0.0628
      9 C           1.0084    0.1284   29.1789 C.3     1  UNL1        0.0749
     10 C           0.7840    0.8497   27.8831 C.2     1  UNL1        0.0171
     11 C           1.9533    1.2285   27.0233 C.2     1  UNL1        0.1352
     12 C           3.3470    0.8860   27.4593 C.2     1  UNL1        0.0375
     13 C           3.5714    0.1646   28.7551 C.2     1  UNL1        0.0140
     14 C           5.7428   -2.1568   32.7234 C.3     1  UNL1        0.0476
     15 O           4.5403   -0.7629   34.5567 O.co2   1  UNL1       -0.5492
     16 C           4.6325   -2.0046   33.7204 C.2     1  UNL1        0.0507
     17 O           3.6142   -3.0944   33.8811 O.co2   1  UNL1       -0.5492
     18 C           0.9841    1.2762   24.6132 C.3     1  UNL1        0.2320
     19 C           1.7357    0.5167   23.5603 C.ar    1  UNL1        0.0211
     20 C           2.8111   -0.4508   23.9573 C.ar    1  UNL1       -0.0010
     21 C           3.5626   -1.2102   22.9045 C.ar    1  UNL1       -0.0045
     22 C           3.2388   -1.0022   21.4548 C.ar    1  UNL1       -0.0186
     23 C           2.1634   -0.0347   21.0578 C.ar    1  UNL1        0.0673
     24 C           1.4119    0.7247   22.1106 C.ar    1  UNL1        0.0028
     25 C           3.9904   -1.7617   20.4019 C.3     1  UNL1        0.0223
     26 C           3.6730   -3.1453   19.9173 C.3     1  UNL1        0.0043
     27 C           4.6777   -3.5097   18.8648 C.3     1  UNL1        0.0003
     28 C           5.6161   -2.3512   18.6989 C.3     1  UNL1        0.0003
     29 C           5.1912   -1.2709   19.6489 C.3     1  UNL1        0.0043
     30 C           1.8396    0.1733   19.6080 C.3     1  UNL1        0.4183
     31 F           1.5158    0.3813   18.1582 F       1  UNL1       -0.1659
     32 F           2.8382    1.2908   19.5453 F       1  UNL1       -0.1659
     33 F           0.8410   -0.9442   19.6707 F       1  UNL1       -0.1659
@<TRIPOS>UNITY_ATOM_ATTR
15 1
charge -1
@<TRIPOS>BOND
     1    15    16   ar
     2    16    17   ar
     3    16    14    1
     4     2    14    1
     5     2     3    1
     6     3     4    1
     7     4     5    1
     8     5     6    2
     9     6     7    1
    10     7     8    2
    11     8     9    1
    12     9    10    1
    13    10    11    2
    14    11     1    1
    15     1    18    1
    16    18    19    1
    17    19    20   ar
    18    20    21   ar
    19    21    22   ar
    20    22    25    1
    21    25    26    1
    22    26    27    1
    23    27    28    1
    24    28    29    1
    25    22    23   ar
    26    23    30    1
    27    30    31    1
    28    30    32    1
    29    30    33    1
    30    23    24   ar
    31    11    12    1
    32    12    13    2
    33     6     2    1
    34    13     8    1
    35    13     5    1
    36    24    19   ar
    37    29    25    1
