@<TRIPOS>MOLECULE
*****
 48 55 0 0 0
SMALL
GASTEIGER

@<TRIPOS>ATOM
      1 N           3.5380    2.4147   19.1985 N.pl3   1  UNL1       -0.3414
      2 C           2.3111    3.2646   19.3482 C.ar    1  UNL1        0.1432
      3 N           2.3001    4.6664   18.8148 N.ar    1  UNL1       -0.2265
      4 C           1.0731    5.5162   18.9645 C.ar    1  UNL1        0.1193
      5 C          -0.1428    4.9642   19.6477 C.ar    1  UNL1        0.1020
      6 N          -0.1318    3.5623   20.1811 N.ar    1  UNL1       -0.2885
      7 C           1.0951    2.7125   20.0314 C.ar    1  UNL1        0.1142
      8 C           0.8127    1.3770   20.6532 C.ar    1  UNL1        0.1036
      9 N          -0.5888    1.4014   21.1873 N.ar    1  UNL1       -0.2305
     10 C          -1.1726    2.7520   20.8955 C.ar    1  UNL1        0.1239
     11 H           4.3361    2.7771   18.7501 H       1  UNL1        0.1438
     12 H           3.5452    1.4946   19.5487 H       1  UNL1        0.1438
     13 C           1.7646    0.2201   20.7279 C.ar    1  UNL1        0.0482
     14 C           2.0108   -0.6280   19.5155 C.ar    1  UNL1        0.0039
     15 C           2.9626   -1.7849   19.5901 C.ar    1  UNL1        0.0017
     16 C           3.6684   -2.0936   20.8772 C.ar    1  UNL1        0.0199
     17 C           4.6203   -3.2504   20.9519 C.ar    1  UNL1        0.0031
     18 C           5.3260   -3.5591   22.2389 C.ar    1  UNL1        0.0191
     19 C           5.0799   -2.7109   23.4514 C.ar    1  UNL1        0.0813
     20 N           4.1280   -1.5541   23.3768 N.ar    1  UNL1       -0.2431
     21 C           3.4223   -1.2454   22.0897 C.ar    1  UNL1        0.1086
     22 C           2.4703   -0.0885   22.0150 C.ar    1  UNL1        0.1590
     23 F           2.2242    0.7596   23.2274 F       1  UNL1       -0.2025
     24 C           5.7857   -3.0197   24.7385 C.ar    1  UNL1        0.0177
     25 C           5.7030   -2.0598   25.8882 C.ar    1  UNL1        0.0015
     26 C           6.4088   -2.3685   27.1753 C.ar    1  UNL1        0.0000
     27 C           7.1972   -3.6371   27.3127 C.ar    1  UNL1        0.0000
     28 C           7.2799   -4.5970   26.1630 C.ar    1  UNL1        0.0000
     29 C           6.5741   -4.2883   24.8759 C.ar    1  UNL1        0.0015
     30 C          -2.5544    3.2117   21.2549 C.3     1  UNL1        0.0573
     31 C          -2.8526    3.6704   22.6516 C.3     1  UNL1        0.0080
     32 C          -4.2345    4.1300   23.0110 C.3     1  UNL1        0.0111
     33 C          -5.3181    4.1309   21.9739 C.3     1  UNL1        0.0931
     34 C          -5.0199    3.6721   20.5772 C.3     1  UNL1        0.0111
     35 C          -3.6381    3.2125   20.2178 C.3     1  UNL1        0.0080
     36 C          -6.7000    4.5905   22.3333 C.2     1  UNL1        0.2839
     37 O          -7.5229    5.3465   21.3327 O.2     1  UNL1       -0.2567
     38 N          -7.2589    4.2941   23.6934 N.am    1  UNL1       -0.1709
     39 H          -6.7187    3.7979   24.3501 H       1  UNL1        0.2543
     40 C          -8.6408    4.7537   24.0529 C.2     1  UNL1        0.4262
     41 N          -9.8357    3.8723   24.2656 N.2     1  UNL1       -0.0676
     42 C         -11.0037    4.7493   24.6069 C.2     1  UNL1        0.1887
     43 C         -12.4369    4.4357   24.9192 C.2     1  UNL1        0.0395
     44 C         -13.3971    5.5454   25.2296 C.2     1  UNL1       -0.0010
     45 C         -12.9241    6.9690   25.2279 C.2     1  UNL1       -0.0181
     46 C         -11.4909    7.2826   24.9157 C.3     1  UNL1        0.0932
     47 C         -10.5307    6.1728   24.6052 C.2     1  UNL1        0.1744
     48 N          -9.0703    6.1755   24.2628 N.2     1  UNL1       -0.0714
@<TRIPOS>BOND
     1     1     2    1
     2     2     3   ar
     3     3     4   ar
     4     4     5   ar
     5     5     6   ar
     6     6     7   ar
     7     7     8   ar
     8     8    13    1
     9    13    14   ar
    10    14    15   ar
    11    15    16   ar
    12    16    17   ar
    13    17    18   ar
    14    18    19   ar
    15    19    24    1
    16    24    25   ar
    17    25    26   ar
    18    26    27   ar
    19    27    28   ar
    20    28    29   ar
    21    19    20   ar
    22    20    21   ar
    23    21    22   ar
    24    22    23    1
    25     8     9   ar
    26     9    10   ar
    27    30    10    1
    28    30    31    1
    29    31    32    1
    30    32    33    1
    31    33    36    1
    32    36    37    2
    33    36    38   am
    34    38    40    1
    35    40    41    2
    36    41    42    1
    37    42    43    2
    38    43    44    1
    39    44    45    2
    40    45    46    1
    41    46    47    1
    42    47    48    2
    43    33    34    1
    44    34    35    1
    45     7     2   ar
    46    22    13   ar
    47    35    30    1
    48    10     6   ar
    49    48    40    1
    50    21    16   ar
    51    47    42    1
    52    29    24   ar
    53     1    11    1
    54     1    12    1
    55    38    39    1
@<TRIPOS>MOLECULE
*****
 48 55 0 0 0
SMALL
GASTEIGER

@<TRIPOS>ATOM
      1 N           5.2531    0.0038   30.9909 N.pl3   1  UNL1       -0.3414
      2 C           4.5176   -0.0204   29.6838 C.ar    1  UNL1        0.1432
      3 N           4.8105   -1.0942   28.6782 N.ar    1  UNL1       -0.2265
      4 C           4.0750   -1.1184   27.3711 C.ar    1  UNL1        0.1193
      5 C           3.0466   -0.0689   27.0697 C.ar    1  UNL1        0.1020
      6 N           2.7537    1.0048   28.0753 N.ar    1  UNL1       -0.2885
      7 C           3.4892    1.0291   29.3823 C.ar    1  UNL1        0.1142
      8 C           2.9909    2.2024   30.1729 C.ar    1  UNL1        0.1036
      9 N           1.9475    2.9034   29.3545 N.ar    1  UNL1       -0.2305
     10 C           1.8008    2.1632   28.0580 C.ar    1  UNL1        0.1239
     11 H           5.9281   -0.6850   31.1887 H       1  UNL1        0.1438
     12 H           5.0609    0.7086   31.6509 H       1  UNL1        0.1438
     13 C           3.4547    2.6043   31.5417 C.ar    1  UNL1        0.0482
     14 C           4.6723    3.4664   31.6979 C.ar    1  UNL1        0.0039
     15 C           5.1361    3.8683   33.0665 C.ar    1  UNL1        0.0017
     16 C           4.3823    3.4081   34.2791 C.ar    1  UNL1        0.0199
     17 C           4.8461    3.8101   35.6478 C.ar    1  UNL1        0.0031
     18 C           4.0923    3.3499   36.8602 C.ar    1  UNL1        0.0191
     19 C           2.8748    2.4879   36.7040 C.ar    1  UNL1        0.0813
     20 N           2.4110    2.0860   35.3353 N.ar    1  UNL1       -0.2431
     21 C           3.1647    2.5461   34.1229 C.ar    1  UNL1        0.1086
     22 C           2.7010    2.1442   32.7541 C.ar    1  UNL1        0.1590
     23 F           1.4834    1.2821   32.5979 F       1  UNL1       -0.2025
     24 C           2.1210    2.0277   37.9165 C.ar    1  UNL1        0.0177
     25 C           1.0925    2.9212   38.5441 C.ar    1  UNL1        0.0015
     26 C           0.3388    2.4611   39.7566 C.ar    1  UNL1        0.0000
     27 C           0.6135    1.1074   40.3415 C.ar    1  UNL1        0.0000
     28 C           1.6421    0.2139   39.7139 C.ar    1  UNL1        0.0000
     29 C           2.3958    0.6741   38.5014 C.ar    1  UNL1        0.0015
     30 C           0.8655    2.5189   26.9406 C.3     1  UNL1        0.0573
     31 C           1.4131    2.9090   25.5997 C.3     1  UNL1        0.0080
     32 C           0.4779    3.2647   24.4822 C.3     1  UNL1        0.0111
     33 C          -1.0050    3.2304   24.7057 C.3     1  UNL1        0.0931
     34 C          -1.5526    2.8404   26.0466 C.3     1  UNL1        0.0111
     35 C          -0.6174    2.4846   27.1640 C.3     1  UNL1        0.0080
     36 C          -1.9403    3.5862   23.5882 C.2     1  UNL1        0.2839
     37 O          -1.4246    4.3115   22.3807 O.2     1  UNL1       -0.2567
     38 N          -3.3912    3.2166   23.6783 N.am    1  UNL1       -0.1709
     39 H          -3.7297    2.7406   24.4708 H       1  UNL1        0.2543
     40 C          -4.3266    3.5724   22.5608 C.2     1  UNL1        0.4262
     41 N          -4.4150    2.8827   21.2317 N.2     1  UNL1       -0.0676
     42 C          -5.4808    3.5644   20.4258 C.2     1  UNL1        0.1887
     43 C          -6.0057    3.3170   19.0426 C.2     1  UNL1        0.0395
     44 C          -7.1008    4.1805   18.4904 C.2     1  UNL1       -0.0010
     45 C          -7.6710    5.2916   19.3214 C.2     1  UNL1       -0.0181
     46 C          -7.1461    5.5390   20.7046 C.3     1  UNL1        0.0932
     47 C          -6.0510    4.6753   21.2568 C.2     1  UNL1        0.1744
     48 N          -5.3376    4.6803   22.5764 N.2     1  UNL1       -0.0714
@<TRIPOS>BOND
     1     1     2    1
     2     2     3   ar
     3     3     4   ar
     4     4     5   ar
     5     5     6   ar
     6     6     7   ar
     7     7     8   ar
     8     8    13    1
     9    13    14   ar
    10    14    15   ar
    11    15    16   ar
    12    16    17   ar
    13    17    18   ar
    14    18    19   ar
    15    19    24    1
    16    24    25   ar
    17    25    26   ar
    18    26    27   ar
    19    27    28   ar
    20    28    29   ar
    21    19    20   ar
    22    20    21   ar
    23    21    22   ar
    24    22    23    1
    25     8     9   ar
    26     9    10   ar
    27    30    10    1
    28    30    31    1
    29    31    32    1
    30    32    33    1
    31    33    36    1
    32    36    37    2
    33    36    38   am
    34    38    40    1
    35    40    41    2
    36    41    42    1
    37    42    43    2
    38    43    44    1
    39    44    45    2
    40    45    46    1
    41    46    47    1
    42    47    48    2
    43    33    34    1
    44    34    35    1
    45     7     2   ar
    46    22    13   ar
    47    35    30    1
    48    10     6   ar
    49    48    40    1
    50    21    16   ar
    51    47    42    1
    52    29    24   ar
    53     1    11    1
    54     1    12    1
    55    38    39    1
@<TRIPOS>MOLECULE
*****
 48 55 0 0 0
SMALL
GASTEIGER

@<TRIPOS>ATOM
      1 N          -2.7682    3.2843   22.0399 N.pl3   1  UNL1       -0.3414
      2 C          -2.9007    3.4868   23.5202 C.ar    1  UNL1        0.1432
      3 N          -4.2466    3.7639   24.1217 N.ar    1  UNL1       -0.2265
      4 C          -4.3792    3.9664   25.6021 C.ar    1  UNL1        0.1193
      5 C          -3.1659    3.8919   26.4809 C.ar    1  UNL1        0.1020
      6 N          -1.8200    3.6148   25.8794 N.ar    1  UNL1       -0.2885
      7 C          -1.6874    3.4123   24.3991 C.ar    1  UNL1        0.1142
      8 C          -0.2413    3.1566   24.0939 C.ar    1  UNL1        0.1036
      9 N           0.5201    3.2011   25.3856 N.ar    1  UNL1       -0.2305
     10 C          -0.4557    3.4843   26.4892 C.ar    1  UNL1        0.1239
     11 H          -3.5645    3.3333   21.4631 H       1  UNL1        0.1438
     12 H          -1.8848    3.1025   21.6451 H       1  UNL1        0.1438
     13 C           0.3415    2.9013   22.7355 C.ar    1  UNL1        0.0482
     14 C           0.2182    3.9390   21.6594 C.ar    1  UNL1        0.0039
     15 C           0.8008    3.6837   20.3010 C.ar    1  UNL1        0.0017
     16 C           1.5069    2.3907   20.0186 C.ar    1  UNL1        0.0199
     17 C           2.0895    2.1354   18.6602 C.ar    1  UNL1        0.0031
     18 C           2.7955    0.8424   18.3779 C.ar    1  UNL1        0.0191
     19 C           2.9188   -0.1953   19.4540 C.ar    1  UNL1        0.0813
     20 N           2.3361    0.0600   20.8124 N.ar    1  UNL1       -0.2431
     21 C           1.6302    1.3530   21.0947 C.ar    1  UNL1        0.1086
     22 C           1.0474    1.6083   22.4532 C.ar    1  UNL1        0.1590
     23 F           1.1707    0.5706   23.5293 F       1  UNL1       -0.2025
     24 C           3.6248   -1.4884   19.1717 C.ar    1  UNL1        0.0177
     25 C           4.8660   -1.4968   18.3295 C.ar    1  UNL1        0.0015
     26 C           5.5720   -2.7899   18.0471 C.ar    1  UNL1        0.0000
     27 C           5.0368   -4.0744   18.6070 C.ar    1  UNL1        0.0000
     28 C           3.7956   -4.0659   19.4493 C.ar    1  UNL1        0.0000
     29 C           3.0896   -2.7729   19.7316 C.ar    1  UNL1        0.0015
     30 C          -0.1252    3.6142   27.9465 C.3     1  UNL1        0.0573
     31 C           0.2048    2.3929   28.7524 C.3     1  UNL1        0.0080
     32 C           0.5353    2.5228   30.2098 C.3     1  UNL1        0.0111
     33 C           0.5358    3.8739   30.8612 C.3     1  UNL1        0.0931
     34 C           0.2057    5.0952   30.0553 C.3     1  UNL1        0.0111
     35 C          -0.1248    4.9654   28.5980 C.3     1  UNL1        0.0080
     36 C           0.8662    4.0038   32.3186 C.2     1  UNL1        0.2839
     37 O          -0.0384    4.7835   33.2262 O.2     1  UNL1       -0.2567
     38 N           2.1014    3.3540   32.8683 N.am    1  UNL1       -0.1709
     39 H           2.6951    2.8423   32.2726 H       1  UNL1        0.2543
     40 C           2.4319    3.4839   34.3257 C.2     1  UNL1        0.4262
     41 N           2.0360    2.5243   35.4085 N.2     1  UNL1       -0.0676
     42 C           2.5758    3.0435   36.7081 C.2     1  UNL1        0.1887
     43 C           2.4974    2.5157   38.1100 C.2     1  UNL1        0.0395
     44 C           3.1484    3.2684   39.2323 C.2     1  UNL1       -0.0010
     45 C           3.8779    4.5490   38.9527 C.2     1  UNL1       -0.0181
     46 C           3.9564    5.0768   37.5508 C.3     1  UNL1        0.0932
     47 C           3.3053    4.3240   36.4285 C.2     1  UNL1        0.1744
     48 N           3.2164    4.5961   34.9561 N.2     1  UNL1       -0.0714
@<TRIPOS>BOND
     1     1     2    1
     2     2     3   ar
     3     3     4   ar
     4     4     5   ar
     5     5     6   ar
     6     6     7   ar
     7     7     8   ar
     8     8    13    1
     9    13    14   ar
    10    14    15   ar
    11    15    16   ar
    12    16    17   ar
    13    17    18   ar
    14    18    19   ar
    15    19    24    1
    16    24    25   ar
    17    25    26   ar
    18    26    27   ar
    19    27    28   ar
    20    28    29   ar
    21    19    20   ar
    22    20    21   ar
    23    21    22   ar
    24    22    23    1
    25     8     9   ar
    26     9    10   ar
    27    30    10    1
    28    30    31    1
    29    31    32    1
    30    32    33    1
    31    33    36    1
    32    36    37    2
    33    36    38   am
    34    38    40    1
    35    40    41    2
    36    41    42    1
    37    42    43    2
    38    43    44    1
    39    44    45    2
    40    45    46    1
    41    46    47    1
    42    47    48    2
    43    33    34    1
    44    34    35    1
    45     7     2   ar
    46    22    13   ar
    47    35    30    1
    48    10     6   ar
    49    48    40    1
    50    21    16   ar
    51    47    42    1
    52    29    24   ar
    53     1    11    1
    54     1    12    1
    55    38    39    1
@<TRIPOS>MOLECULE
*****
 48 55 0 0 0
SMALL
GASTEIGER

@<TRIPOS>ATOM
      1 N           6.3251   -0.8506   31.2717 N.pl3   1  UNL1       -0.3414
      2 C           5.7299   -1.0251   29.9060 C.ar    1  UNL1        0.1432
      3 N           6.1014   -2.2156   29.0725 N.ar    1  UNL1       -0.2265
      4 C           5.5061   -2.3901   27.7067 C.ar    1  UNL1        0.1193
      5 C           4.5395   -1.3741   27.1745 C.ar    1  UNL1        0.1020
      6 N           4.1680   -0.1837   28.0080 N.ar    1  UNL1       -0.2885
      7 C           4.7632   -0.0092   29.3737 C.ar    1  UNL1        0.1142
      8 C           4.2123    1.2563   29.9612 C.ar    1  UNL1        0.1036
      9 N           3.2767    1.8640   28.9586 N.ar    1  UNL1       -0.2305
     10 C           3.2492    0.9740   27.7513 C.ar    1  UNL1        0.1239
     11 H           6.9596   -1.5175   31.6211 H       1  UNL1        0.1438
     12 H           6.0813   -0.0693   31.8188 H       1  UNL1        0.1438
     13 C           4.5397    1.8160   31.3139 C.ar    1  UNL1        0.0482
     14 C           5.7649    2.6612   31.4994 C.ar    1  UNL1        0.0039
     15 C           6.0922    3.2208   32.8520 C.ar    1  UNL1        0.0017
     16 C           5.1943    2.9353   34.0192 C.ar    1  UNL1        0.0199
     17 C           5.5217    3.4949   35.3718 C.ar    1  UNL1        0.0031
     18 C           4.6238    3.2093   36.5389 C.ar    1  UNL1        0.0191
     19 C           3.3986    2.3641   36.3534 C.ar    1  UNL1        0.0813
     20 N           3.0712    1.8045   35.0008 N.ar    1  UNL1       -0.2431
     21 C           3.9691    2.0900   33.8337 C.ar    1  UNL1        0.1086
     22 C           3.6418    1.5304   32.4810 C.ar    1  UNL1        0.1590
     23 F           2.4166    0.6852   32.2955 F       1  UNL1       -0.2025
     24 C           2.5007    2.0786   37.5206 C.ar    1  UNL1        0.0177
     25 C           1.5061    3.1071   37.9711 C.ar    1  UNL1        0.0015
     26 C           0.6082    2.8215   39.1383 C.ar    1  UNL1        0.0000
     27 C           0.7049    1.5074   39.8550 C.ar    1  UNL1        0.0000
     28 C           1.6995    0.4788   39.4045 C.ar    1  UNL1        0.0000
     29 C           2.5974    0.7644   38.2373 C.ar    1  UNL1        0.0015
     30 C           2.4444    1.2017   26.5062 C.3     1  UNL1        0.0573
     31 C           3.1377    1.4832   25.2061 C.3     1  UNL1        0.0080
     32 C           2.3329    1.7109   23.9610 C.3     1  UNL1        0.0111
     33 C           0.8348    1.6571   24.0159 C.3     1  UNL1        0.0931
     34 C           0.1416    1.3756   25.3160 C.3     1  UNL1        0.0111
     35 C           0.9464    1.1479   26.5611 C.3     1  UNL1        0.0080
     36 C           0.0300    1.8848   22.7708 C.2     1  UNL1        0.2839
     37 O           0.1067    0.9041   21.6383 O.2     1  UNL1       -0.2567
     38 N          -0.8515    3.0932   22.6580 N.am    1  UNL1       -0.1709
     39 H          -0.9018    3.7369   23.4013 H       1  UNL1        0.2543
     40 C          -1.6563    3.3210   21.4128 C.2     1  UNL1        0.4262
     41 N          -1.1183    3.7595   20.0831 N.2     1  UNL1       -0.0676
     42 C          -2.2700    3.8597   19.1273 C.2     1  UNL1        0.1887
     43 C          -2.3421    4.2452   17.6795 C.2     1  UNL1        0.0395
     44 C          -3.6640    4.2542   16.9707 C.2     1  UNL1       -0.0010
     45 C          -4.9139    3.8775   17.7097 C.2     1  UNL1       -0.0181
     46 C          -4.8418    3.4920   19.1575 C.3     1  UNL1        0.0932
     47 C          -3.5198    3.4831   19.8664 C.2     1  UNL1        0.1744
     48 N          -3.1405    3.1501   21.2789 N.2     1  UNL1       -0.0714
@<TRIPOS>BOND
     1     1     2    1
     2     2     3   ar
     3     3     4   ar
     4     4     5   ar
     5     5     6   ar
     6     6     7   ar
     7     7     8   ar
     8     8    13    1
     9    13    14   ar
    10    14    15   ar
    11    15    16   ar
    12    16    17   ar
    13    17    18   ar
    14    18    19   ar
    15    19    24    1
    16    24    25   ar
    17    25    26   ar
    18    26    27   ar
    19    27    28   ar
    20    28    29   ar
    21    19    20   ar
    22    20    21   ar
    23    21    22   ar
    24    22    23    1
    25     8     9   ar
    26     9    10   ar
    27    30    10    1
    28    30    31    1
    29    31    32    1
    30    32    33    1
    31    33    36    1
    32    36    37    2
    33    36    38   am
    34    38    40    1
    35    40    41    2
    36    41    42    1
    37    42    43    2
    38    43    44    1
    39    44    45    2
    40    45    46    1
    41    46    47    1
    42    47    48    2
    43    33    34    1
    44    34    35    1
    45     7     2   ar
    46    22    13   ar
    47    35    30    1
    48    10     6   ar
    49    48    40    1
    50    21    16   ar
    51    47    42    1
    52    29    24   ar
    53     1    11    1
    54     1    12    1
    55    38    39    1
@<TRIPOS>MOLECULE
*****
 48 55 0 0 0
SMALL
GASTEIGER

@<TRIPOS>ATOM
      1 N           8.7963   -1.3934   26.2788 N.pl3   1  UNL1       -0.3414
      2 C           8.0435   -0.7731   25.1392 C.ar    1  UNL1        0.1432
      3 N           8.7907   -0.1654   23.9893 N.ar    1  UNL1       -0.2265
      4 C           8.0379    0.4550   22.8497 C.ar    1  UNL1        0.1193
      5 C           6.5381    0.4676   22.8602 C.ar    1  UNL1        0.1020
      6 N           5.7909   -0.1401   24.0101 N.ar    1  UNL1       -0.2885
      7 C           6.5436   -0.7604   25.1497 C.ar    1  UNL1        0.1142
      8 C           5.5424   -1.2788   26.1389 C.ar    1  UNL1        0.1036
      9 N           4.1708   -0.9789   25.6109 N.ar    1  UNL1       -0.2305
     10 C           4.3244   -0.2751   24.2951 C.ar    1  UNL1        0.1239
     11 H           9.7807   -1.4017   26.2719 H       1  UNL1        0.1438
     12 H           8.3059   -1.7923   27.0335 H       1  UNL1        0.1438
     13 C           5.8574   -1.9750   27.4298 C.ar    1  UNL1        0.0482
     14 C           6.2823   -3.4136   27.4218 C.ar    1  UNL1        0.0039
     15 C           6.5973   -4.1097   28.7125 C.ar    1  UNL1        0.0017
     16 C           6.4873   -3.3674   30.0114 C.ar    1  UNL1        0.0199
     17 C           6.8023   -4.0636   31.3021 C.ar    1  UNL1        0.0031
     18 C           6.6923   -3.3212   32.6009 C.ar    1  UNL1        0.0191
     19 C           6.2674   -1.8827   32.6089 C.ar    1  UNL1        0.0813
     20 N           5.9524   -1.1865   31.3181 N.ar    1  UNL1       -0.2431
     21 C           6.0624   -1.9289   30.0194 C.ar    1  UNL1        0.1086
     22 C           5.7474   -1.2327   28.7285 C.ar    1  UNL1        0.1590
     23 F           5.3224    0.2058   28.7365 F       1  UNL1       -0.2025
     24 C           6.1574   -1.1404   33.9077 C.ar    1  UNL1        0.0177
     25 C           7.3535   -0.4307   34.4695 C.ar    1  UNL1        0.0015
     26 C           7.2435    0.3117   35.7684 C.ar    1  UNL1        0.0000
     27 C           5.9374    0.3443   36.5053 C.ar    1  UNL1        0.0000
     28 C           4.7413   -0.3655   35.9434 C.ar    1  UNL1        0.0000
     29 C           4.8513   -1.1078   34.6447 C.ar    1  UNL1        0.0015
     30 C           3.2076    0.2087   23.4184 C.3     1  UNL1        0.0573
     31 C           2.3665    1.3735   23.8495 C.3     1  UNL1        0.0080
     32 C           1.2497    1.8574   22.9728 C.3     1  UNL1        0.0111
     33 C           0.9740    1.1764   21.6650 C.3     1  UNL1        0.0931
     34 C           1.8151    0.0116   21.2339 C.3     1  UNL1        0.0111
     35 C           2.9319   -0.4722   22.1106 C.3     1  UNL1        0.0080
     36 C          -0.1428    1.6602   20.7883 C.2     1  UNL1        0.2839
     37 O          -0.2469    1.1781   19.3716 O.2     1  UNL1       -0.2567
     38 N          -1.1555    2.6261   21.3282 N.am    1  UNL1       -0.1709
     39 H          -1.0871    2.9425   22.2579 H       1  UNL1        0.2543
     40 C          -2.2724    3.1100   20.4514 C.2     1  UNL1        0.4262
     41 N          -3.7387    2.9352   20.7144 N.2     1  UNL1       -0.0676
     42 C          -4.4914    3.5707   19.5833 C.2     1  UNL1        0.1887
     43 C          -5.9592    3.7060   19.3051 C.2     1  UNL1        0.0395
     44 C          -6.4258    4.4088   18.0648 C.2     1  UNL1       -0.0010
     45 C          -5.4247    4.9765   17.1027 C.2     1  UNL1       -0.0181
     46 C          -3.9569    4.8412   17.3809 C.3     1  UNL1        0.0932
     47 C          -3.4903    4.1383   18.6213 C.2     1  UNL1        0.1744
     48 N          -2.1188    3.8536   19.1578 N.2     1  UNL1       -0.0714
@<TRIPOS>BOND
     1     1     2    1
     2     2     3   ar
     3     3     4   ar
     4     4     5   ar
     5     5     6   ar
     6     6     7   ar
     7     7     8   ar
     8     8    13    1
     9    13    14   ar
    10    14    15   ar
    11    15    16   ar
    12    16    17   ar
    13    17    18   ar
    14    18    19   ar
    15    19    24    1
    16    24    25   ar
    17    25    26   ar
    18    26    27   ar
    19    27    28   ar
    20    28    29   ar
    21    19    20   ar
    22    20    21   ar
    23    21    22   ar
    24    22    23    1
    25     8     9   ar
    26     9    10   ar
    27    30    10    1
    28    30    31    1
    29    31    32    1
    30    32    33    1
    31    33    36    1
    32    36    37    2
    33    36    38   am
    34    38    40    1
    35    40    41    2
    36    41    42    1
    37    42    43    2
    38    43    44    1
    39    44    45    2
    40    45    46    1
    41    46    47    1
    42    47    48    2
    43    33    34    1
    44    34    35    1
    45     7     2   ar
    46    22    13   ar
    47    35    30    1
    48    10     6   ar
    49    48    40    1
    50    21    16   ar
    51    47    42    1
    52    29    24   ar
    53     1    11    1
    54     1    12    1
    55    38    39    1
@<TRIPOS>MOLECULE
*****
 48 55 0 0 0
SMALL
GASTEIGER

@<TRIPOS>ATOM
      1 N           2.9671   -1.5001   19.5005 N.pl3   1  UNL1       -0.3414
      2 C           3.5915   -2.0327   20.7561 C.ar    1  UNL1        0.1432
      3 N           4.2284   -3.3908   20.7592 N.ar    1  UNL1       -0.2265
      4 C           4.8528   -3.9234   22.0149 C.ar    1  UNL1        0.1193
      5 C           4.8403   -3.0980   23.2672 C.ar    1  UNL1        0.1020
      6 N           4.2034   -1.7399   23.2641 N.ar    1  UNL1       -0.2885
      7 C           3.5790   -1.2073   22.0085 C.ar    1  UNL1        0.1142
      8 C           3.0294    0.1562   22.3065 C.ar    1  UNL1        0.1036
      9 N           3.3141    0.4664   23.7462 N.ar    1  UNL1       -0.2305
     10 C           4.0397   -0.7056   24.3381 C.ar    1  UNL1        0.1239
     11 H           2.9753   -2.0419   18.6786 H       1  UNL1        0.1438
     12 H           2.5490   -0.6088   19.4985 H       1  UNL1        0.1438
     13 C           2.3197    1.0523   21.3352 C.ar    1  UNL1        0.0482
     14 C           3.0792    1.6889   20.2092 C.ar    1  UNL1        0.0039
     15 C           2.3696    2.5850   19.2380 C.ar    1  UNL1        0.0017
     16 C           0.9003    2.8446   19.3927 C.ar    1  UNL1        0.0199
     17 C           0.1906    3.7407   18.4215 C.ar    1  UNL1        0.0031
     18 C          -1.2786    4.0003   18.5763 C.ar    1  UNL1        0.0191
     19 C          -2.0382    3.3637   19.7023 C.ar    1  UNL1        0.0813
     20 N          -1.3285    2.4676   20.6735 N.ar    1  UNL1       -0.2431
     21 C           0.1407    2.2081   20.5187 C.ar    1  UNL1        0.1086
     22 C           0.8505    1.3119   21.4900 C.ar    1  UNL1        0.1590
     23 F           0.0909    0.6753   22.6160 F       1  UNL1       -0.2025
     24 C          -3.5074    3.6233   19.8570 C.ar    1  UNL1        0.0177
     25 C          -4.1205    3.6716   21.2251 C.ar    1  UNL1        0.0015
     26 C          -5.5898    3.9312   21.3799 C.ar    1  UNL1        0.0000
     27 C          -6.4459    4.1425   20.1665 C.ar    1  UNL1        0.0000
     28 C          -5.8328    4.0943   18.7983 C.ar    1  UNL1        0.0000
     29 C          -4.3636    3.8347   18.6436 C.ar    1  UNL1        0.0015
     30 C           4.5177   -0.8226   25.7550 C.3     1  UNL1        0.0573
     31 C           3.5265   -0.8593   26.8802 C.3     1  UNL1        0.0080
     32 C           4.0044   -0.9763   28.2972 C.3     1  UNL1        0.0111
     33 C           5.4736   -1.0565   28.5890 C.3     1  UNL1        0.0931
     34 C           6.4648   -1.0197   27.4637 C.3     1  UNL1        0.0111
     35 C           5.9869   -0.9028   26.0468 C.3     1  UNL1        0.0080
     36 C           5.9516   -1.1735   30.0059 C.2     1  UNL1        0.2839
     37 O           6.2404   -2.5242   30.5910 O.2     1  UNL1       -0.2567
     38 N           6.1407    0.0602   30.8379 N.am    1  UNL1       -0.1709
     39 H           5.9512    0.9467   30.4539 H       1  UNL1        0.2543
     40 C           6.6187   -0.0567   32.2549 C.2     1  UNL1        0.4262
     41 N           5.7618    0.0201   33.4837 N.2     1  UNL1       -0.0676
     42 C           6.6511   -0.1467   34.6801 C.2     1  UNL1        0.1887
     43 C           6.3618   -0.1581   36.1519 C.2     1  UNL1        0.0395
     44 C           7.4790   -0.3493   37.1344 C.2     1  UNL1       -0.0010
     45 C           8.8855   -0.5292   36.6451 C.2     1  UNL1       -0.0181
     46 C           9.1748   -0.5179   35.1733 C.3     1  UNL1        0.0932
     47 C           8.0575   -0.3267   34.1907 C.2     1  UNL1        0.1744
     48 N           8.0375   -0.2710   32.6919 N.2     1  UNL1       -0.0714
@<TRIPOS>BOND
     1     1     2    1
     2     2     3   ar
     3     3     4   ar
     4     4     5   ar
     5     5     6   ar
     6     6     7   ar
     7     7     8   ar
     8     8    13    1
     9    13    14   ar
    10    14    15   ar
    11    15    16   ar
    12    16    17   ar
    13    17    18   ar
    14    18    19   ar
    15    19    24    1
    16    24    25   ar
    17    25    26   ar
    18    26    27   ar
    19    27    28   ar
    20    28    29   ar
    21    19    20   ar
    22    20    21   ar
    23    21    22   ar
    24    22    23    1
    25     8     9   ar
    26     9    10   ar
    27    30    10    1
    28    30    31    1
    29    31    32    1
    30    32    33    1
    31    33    36    1
    32    36    37    2
    33    36    38   am
    34    38    40    1
    35    40    41    2
    36    41    42    1
    37    42    43    2
    38    43    44    1
    39    44    45    2
    40    45    46    1
    41    46    47    1
    42    47    48    2
    43    33    34    1
    44    34    35    1
    45     7     2   ar
    46    22    13   ar
    47    35    30    1
    48    10     6   ar
    49    48    40    1
    50    21    16   ar
    51    47    42    1
    52    29    24   ar
    53     1    11    1
    54     1    12    1
    55    38    39    1
@<TRIPOS>MOLECULE
*****
 48 55 0 0 0
SMALL
GASTEIGER

@<TRIPOS>ATOM
      1 N          -0.9519    2.8804   20.2962 N.pl3   1  UNL1       -0.3414
      2 C          -1.2202    3.1686   21.7436 C.ar    1  UNL1        0.1432
      3 N          -2.3988    4.0099   22.1349 N.ar    1  UNL1       -0.2265
      4 C          -2.6671    4.2981   23.5823 C.ar    1  UNL1        0.1193
      5 C          -1.7568    3.7450   24.6384 C.ar    1  UNL1        0.1020
      6 N          -0.5782    2.9036   24.2472 N.ar    1  UNL1       -0.2885
      7 C          -0.3100    2.6154   22.7998 C.ar    1  UNL1        0.1142
      8 C           0.9199    1.7607   22.7176 C.ar    1  UNL1        0.1036
      9 N           1.4118    1.5206   24.1141 N.ar    1  UNL1       -0.2305
     10 C           0.4859    2.2270   25.0596 C.ar    1  UNL1        0.1239
     11 H          -1.5494    3.2434   19.6031 H       1  UNL1        0.1438
     12 H          -0.1784    2.3282   20.0394 H       1  UNL1        0.1438
     13 C           1.5478    1.2378   21.4596 C.ar    1  UNL1        0.0482
     14 C           0.9882    0.0156   20.7940 C.ar    1  UNL1        0.0039
     15 C           1.6160   -0.5073   19.5361 C.ar    1  UNL1        0.0017
     16 C           2.8035    0.1919   18.9437 C.ar    1  UNL1        0.0199
     17 C           3.4313   -0.3310   17.6858 C.ar    1  UNL1        0.0031
     18 C           4.6188    0.3683   17.0935 C.ar    1  UNL1        0.0191
     19 C           5.1784    1.5905   17.7591 C.ar    1  UNL1        0.0813
     20 N           4.5506    2.1134   19.0170 N.ar    1  UNL1       -0.2431
     21 C           3.3632    1.4141   19.6093 C.ar    1  UNL1        0.1086
     22 C           2.7353    1.9371   20.8673 C.ar    1  UNL1        0.1590
     23 F           3.2949    3.1593   21.5329 F       1  UNL1       -0.2025
     24 C           6.3660    2.2898   17.1667 C.ar    1  UNL1        0.0177
     25 C           7.5820    1.5030   16.7765 C.ar    1  UNL1        0.0015
     26 C           8.7695    2.2023   16.1841 C.ar    1  UNL1        0.0000
     27 C           8.7410    3.6884   15.9820 C.ar    1  UNL1        0.0000
     28 C           7.5249    4.4751   16.3723 C.ar    1  UNL1        0.0000
     29 C           6.3374    3.7758   16.9646 C.ar    1  UNL1        0.0015
     30 C           0.6034    2.2523   26.5547 C.3     1  UNL1        0.0573
     31 C          -0.2943    1.3905   27.3922 C.3     1  UNL1        0.0080
     32 C          -0.1768    1.4158   28.8874 C.3     1  UNL1        0.0111
     33 C           0.8384    2.3029   29.5450 C.3     1  UNL1        0.0931
     34 C           1.7361    3.1647   28.7075 C.3     1  UNL1        0.0111
     35 C           1.6186    3.1394   27.2123 C.3     1  UNL1        0.0080
     36 C           0.9559    2.3282   31.0402 C.2     1  UNL1        0.2839
     37 O          -0.0576    1.6139   31.8844 O.2     1  UNL1       -0.2567
     38 N           2.0869    3.0678   31.6911 N.am    1  UNL1       -0.1709
     39 H           2.7521    3.5367   31.1371 H       1  UNL1        0.2543
     40 C           2.2045    3.0932   33.1864 C.2     1  UNL1        0.4262
     41 N           2.6952    1.9702   34.0514 N.2     1  UNL1       -0.0676
     42 C           2.6459    2.4290   35.4786 C.2     1  UNL1        0.1887
     43 C           3.0083    1.7477   36.7649 C.2     1  UNL1        0.0395
     44 C           2.8495    2.4729   38.0684 C.2     1  UNL1       -0.0010
     45 C           2.3284    3.8794   38.0855 C.2     1  UNL1       -0.0181
     46 C           1.9660    4.5607   36.7992 C.3     1  UNL1        0.0932
     47 C           2.1248    3.8354   35.4957 C.2     1  UNL1        0.1744
     48 N           1.8520    4.2459   34.0790 N.2     1  UNL1       -0.0714
@<TRIPOS>BOND
     1     1     2    1
     2     2     3   ar
     3     3     4   ar
     4     4     5   ar
     5     5     6   ar
     6     6     7   ar
     7     7     8   ar
     8     8    13    1
     9    13    14   ar
    10    14    15   ar
    11    15    16   ar
    12    16    17   ar
    13    17    18   ar
    14    18    19   ar
    15    19    24    1
    16    24    25   ar
    17    25    26   ar
    18    26    27   ar
    19    27    28   ar
    20    28    29   ar
    21    19    20   ar
    22    20    21   ar
    23    21    22   ar
    24    22    23    1
    25     8     9   ar
    26     9    10   ar
    27    30    10    1
    28    30    31    1
    29    31    32    1
    30    32    33    1
    31    33    36    1
    32    36    37    2
    33    36    38   am
    34    38    40    1
    35    40    41    2
    36    41    42    1
    37    42    43    2
    38    43    44    1
    39    44    45    2
    40    45    46    1
    41    46    47    1
    42    47    48    2
    43    33    34    1
    44    34    35    1
    45     7     2   ar
    46    22    13   ar
    47    35    30    1
    48    10     6   ar
    49    48    40    1
    50    21    16   ar
    51    47    42    1
    52    29    24   ar
    53     1    11    1
    54     1    12    1
    55    38    39    1
@<TRIPOS>MOLECULE
*****
 48 55 0 0 0
SMALL
GASTEIGER

@<TRIPOS>ATOM
      1 N           6.5464    1.1129   30.4215 N.pl3   1  UNL1       -0.3414
      2 C           5.7693    1.5435   29.2129 C.ar    1  UNL1        0.1432
      3 N           6.4919    1.9697   27.9694 N.ar    1  UNL1       -0.2265
      4 C           5.7147    2.4004   26.7608 C.ar    1  UNL1        0.1193
      5 C           4.2152    2.4048   26.7957 C.ar    1  UNL1        0.1020
      6 N           3.4927    1.9786   28.0392 N.ar    1  UNL1       -0.2885
      7 C           4.2697    1.5480   29.2478 C.ar    1  UNL1        0.1142
      8 C           3.2898    1.1833   30.3232 C.ar    1  UNL1        0.1036
      9 N           1.9070    1.3886   29.7794 N.ar    1  UNL1       -0.2305
     10 C           2.0324    1.8801   28.3677 C.ar    1  UNL1        0.1239
     11 H           7.5306    1.1100   30.3986 H       1  UNL1        0.1438
     12 H           6.0722    0.8332   31.2376 H       1  UNL1        0.1438
     13 C           3.6323    0.6985   31.7008 C.ar    1  UNL1        0.0482
     14 C           3.9270   -0.7538   31.9331 C.ar    1  UNL1        0.0039
     15 C           4.2696   -1.2386   33.3106 C.ar    1  UNL1        0.0017
     16 C           4.3175   -0.2711   34.4559 C.ar    1  UNL1        0.0199
     17 C           4.6601   -0.7560   35.8334 C.ar    1  UNL1        0.0031
     18 C           4.7080    0.2115   36.9786 C.ar    1  UNL1        0.0191
     19 C           4.4133    1.6638   36.7464 C.ar    1  UNL1        0.0813
     20 N           4.0707    2.1487   35.3689 N.ar    1  UNL1       -0.2431
     21 C           4.0228    1.1812   34.2237 C.ar    1  UNL1        0.1086
     22 C           3.6802    1.6660   32.8461 C.ar    1  UNL1        0.1590
     23 F           3.3856    3.1183   32.6138 F       1  UNL1       -0.2025
     24 C           4.4612    2.6314   37.8917 C.ar    1  UNL1        0.0177
     25 C           3.4901    3.7730   37.9502 C.ar    1  UNL1        0.0015
     26 C           3.5380    4.7405   39.0956 C.ar    1  UNL1        0.0000
     27 C           4.5570    4.5663   40.1824 C.ar    1  UNL1        0.0000
     28 C           5.5282    3.4245   40.1238 C.ar    1  UNL1        0.0000
     29 C           5.4803    2.4571   38.9785 C.ar    1  UNL1        0.0015
     30 C           0.8969    2.2144   27.4463 C.3     1  UNL1        0.0573
     31 C          -0.0016    3.3755   27.7539 C.3     1  UNL1        0.0080
     32 C          -1.1370    3.7098   26.8326 C.3     1  UNL1        0.0111
     33 C          -1.3741    2.8830   25.6036 C.3     1  UNL1        0.0931
     34 C          -0.4756    1.7219   25.2961 C.3     1  UNL1        0.0111
     35 C           0.6598    1.3876   26.2174 C.3     1  UNL1        0.0080
     36 C          -2.5096    3.2173   24.6823 C.2     1  UNL1        0.2839
     37 O          -3.8768    3.4789   25.2411 O.2     1  UNL1       -0.2567
     38 N          -2.2778    3.2901   23.2021 N.am    1  UNL1       -0.1709
     39 H          -1.3804    3.1184   22.8353 H       1  UNL1        0.2543
     40 C          -3.4133    3.6244   22.2807 C.2     1  UNL1        0.4262
     41 N          -3.8320    2.8360   21.0753 N.2     1  UNL1       -0.0676
     42 C          -5.0069    3.5302   20.4526 C.2     1  UNL1        0.1887
     43 C          -5.8365    3.2110   19.2443 C.2     1  UNL1        0.0395
     44 C          -6.9736    4.1092   18.8567 C.2     1  UNL1       -0.0010
     45 C          -7.2811    5.3267   19.6773 C.2     1  UNL1       -0.0181
     46 C          -6.4514    5.6459   20.8856 C.3     1  UNL1        0.0932
     47 C          -5.3143    4.7476   21.2732 C.2     1  UNL1        0.1744
     48 N          -4.3294    4.8058   22.4030 N.2     1  UNL1       -0.0714
@<TRIPOS>BOND
     1     1     2    1
     2     2     3   ar
     3     3     4   ar
     4     4     5   ar
     5     5     6   ar
     6     6     7   ar
     7     7     8   ar
     8     8    13    1
     9    13    14   ar
    10    14    15   ar
    11    15    16   ar
    12    16    17   ar
    13    17    18   ar
    14    18    19   ar
    15    19    24    1
    16    24    25   ar
    17    25    26   ar
    18    26    27   ar
    19    27    28   ar
    20    28    29   ar
    21    19    20   ar
    22    20    21   ar
    23    21    22   ar
    24    22    23    1
    25     8     9   ar
    26     9    10   ar
    27    30    10    1
    28    30    31    1
    29    31    32    1
    30    32    33    1
    31    33    36    1
    32    36    37    2
    33    36    38   am
    34    38    40    1
    35    40    41    2
    36    41    42    1
    37    42    43    2
    38    43    44    1
    39    44    45    2
    40    45    46    1
    41    46    47    1
    42    47    48    2
    43    33    34    1
    44    34    35    1
    45     7     2   ar
    46    22    13   ar
    47    35    30    1
    48    10     6   ar
    49    48    40    1
    50    21    16   ar
    51    47    42    1
    52    29    24   ar
    53     1    11    1
    54     1    12    1
    55    38    39    1
@<TRIPOS>MOLECULE
*****
 48 55 0 0 0
SMALL
GASTEIGER

@<TRIPOS>ATOM
      1 N           2.5739    0.4793   28.4776 N.pl3   1  UNL1       -0.3414
      2 C           2.1600    1.0045   29.8202 C.ar    1  UNL1        0.1432
      3 N           0.7635    1.5103   30.0297 N.ar    1  UNL1       -0.2265
      4 C           0.3496    2.0356   31.3725 C.ar    1  UNL1        0.1193
      5 C           1.3321    2.0550   32.5056 C.ar    1  UNL1        0.1020
      6 N           2.7287    1.5492   32.2961 N.ar    1  UNL1       -0.2885
      7 C           3.1426    1.0239   30.9534 C.ar    1  UNL1        0.1142
      8 C           4.5768    0.5946   31.0457 C.ar    1  UNL1        0.1036
      9 N           5.0494    0.8544   32.4454 N.ar    1  UNL1       -0.2305
     10 C           3.9071    1.4444   33.2183 C.ar    1  UNL1        0.1239
     11 H           1.9290    0.4665   27.7338 H       1  UNL1        0.1438
     12 H           3.4905    0.1473   28.3401 H       1  UNL1        0.1438
     13 C           5.3950    0.0082   29.9335 C.ar    1  UNL1        0.0482
     14 C           5.9820    0.9028   28.8823 C.ar    1  UNL1        0.0039
     15 C           6.8001    0.3165   27.7701 C.ar    1  UNL1        0.0017
     16 C           7.0312   -1.1644   27.7091 C.ar    1  UNL1        0.0199
     17 C           7.8494   -1.7506   26.5970 C.ar    1  UNL1        0.0031
     18 C           8.0804   -3.2314   26.5361 C.ar    1  UNL1        0.0191
     19 C           7.4934   -4.1260   27.5873 C.ar    1  UNL1        0.0813
     20 N           6.6753   -3.5397   28.6995 N.ar    1  UNL1       -0.2431
     21 C           6.4442   -2.0589   28.7604 C.ar    1  UNL1        0.1086
     22 C           5.6260   -1.4726   29.8726 C.ar    1  UNL1        0.1590
     23 F           5.0390   -2.3671   30.9239 F       1  UNL1       -0.2025
     24 C           7.7245   -5.6069   27.5264 C.ar    1  UNL1        0.0177
     25 C           8.5472   -6.2817   28.5836 C.ar    1  UNL1        0.0015
     26 C           8.7783   -7.7626   28.5227 C.ar    1  UNL1        0.0000
     27 C           8.1866   -8.5686   27.4044 C.ar    1  UNL1        0.0000
     28 C           7.3639   -7.8937   26.3472 C.ar    1  UNL1        0.0000
     29 C           7.1329   -6.4128   26.4082 C.ar    1  UNL1        0.0015
     30 C           3.9380    1.8571   34.6600 C.3     1  UNL1        0.0573
     31 C           3.3757    3.1853   35.0721 C.3     1  UNL1        0.0080
     32 C           3.4065    3.5981   36.5138 C.3     1  UNL1        0.0111
     33 C           3.9996    2.6826   37.5435 C.3     1  UNL1        0.0931
     34 C           4.5618    1.3545   37.1315 C.3     1  UNL1        0.0111
     35 C           4.5310    0.9417   35.6897 C.3     1  UNL1        0.0080
     36 C           4.0304    3.0954   38.9853 C.2     1  UNL1        0.2839
     37 O           2.7963    2.9681   39.8284 O.2     1  UNL1       -0.2567
     38 N           5.2953    3.6354   39.5839 N.am    1  UNL1       -0.1709
     39 H           6.1053    3.7190   39.0305 H       1  UNL1        0.2543
     40 C           5.3262    4.0482   41.0257 C.2     1  UNL1        0.4262
     41 N           6.2353    3.4940   42.0822 N.2     1  UNL1       -0.0676
     42 C           5.9243    4.1909   43.3735 C.2     1  UNL1        0.1887
     43 C           6.5017    4.0559   44.7514 C.2     1  UNL1        0.0395
     44 C           5.9777    4.9059   45.8707 C.2     1  UNL1       -0.0010
     45 C           4.8763    5.8909   45.6123 C.2     1  UNL1       -0.0181
     46 C           4.2989    6.0259   44.2345 C.3     1  UNL1        0.0932
     47 C           4.8229    5.1759   43.1151 C.2     1  UNL1        0.1744
     48 N           4.4532    5.0877   41.6640 N.2     1  UNL1       -0.0714
@<TRIPOS>BOND
     1     1     2    1
     2     2     3   ar
     3     3     4   ar
     4     4     5   ar
     5     5     6   ar
     6     6     7   ar
     7     7     8   ar
     8     8    13    1
     9    13    14   ar
    10    14    15   ar
    11    15    16   ar
    12    16    17   ar
    13    17    18   ar
    14    18    19   ar
    15    19    24    1
    16    24    25   ar
    17    25    26   ar
    18    26    27   ar
    19    27    28   ar
    20    28    29   ar
    21    19    20   ar
    22    20    21   ar
    23    21    22   ar
    24    22    23    1
    25     8     9   ar
    26     9    10   ar
    27    30    10    1
    28    30    31    1
    29    31    32    1
    30    32    33    1
    31    33    36    1
    32    36    37    2
    33    36    38   am
    34    38    40    1
    35    40    41    2
    36    41    42    1
    37    42    43    2
    38    43    44    1
    39    44    45    2
    40    45    46    1
    41    46    47    1
    42    47    48    2
    43    33    34    1
    44    34    35    1
    45     7     2   ar
    46    22    13   ar
    47    35    30    1
    48    10     6   ar
    49    48    40    1
    50    21    16   ar
    51    47    42    1
    52    29    24   ar
    53     1    11    1
    54     1    12    1
    55    38    39    1
