@<TRIPOS>MOLECULE
*****
 29 32 0 0 0
SMALL
GASTEIGER

@<TRIPOS>ATOM
      1 C          -8.4042  -18.2111   21.5741 C.ar    1  UNL1        0.2014
      2 N          -9.5498  -19.1392   21.2981 N.ar    1  UNL1       -0.2136
      3 C         -10.8182  -18.4373   21.6833 C.ar    1  UNL1        0.0999
      4 C         -12.2558  -18.8623   21.6324 C.ar    1  UNL1        0.0207
      5 C         -13.3317  -17.9254   22.0955 C.ar    1  UNL1        0.0016
      6 C         -12.9701  -16.5634   22.6095 C.ar    1  UNL1        0.0016
      7 C         -11.5325  -16.1384   22.6604 C.ar    1  UNL1        0.0188
      8 C         -10.4566  -17.0753   22.1973 C.ar    1  UNL1        0.0801
      9 N          -8.9646  -16.9355   22.1298 N.ar    1  UNL1       -0.2954
     10 C          -4.0505  -19.0976   20.8601 C.3     1  UNL1        0.0610
     11 C          -4.5275  -18.7418   22.2370 C.3     1  UNL1        0.0375
     12 C          -5.9787  -18.4463   22.4750 C.3     1  UNL1        0.0949
     13 N          -6.9530  -18.5066   21.3361 N.pl3   1  UNL1       -0.2794
     14 C          -6.4760  -18.8624   19.9592 C.3     1  UNL1        0.0949
     15 C          -5.0248  -19.1579   19.7212 C.3     1  UNL1        0.0375
     16 N          -2.5993  -19.3932   20.6221 N.3     1  UNL1       -0.2706
     17 C          -1.8460  -20.2704   21.5776 C.3     1  UNL1        0.0897
     18 C          -1.9014  -18.8115   19.4286 C.3     1  UNL1        0.1046
     19 C          -1.5755  -17.3478   19.3899 C.3     1  UNL1        0.1595
     20 C          -1.9865  -16.1470   21.6569 C.3     1  UNL1        0.1742
     21 O          -1.0410  -16.6658   20.6143 O.3     1  UNL1       -0.3496
     22 C          -8.1723  -15.7315   22.5451 C.3     1  UNL1        0.1354
     23 C          -7.7304  -15.5794   23.9703 C.ar    1  UNL1        0.0006
     24 C          -8.7401  -15.6337   25.0784 C.ar    1  UNL1       -0.0001
     25 C          -8.2983  -15.4816   26.5038 C.ar    1  UNL1        0.0294
     26 C          -6.8468  -15.2754   26.8211 C.ar    1  UNL1        0.1401
     27 F          -6.4050  -15.1233   28.2465 F       1  UNL1       -0.2042
     28 C          -5.8372  -15.2211   25.7131 C.ar    1  UNL1        0.0294
     29 C          -6.2790  -15.3731   24.2878 C.ar    1  UNL1       -0.0001
@<TRIPOS>BOND
     1    20    21    1
     2    21    19    1
     3    19    18    1
     4    18    16    1
     5    16    17    1
     6    16    10    1
     7    10    11    1
     8    11    12    1
     9    12    13    1
    10    13     1    1
    11     1     2   ar
    12     2     3   ar
    13     3     4   ar
    14     4     5   ar
    15     5     6   ar
    16     6     7   ar
    17     7     8   ar
    18     8     9   ar
    19     9    22    1
    20    22    23    1
    21    23    24   ar
    22    24    25   ar
    23    25    26   ar
    24    26    27    1
    25    26    28   ar
    26    28    29   ar
    27    13    14    1
    28    14    15    1
    29    15    10    1
    30     9     1   ar
    31    29    23   ar
    32     8     3   ar
@<TRIPOS>MOLECULE
*****
 29 32 0 0 0
SMALL
GASTEIGER

@<TRIPOS>ATOM
      1 C          -6.3948  -18.3976   22.4208 C.ar    1  UNL1        0.2014
      2 N          -5.6301  -19.5936   21.9362 N.ar    1  UNL1       -0.2136
      3 C          -4.1719  -19.2420   21.9343 C.ar    1  UNL1        0.0999
      4 C          -2.9509  -20.0261   21.5549 C.ar    1  UNL1        0.0207
      5 C          -1.5932  -19.3969   21.6589 C.ar    1  UNL1        0.0016
      6 C          -1.4567  -17.9835   22.1423 C.ar    1  UNL1        0.0016
      7 C          -2.6777  -17.1994   22.5217 C.ar    1  UNL1        0.0188
      8 C          -4.0354  -17.8286   22.4177 C.ar    1  UNL1        0.0801
      9 N          -5.4092  -17.3067   22.7183 N.ar    1  UNL1       -0.2954
     10 C         -10.8614  -18.1292   22.8979 C.3     1  UNL1        0.0610
     11 C         -10.1546  -17.2252   21.9318 C.3     1  UNL1        0.0375
     12 C          -8.6658  -17.3147   21.7728 C.3     1  UNL1        0.0949
     13 N          -7.8837  -18.3081   22.5798 N.pl3   1  UNL1       -0.2794
     14 C          -8.5904  -19.2121   23.5458 C.3     1  UNL1        0.0949
     15 C         -10.0793  -19.1227   23.7049 C.3     1  UNL1        0.0375
     16 N         -12.3502  -18.0397   23.0569 N.3     1  UNL1       -0.2706
     17 C         -12.9935  -18.4604   24.3450 C.3     1  UNL1        0.0897
     18 C         -13.1958  -17.5297   21.9279 C.3     1  UNL1        0.1046
     19 C         -12.8271  -16.2530   21.2321 C.3     1  UNL1        0.1595
     20 C         -11.4861  -15.4714   19.1486 C.3     1  UNL1        0.1742
     21 O         -12.6279  -16.2396   19.7454 O.3     1  UNL1       -0.3496
     22 C          -5.7393  -15.9349   23.2272 C.3     1  UNL1        0.1354
     23 C          -6.5220  -15.7740   24.4966 C.ar    1  UNL1        0.0006
     24 C          -8.0101  -15.5927   24.4425 C.ar    1  UNL1       -0.0001
     25 C          -8.7928  -15.4318   25.7119 C.ar    1  UNL1        0.0294
     26 C          -8.0874  -15.4523   27.0356 C.ar    1  UNL1        0.1401
     27 F          -8.8702  -15.2914   28.3050 F       1  UNL1       -0.2042
     28 C          -6.5995  -15.6336   27.0898 C.ar    1  UNL1        0.0294
     29 C          -5.8167  -15.7945   25.8204 C.ar    1  UNL1       -0.0001
@<TRIPOS>BOND
     1    20    21    1
     2    21    19    1
     3    19    18    1
     4    18    16    1
     5    16    17    1
     6    16    10    1
     7    10    11    1
     8    11    12    1
     9    12    13    1
    10    13     1    1
    11     1     2   ar
    12     2     3   ar
    13     3     4   ar
    14     4     5   ar
    15     5     6   ar
    16     6     7   ar
    17     7     8   ar
    18     8     9   ar
    19     9    22    1
    20    22    23    1
    21    23    24   ar
    22    24    25   ar
    23    25    26   ar
    24    26    27    1
    25    26    28   ar
    26    28    29   ar
    27    13    14    1
    28    14    15    1
    29    15    10    1
    30     9     1   ar
    31    29    23   ar
    32     8     3   ar
@<TRIPOS>MOLECULE
*****
 29 32 0 0 0
SMALL
GASTEIGER

@<TRIPOS>ATOM
      1 C          -6.4985  -18.0204   22.3749 C.ar    1  UNL1        0.2014
      2 N          -5.8781  -19.2429   21.7662 N.ar    1  UNL1       -0.2136
      3 C          -4.3878  -19.1060   21.8678 C.ar    1  UNL1        0.0999
      4 C          -3.2657  -20.0026   21.4357 C.ar    1  UNL1        0.0207
      5 C          -1.8430  -19.5922   21.6751 C.ar    1  UNL1        0.0016
      6 C          -1.5424  -18.2850   22.3466 C.ar    1  UNL1        0.0016
      7 C          -2.6645  -17.3883   22.7787 C.ar    1  UNL1        0.0188
      8 C          -4.0872  -17.7988   22.5394 C.ar    1  UNL1        0.0801
      9 N          -5.3917  -17.1279   22.8527 N.ar    1  UNL1       -0.2954
     10 C         -10.9064  -17.1782   22.7088 C.3     1  UNL1        0.0610
     11 C         -10.2877  -18.2724   23.5273 C.3     1  UNL1        0.0375
     12 C          -8.8185  -18.5531   23.4160 C.3     1  UNL1        0.0949
     13 N          -7.9678  -17.7397   22.4862 N.pl3   1  UNL1       -0.2794
     14 C          -8.5865  -16.6456   21.6676 C.3     1  UNL1        0.0949
     15 C         -10.0557  -16.3648   21.7789 C.3     1  UNL1        0.0375
     16 N         -12.3757  -16.8975   22.8200 N.3     1  UNL1       -0.2706
     17 C         -12.9021  -15.5256   22.5189 C.3     1  UNL1        0.0897
     18 C         -13.3186  -17.9887   23.2325 C.3     1  UNL1        0.1046
     19 C         -13.2887  -18.5146   24.6370 C.3     1  UNL1        0.1595
     20 C         -14.7523  -18.3103   26.7739 C.3     1  UNL1        0.1742
     21 O         -14.5726  -18.7874   25.3632 O.3     1  UNL1       -0.3496
     22 C          -5.5598  -15.7980   23.5258 C.3     1  UNL1        0.1354
     23 C          -6.4187  -15.6800   24.7498 C.ar    1  UNL1        0.0006
     24 C          -7.8761  -15.3516   24.6146 C.ar    1  UNL1       -0.0001
     25 C          -8.7350  -15.2337   25.8387 C.ar    1  UNL1        0.0294
     26 C          -8.1366  -15.4441   27.1979 C.ar    1  UNL1        0.1401
     27 F          -8.9955  -15.3262   28.4220 F       1  UNL1       -0.2042
     28 C          -6.6792  -15.7725   27.3331 C.ar    1  UNL1        0.0294
     29 C          -5.8203  -15.8905   26.1091 C.ar    1  UNL1       -0.0001
@<TRIPOS>BOND
     1    20    21    1
     2    21    19    1
     3    19    18    1
     4    18    16    1
     5    16    17    1
     6    16    10    1
     7    10    11    1
     8    11    12    1
     9    12    13    1
    10    13     1    1
    11     1     2   ar
    12     2     3   ar
    13     3     4   ar
    14     4     5   ar
    15     5     6   ar
    16     6     7   ar
    17     7     8   ar
    18     8     9   ar
    19     9    22    1
    20    22    23    1
    21    23    24   ar
    22    24    25   ar
    23    25    26   ar
    24    26    27    1
    25    26    28   ar
    26    28    29   ar
    27    13    14    1
    28    14    15    1
    29    15    10    1
    30     9     1   ar
    31    29    23   ar
    32     8     3   ar
@<TRIPOS>MOLECULE
*****
 29 32 0 0 0
SMALL
GASTEIGER

@<TRIPOS>ATOM
      1 C          -8.7558  -18.2842   21.8683 C.ar    1  UNL1        0.2014
      2 N          -9.7132  -17.9998   20.7491 N.ar    1  UNL1       -0.2136
      3 C         -11.0873  -17.8696   21.3364 C.ar    1  UNL1        0.0999
      4 C         -12.4230  -17.5917   20.7130 C.ar    1  UNL1        0.0207
      5 C         -13.6506  -17.5177   21.5717 C.ar    1  UNL1        0.0016
      6 C         -13.5425  -17.7216   23.0539 C.ar    1  UNL1        0.0016
      7 C         -12.2068  -17.9995   23.6773 C.ar    1  UNL1        0.0188
      8 C         -10.9792  -18.0735   22.8185 C.ar    1  UNL1        0.0801
      9 N          -9.5383  -18.3297   23.1472 N.ar    1  UNL1       -0.2954
     10 C          -4.3160  -18.8937   21.4606 C.3     1  UNL1        0.0610
     11 C          -5.2465  -19.4368   20.4170 C.3     1  UNL1        0.0375
     12 C          -6.7265  -19.2336   20.5529 C.3     1  UNL1        0.0949
     13 N          -7.2759  -18.4874   21.7324 N.pl3   1  UNL1       -0.2794
     14 C          -6.3453  -17.9443   22.7760 C.3     1  UNL1        0.0949
     15 C          -4.8654  -18.1475   22.6401 C.3     1  UNL1        0.0375
     16 N          -2.8360  -19.0969   21.3248 N.3     1  UNL1       -0.2706
     17 C          -2.3077  -20.2756   20.5623 C.3     1  UNL1        0.0897
     18 C          -1.8844  -18.1213   21.9513 C.3     1  UNL1        0.1046
     19 C          -1.6758  -16.7723   21.3296 C.3     1  UNL1        0.1595
     20 C           0.3045  -17.7107   19.9338 C.3     1  UNL1        0.1742
     21 O          -0.6391  -16.5914   20.2606 O.3     1  UNL1       -0.3496
     22 C          -8.9782  -18.5865   24.5149 C.3     1  UNL1        0.1354
     23 C          -8.7332  -17.4413   25.4521 C.ar    1  UNL1        0.0006
     24 C          -8.2583  -16.1227   24.9173 C.ar    1  UNL1       -0.0001
     25 C          -8.0133  -14.9775   25.8545 C.ar    1  UNL1        0.0294
     26 C          -8.2430  -15.1509   27.3267 C.ar    1  UNL1        0.1401
     27 F          -7.9980  -14.0056   28.2639 F       1  UNL1       -0.2042
     28 C          -8.7178  -16.4694   27.8615 C.ar    1  UNL1        0.0294
     29 C          -8.9629  -17.6146   26.9243 C.ar    1  UNL1       -0.0001
@<TRIPOS>BOND
     1    20    21    1
     2    21    19    1
     3    19    18    1
     4    18    16    1
     5    16    17    1
     6    16    10    1
     7    10    11    1
     8    11    12    1
     9    12    13    1
    10    13     1    1
    11     1     2   ar
    12     2     3   ar
    13     3     4   ar
    14     4     5   ar
    15     5     6   ar
    16     6     7   ar
    17     7     8   ar
    18     8     9   ar
    19     9    22    1
    20    22    23    1
    21    23    24   ar
    22    24    25   ar
    23    25    26   ar
    24    26    27    1
    25    26    28   ar
    26    28    29   ar
    27    13    14    1
    28    14    15    1
    29    15    10    1
    30     9     1   ar
    31    29    23   ar
    32     8     3   ar
@<TRIPOS>MOLECULE
*****
 29 32 0 0 0
SMALL
GASTEIGER

@<TRIPOS>ATOM
      1 C          -4.9408  -16.3381   24.1472 C.ar    1  UNL1        0.2014
      2 N          -4.7743  -15.9898   25.5967 N.ar    1  UNL1       -0.2136
      3 C          -6.1293  -15.6702   26.1552 C.ar    1  UNL1        0.0999
      4 C          -6.5787  -15.2613   27.5266 C.ar    1  UNL1        0.0207
      5 C          -8.0319  -15.0032   27.7937 C.ar    1  UNL1        0.0016
      6 C          -9.0358  -15.1540   26.6894 C.ar    1  UNL1        0.0016
      7 C          -8.5864  -15.5628   25.3180 C.ar    1  UNL1        0.0188
      8 C          -7.1332  -15.8209   25.0509 C.ar    1  UNL1        0.0801
      9 N          -6.3986  -16.2337   23.8099 N.ar    1  UNL1       -0.2954
     10 C          -1.6452  -17.4933   21.3091 C.3     1  UNL1        0.0610
     11 C          -2.0701  -16.0592   21.4211 C.3     1  UNL1        0.0375
     12 C          -3.1686  -15.6741   22.3672 C.3     1  UNL1        0.0949
     13 N          -3.8423  -16.7232   23.2012 N.pl3   1  UNL1       -0.2794
     14 C          -3.4174  -18.1573   23.0891 C.3     1  UNL1        0.0949
     15 C          -2.3188  -18.5424   22.1431 C.3     1  UNL1        0.0375
     16 N          -0.5467  -17.8784   20.3631 N.3     1  UNL1       -0.2706
     17 C           0.8802  -17.8653   20.8254 C.3     1  UNL1        0.0897
     18 C          -0.8751  -18.2765   18.9547 C.3     1  UNL1        0.1046
     19 C          -2.3032  -18.3049   18.4969 C.3     1  UNL1        0.1595
     20 C          -4.5627  -19.0187   19.5624 C.3     1  UNL1        0.1742
     21 O          -3.2263  -19.3815   18.9858 O.3     1  UNL1       -0.3496
     22 C          -7.0139  -16.4960   22.4673 C.3     1  UNL1        0.1354
     23 C          -8.0903  -17.5309   22.3248 C.ar    1  UNL1        0.0006
     24 C          -7.7925  -18.9695   22.6281 C.ar    1  UNL1       -0.0001
     25 C          -8.8689  -20.0044   22.4856 C.ar    1  UNL1        0.0294
     26 C         -10.2432  -19.6007   22.0399 C.ar    1  UNL1        0.1401
     27 F         -11.3195  -20.6357   21.8974 F       1  UNL1       -0.2042
     28 C         -10.5409  -18.1622   21.7366 C.ar    1  UNL1        0.0294
     29 C          -9.4645  -17.1273   21.8791 C.ar    1  UNL1       -0.0001
@<TRIPOS>BOND
     1    20    21    1
     2    21    19    1
     3    19    18    1
     4    18    16    1
     5    16    17    1
     6    16    10    1
     7    10    11    1
     8    11    12    1
     9    12    13    1
    10    13     1    1
    11     1     2   ar
    12     2     3   ar
    13     3     4   ar
    14     4     5   ar
    15     5     6   ar
    16     6     7   ar
    17     7     8   ar
    18     8     9   ar
    19     9    22    1
    20    22    23    1
    21    23    24   ar
    22    24    25   ar
    23    25    26   ar
    24    26    27    1
    25    26    28   ar
    26    28    29   ar
    27    13    14    1
    28    14    15    1
    29    15    10    1
    30     9     1   ar
    31    29    23   ar
    32     8     3   ar
@<TRIPOS>MOLECULE
*****
 29 32 0 0 0
SMALL
GASTEIGER

@<TRIPOS>ATOM
      1 C          -5.0567  -18.4931   21.1692 C.ar    1  UNL1        0.2014
      2 N          -4.7547  -18.4223   19.7016 N.ar    1  UNL1       -0.2136
      3 C          -3.2709  -18.2725   19.5403 C.ar    1  UNL1        0.0999
      4 C          -2.4005  -18.1531   18.3246 C.ar    1  UNL1        0.0207
      5 C          -0.9149  -18.0119   18.4769 C.ar    1  UNL1        0.0016
      6 C          -0.2999  -17.9900   19.8448 C.ar    1  UNL1        0.0016
      7 C          -1.1704  -18.1094   21.0605 C.ar    1  UNL1        0.0188
      8 C          -2.6559  -18.2506   20.9083 C.ar    1  UNL1        0.0801
      9 N          -3.7596  -18.3869   21.9149 N.ar    1  UNL1       -0.2954
     10 C          -9.1375  -18.9445   23.0112 C.3     1  UNL1        0.0610
     11 C          -8.6493  -17.5894   22.5928 C.3     1  UNL1        0.0375
     12 C          -7.2890  -17.4389   21.9788 C.3     1  UNL1        0.0949
     13 N          -6.4170  -18.6436   21.7832 N.pl3   1  UNL1       -0.2794
     14 C          -6.9052  -19.9987   22.2016 C.3     1  UNL1        0.0949
     15 C          -8.2655  -20.1492   22.8156 C.3     1  UNL1        0.0375
     16 N         -10.4978  -19.0950   23.6252 N.3     1  UNL1       -0.2706
     17 C         -10.8187  -20.3063   24.4496 C.3     1  UNL1        0.0897
     18 C         -11.5372  -18.0341   23.4149 C.3     1  UNL1        0.1046
     19 C         -12.4422  -18.0972   22.2203 C.3     1  UNL1        0.1595
     20 C         -11.5258  -16.4439   20.4380 C.3     1  UNL1        0.1742
     21 O         -11.8927  -17.8391   20.8486 O.3     1  UNL1       -0.3496
     22 C          -3.5949  -18.4126   23.4057 C.3     1  UNL1        0.1354
     23 C          -4.2072  -17.3321   24.2466 C.ar    1  UNL1        0.0006
     24 C          -4.2395  -17.4713   25.7399 C.ar    1  UNL1       -0.0001
     25 C          -4.8518  -16.3907   26.5809 C.ar    1  UNL1        0.0294
     26 C          -5.4320  -15.1708   25.9287 C.ar    1  UNL1        0.1401
     27 F          -6.0443  -14.0902   26.7698 F       1  UNL1       -0.2042
     28 C          -5.3997  -15.0316   24.4356 C.ar    1  UNL1        0.0294
     29 C          -4.7874  -16.1122   23.5945 C.ar    1  UNL1       -0.0001
@<TRIPOS>BOND
     1    20    21    1
     2    21    19    1
     3    19    18    1
     4    18    16    1
     5    16    17    1
     6    16    10    1
     7    10    11    1
     8    11    12    1
     9    12    13    1
    10    13     1    1
    11     1     2   ar
    12     2     3   ar
    13     3     4   ar
    14     4     5   ar
    15     5     6   ar
    16     6     7   ar
    17     7     8   ar
    18     8     9   ar
    19     9    22    1
    20    22    23    1
    21    23    24   ar
    22    24    25   ar
    23    25    26   ar
    24    26    27    1
    25    26    28   ar
    26    28    29   ar
    27    13    14    1
    28    14    15    1
    29    15    10    1
    30     9     1   ar
    31    29    23   ar
    32     8     3   ar
@<TRIPOS>MOLECULE
*****
 29 32 0 0 0
SMALL
GASTEIGER

@<TRIPOS>ATOM
      1 C          -3.7833  -16.7996   22.9176 C.ar    1  UNL1        0.2014
      2 N          -2.6498  -15.9955   22.3532 N.ar    1  UNL1       -0.2136
      3 C          -2.0033  -16.8039   21.2677 C.ar    1  UNL1        0.0999
      4 C          -0.8411  -16.5213   20.3625 C.ar    1  UNL1        0.0207
      5 C          -0.4128  -17.5425   19.3508 C.ar    1  UNL1        0.0016
      6 C          -1.1467  -18.8464   19.2442 C.ar    1  UNL1        0.0016
      7 C          -2.3089  -19.1290   20.1494 C.ar    1  UNL1        0.0188
      8 C          -2.7372  -18.1078   21.1611 C.ar    1  UNL1        0.0801
      9 N          -3.8373  -18.1051   22.1808 N.ar    1  UNL1       -0.2954
     10 C          -6.5381  -15.5203   26.2379 C.3     1  UNL1        0.0610
     11 C          -5.3003  -16.3073   26.5516 C.3     1  UNL1        0.0375
     12 C          -4.3820  -16.7337   25.4448 C.3     1  UNL1        0.0949
     13 N          -4.7016  -16.3732   24.0243 N.pl3   1  UNL1       -0.2794
     14 C          -5.9394  -15.5863   23.7106 C.3     1  UNL1        0.0949
     15 C          -6.8577  -15.1598   24.8174 C.3     1  UNL1        0.0375
     16 N          -7.4564  -15.0939   27.3446 N.3     1  UNL1       -0.2706
     17 C          -7.0922  -13.9268   28.2136 C.3     1  UNL1        0.0897
     18 C          -8.7389  -15.8345   27.5824 C.3     1  UNL1        0.1046
     19 C          -8.9073  -17.2300   27.0586 C.3     1  UNL1        0.1595
     20 C          -9.9775  -18.7224   25.2208 C.3     1  UNL1        0.1742
     21 O          -9.2902  -17.4520   25.6253 O.3     1  UNL1       -0.3496
     22 C          -4.8190  -19.2134   22.4215 C.3     1  UNL1        0.1354
     23 C          -6.1423  -19.2097   21.7154 C.ar    1  UNL1        0.0006
     24 C          -7.3476  -18.6178   22.3842 C.ar    1  UNL1       -0.0001
     25 C          -8.6710  -18.6140   21.6781 C.ar    1  UNL1        0.0294
     26 C          -8.7892  -19.2021   20.3033 C.ar    1  UNL1        0.1401
     27 F         -10.1126  -19.1984   19.5972 F       1  UNL1       -0.2042
     28 C          -7.5840  -19.7940   19.6346 C.ar    1  UNL1        0.0294
     29 C          -6.2606  -19.7978   20.3406 C.ar    1  UNL1       -0.0001
@<TRIPOS>BOND
     1    20    21    1
     2    21    19    1
     3    19    18    1
     4    18    16    1
     5    16    17    1
     6    16    10    1
     7    10    11    1
     8    11    12    1
     9    12    13    1
    10    13     1    1
    11     1     2   ar
    12     2     3   ar
    13     3     4   ar
    14     4     5   ar
    15     5     6   ar
    16     6     7   ar
    17     7     8   ar
    18     8     9   ar
    19     9    22    1
    20    22    23    1
    21    23    24   ar
    22    24    25   ar
    23    25    26   ar
    24    26    27    1
    25    26    28   ar
    26    28    29   ar
    27    13    14    1
    28    14    15    1
    29    15    10    1
    30     9     1   ar
    31    29    23   ar
    32     8     3   ar
@<TRIPOS>MOLECULE
*****
 29 32 0 0 0
SMALL
GASTEIGER

@<TRIPOS>ATOM
      1 C           4.6012    0.1202   35.1618 C.ar    1  UNL1        0.2014
      2 N           4.3172   -0.1236   36.6143 N.ar    1  UNL1       -0.2136
      3 C           3.5521    1.0541   37.1412 C.ar    1  UNL1        0.0999
      4 C           3.0029    1.3672   38.5015 C.ar    1  UNL1        0.0207
      5 C           2.2650    2.6520   38.7348 C.ar    1  UNL1        0.0016
      6 C           2.0761    3.6238   37.6079 C.ar    1  UNL1        0.0016
      7 C           2.6252    3.3107   36.2476 C.ar    1  UNL1        0.0188
      8 C           3.3632    2.0259   36.0142 C.ar    1  UNL1        0.0801
      9 N           4.0116    1.4487   34.7909 N.ar    1  UNL1       -0.2954
     10 C           6.8306   -2.6475   32.4015 C.3     1  UNL1        0.0610
     11 C           7.5270   -1.4588   32.9947 C.3     1  UNL1        0.0375
     12 C           6.7838   -0.5362   33.9148 C.3     1  UNL1        0.0949
     13 N           5.3443   -0.8024   34.2417 N.pl3   1  UNL1       -0.2794
     14 C           4.6479   -1.9911   33.6485 C.3     1  UNL1        0.0949
     15 C           5.3911   -2.9137   32.7284 C.3     1  UNL1        0.0375
     16 N           7.5737   -3.5701   31.4814 N.3     1  UNL1       -0.2706
     17 C           8.7908   -3.0826   30.7528 C.3     1  UNL1        0.0897
     18 C           7.0997   -4.9803   31.2898 C.3     1  UNL1        0.1046
     19 C           6.8583   -5.5091   29.9070 C.3     1  UNL1        0.1595
     20 C           9.1250   -6.7765   29.9841 C.3     1  UNL1        0.1742
     21 O           7.8274   -6.4763   29.2942 O.3     1  UNL1       -0.3496
     22 C           4.0616    2.0878   33.4348 C.3     1  UNL1        0.1354
     23 C           2.9534    1.8502   32.4524 C.ar    1  UNL1        0.0006
     24 C           3.1146    0.8191   31.3748 C.ar    1  UNL1       -0.0001
     25 C           2.0064    0.5814   30.3923 C.ar    1  UNL1        0.0294
     26 C           0.7370    1.3749   30.4872 C.ar    1  UNL1        0.1401
     27 F          -0.3712    1.1372   29.5047 F       1  UNL1       -0.2042
     28 C           0.5758    2.4059   31.5647 C.ar    1  UNL1        0.0294
     29 C           1.6840    2.6436   32.5472 C.ar    1  UNL1       -0.0001
@<TRIPOS>BOND
     1    20    21    1
     2    21    19    1
     3    19    18    1
     4    18    16    1
     5    16    17    1
     6    16    10    1
     7    10    11    1
     8    11    12    1
     9    12    13    1
    10    13     1    1
    11     1     2   ar
    12     2     3   ar
    13     3     4   ar
    14     4     5   ar
    15     5     6   ar
    16     6     7   ar
    17     7     8   ar
    18     8     9   ar
    19     9    22    1
    20    22    23    1
    21    23    24   ar
    22    24    25   ar
    23    25    26   ar
    24    26    27    1
    25    26    28   ar
    26    28    29   ar
    27    13    14    1
    28    14    15    1
    29    15    10    1
    30     9     1   ar
    31    29    23   ar
    32     8     3   ar
@<TRIPOS>MOLECULE
*****
 29 32 0 0 0
SMALL
GASTEIGER

@<TRIPOS>ATOM
      1 C           6.4166   -2.7616   31.8007 C.ar    1  UNL1        0.2014
      2 N           6.8534   -4.1961   31.8380 N.ar    1  UNL1       -0.2136
      3 C           7.0016   -4.6725   30.4234 C.ar    1  UNL1        0.0999
      4 C           7.4062   -5.9971   29.8475 C.ar    1  UNL1        0.0207
      5 C           7.4656   -6.1816   28.3601 C.ar    1  UNL1        0.0016
      6 C           7.1204   -5.0415   27.4486 C.ar    1  UNL1        0.0016
      7 C           6.7158   -3.7169   28.0244 C.ar    1  UNL1        0.0188
      8 C           6.6564   -3.5324   29.5118 C.ar    1  UNL1        0.0801
      9 N           6.2949   -2.3514   30.3630 N.ar    1  UNL1       -0.2954
     10 C           5.6128   -0.1477   35.3744 C.3     1  UNL1        0.0610
     11 C           6.9623   -0.1288   34.7197 C.3     1  UNL1        0.0375
     12 C           7.2302   -1.0002   33.5285 C.3     1  UNL1        0.0949
     13 N           6.1487   -1.8903   32.9919 N.pl3   1  UNL1       -0.2794
     14 C           4.7993   -1.9092   33.6466 C.3     1  UNL1        0.0949
     15 C           4.5313   -1.0379   34.8378 C.3     1  UNL1        0.0375
     16 N           5.3449    0.7236   36.5656 N.3     1  UNL1       -0.2706
     17 C           6.3833    1.7025   37.0276 C.3     1  UNL1        0.0897
     18 C           4.0386    0.6160   37.2949 C.3     1  UNL1        0.1046
     19 C           3.1083    1.7917   37.3446 C.3     1  UNL1        0.1595
     20 C           1.5417    0.6074   39.0456 C.3     1  UNL1        0.1742
     21 O           1.7649    1.6579   37.9984 O.3     1  UNL1       -0.3496
     22 C           5.8838   -0.9979   29.8642 C.3     1  UNL1        0.1354
     23 C           4.4621   -0.7489   29.4560 C.ar    1  UNL1        0.0006
     24 C           4.0893   -0.7410   28.0030 C.ar    1  UNL1       -0.0001
     25 C           2.6676   -0.4920   27.5947 C.ar    1  UNL1        0.0294
     26 C           1.6185   -0.2510   28.6395 C.ar    1  UNL1        0.1401
     27 F           0.1968   -0.0021   28.2312 F       1  UNL1       -0.2042
     28 C           1.9912   -0.2590   30.0924 C.ar    1  UNL1        0.0294
     29 C           3.4130   -0.5079   30.5006 C.ar    1  UNL1       -0.0001
@<TRIPOS>BOND
     1    20    21    1
     2    21    19    1
     3    19    18    1
     4    18    16    1
     5    16    17    1
     6    16    10    1
     7    10    11    1
     8    11    12    1
     9    12    13    1
    10    13     1    1
    11     1     2   ar
    12     2     3   ar
    13     3     4   ar
    14     4     5   ar
    15     5     6   ar
    16     6     7   ar
    17     7     8   ar
    18     8     9   ar
    19     9    22    1
    20    22    23    1
    21    23    24   ar
    22    24    25   ar
    23    25    26   ar
    24    26    27    1
    25    26    28   ar
    26    28    29   ar
    27    13    14    1
    28    14    15    1
    29    15    10    1
    30     9     1   ar
    31    29    23   ar
    32     8     3   ar
