@<TRIPOS>MOLECULE
*****
 35 40 0 0 0
SMALL
GASTEIGER

@<TRIPOS>ATOM
      1 C           8.5725    0.9935   18.1719 C.3     1  UNL1        0.1661
      2 N           7.3740    0.0916   18.1645 N.3     1  UNL1        0.2624
      3 O           7.3143    0.6158   16.7603 O.co2   1  UNL1       -0.7718
      4 C           6.1546   -0.6282   17.6693 C.3     1  UNL1        0.1054
      5 C           5.4113   -1.5589   18.5809 C.3     1  UNL1        0.0737
      6 C           5.8872   -1.7699   19.9877 C.3     1  UNL1        0.1003
      7 C           7.1065   -1.0502   20.4829 C.3     1  UNL1        0.0737
      8 C           7.8499   -0.1194   19.5712 C.3     1  UNL1        0.1054
      9 C           4.6584   -2.5547   19.6351 C.2     1  UNL1        0.2294
     10 O           3.9573   -2.5465   18.3090 O.2     1  UNL1       -0.2745
     11 N           4.2538   -3.3492   20.8415 N.am    1  UNL1       -0.2839
     12 C           5.2325   -3.0554   21.9395 C.ar    1  UNL1        0.0467
     13 C           5.3350   -3.5506   23.3517 C.ar    1  UNL1        0.0144
     14 C           6.4469   -3.0697   24.2362 C.ar    1  UNL1        0.0012
     15 C           7.4563   -2.0937   23.7087 C.ar    1  UNL1       -0.0002
     16 C           7.3539   -1.5985   22.2964 C.ar    1  UNL1       -0.0026
     17 C           6.2420   -2.0794   21.4118 C.ar    1  UNL1       -0.0007
     18 H           3.4815   -3.9567   20.9019 H       1  UNL1        0.1549
     19 C           6.5494   -3.5648   25.6485 C.2     1  UNL1        0.0001
     20 C           7.2854   -4.8376   25.9455 C.2     1  UNL1        0.0027
     21 C           7.8810   -5.5368   24.7596 C.ar    1  UNL1       -0.0004
     22 C           7.6052   -4.7908   23.4880 C.ar    1  UNL1       -0.0002
     23 C           8.1151   -5.3219   22.1812 C.ar    1  UNL1       -0.0000
     24 C           8.9010   -6.5991   22.1460 C.ar    1  UNL1       -0.0002
     25 C           9.1768   -7.3452   23.4177 C.ar    1  UNL1       -0.0007
     26 C           8.6669   -6.8140   24.7245 C.ar    1  UNL1        0.0212
     27 C           9.0511   -7.7074   25.8666 C.3     1  UNL1        0.2320
     28 O           8.7445   -7.5443   27.3258 O.3     1  UNL1       -0.4706
     29 C           7.9778   -6.4473   28.0034 C.ar    1  UNL1        0.1412
     30 C           7.9018   -6.6666   29.4853 C.ar    1  UNL1        0.0665
     31 C           7.1763   -5.6812   30.3530 C.ar    1  UNL1        0.1432
     32 F           7.1003   -5.9004   31.8350 F       1  UNL1       -0.2041
     33 C           6.5270   -4.4767   29.7388 C.ar    1  UNL1        0.0298
     34 C           6.6031   -4.2574   28.2568 C.ar    1  UNL1        0.0053
     35 C           7.3285   -5.2427   27.3891 C.ar    1  UNL1        0.0341
@<TRIPOS>UNITY_ATOM_ATTR
2 1
charge 1
3 1
charge -1
@<TRIPOS>BOND
     1     1     2    1
     2     2     3    1
     3     2     4    1
     4     4     5    1
     5     5     6    1
     6     6     7    1
     7     7     8    1
     8     6     9    1
     9     9    10    2
    10     9    11   am
    11    11    12    1
    12    12    13   ar
    13    13    14   ar
    14    14    19    1
    15    19    20    2
    16    20    21    1
    17    21    22   ar
    18    22    23   ar
    19    23    24   ar
    20    24    25   ar
    21    25    26   ar
    22    26    27    1
    23    27    28    1
    24    28    29    1
    25    29    30   ar
    26    30    31   ar
    27    31    32    1
    28    31    33   ar
    29    33    34   ar
    30    34    35   ar
    31    14    15   ar
    32    15    16   ar
    33    16    17   ar
    34     8     2    1
    35    17    12   ar
    36    17     6    1
    37    35    20    1
    38    26    21   ar
    39    35    29   ar
    40    11    18    1
@<TRIPOS>MOLECULE
*****
 35 40 0 0 0
SMALL
GASTEIGER

@<TRIPOS>ATOM
      1 C           5.3587   -3.1613   18.2243 C.3     1  UNL1        0.1661
      2 N           5.6039   -1.7022   17.9782 N.3     1  UNL1        0.2624
      3 O           6.9190   -2.2667   17.5288 O.co2   1  UNL1       -0.7718
      4 C           6.3058   -0.4390   17.5760 C.3     1  UNL1        0.1054
      5 C           5.6076    0.8819   17.7087 C.3     1  UNL1        0.0737
      6 C           4.2074    0.9397   18.2436 C.3     1  UNL1        0.1003
      7 C           3.5054   -0.3235   18.6458 C.3     1  UNL1        0.0737
      8 C           4.2037   -1.6444   18.5131 C.3     1  UNL1        0.1054
      9 C           4.7788    2.2791   17.8839 C.2     1  UNL1        0.2294
     10 O           6.1489    2.5327   17.3283 O.2     1  UNL1       -0.2745
     11 N           3.7397    3.3203   18.1773 N.am    1  UNL1       -0.2839
     12 C           2.5261    2.6244   18.7183 C.ar    1  UNL1        0.0467
     13 C           1.1950    3.1405   19.1789 C.ar    1  UNL1        0.0144
     14 C           0.1531    2.1851   19.6805 C.ar    1  UNL1        0.0012
     15 C           0.4421    0.7138   19.7216 C.ar    1  UNL1       -0.0002
     16 C           1.7731    0.1977   19.2609 C.ar    1  UNL1       -0.0026
     17 C           2.8151    1.1531   18.7593 C.ar    1  UNL1       -0.0007
     18 H           3.8371    4.2902   18.0390 H       1  UNL1        0.1549
     19 C          -1.1779    2.7010   20.1412 C.2     1  UNL1        0.0001
     20 C          -1.4016    3.0095   21.5920 C.2     1  UNL1        0.0027
     21 C          -0.2301    2.7670   22.4970 C.ar    1  UNL1       -0.0004
     22 C           0.9540    2.2510   21.7343 C.ar    1  UNL1       -0.0002
     23 C           2.2334    1.9429   22.4541 C.ar    1  UNL1       -0.0000
     24 C           2.3286    2.1507   23.9366 C.ar    1  UNL1       -0.0002
     25 C           1.1446    2.6666   24.6993 C.ar    1  UNL1       -0.0007
     26 C          -0.1348    2.9748   23.9794 C.ar    1  UNL1        0.0212
     27 C          -1.1875    3.4764   24.9231 C.3     1  UNL1        0.2320
     28 O          -2.5953    3.8940   24.6174 O.3     1  UNL1       -0.4706
     29 C          -3.2983    3.9133   23.2924 C.ar    1  UNL1        0.1412
     30 C          -4.7095    4.4033   23.4278 C.ar    1  UNL1        0.0665
     31 C          -5.5894    4.4996   22.2168 C.ar    1  UNL1        0.1432
     32 F          -7.0007    4.9897   22.3523 F       1  UNL1       -0.2041
     33 C          -5.0582    4.1060   20.8705 C.ar    1  UNL1        0.0298
     34 C          -3.6470    3.6160   20.7350 C.ar    1  UNL1        0.0053
     35 C          -2.7670    3.5196   21.9459 C.ar    1  UNL1        0.0341
@<TRIPOS>UNITY_ATOM_ATTR
2 1
charge 1
3 1
charge -1
@<TRIPOS>BOND
     1     1     2    1
     2     2     3    1
     3     2     4    1
     4     4     5    1
     5     5     6    1
     6     6     7    1
     7     7     8    1
     8     6     9    1
     9     9    10    2
    10     9    11   am
    11    11    12    1
    12    12    13   ar
    13    13    14   ar
    14    14    19    1
    15    19    20    2
    16    20    21    1
    17    21    22   ar
    18    22    23   ar
    19    23    24   ar
    20    24    25   ar
    21    25    26   ar
    22    26    27    1
    23    27    28    1
    24    28    29    1
    25    29    30   ar
    26    30    31   ar
    27    31    32    1
    28    31    33   ar
    29    33    34   ar
    30    34    35   ar
    31    14    15   ar
    32    15    16   ar
    33    16    17   ar
    34     8     2    1
    35    17    12   ar
    36    17     6    1
    37    35    20    1
    38    26    21   ar
    39    35    29   ar
    40    11    18    1
@<TRIPOS>MOLECULE
*****
 35 40 0 0 0
SMALL
GASTEIGER

@<TRIPOS>ATOM
      1 C           1.1283    5.3724   31.3823 C.3     1  UNL1        0.1661
      2 N           0.9023    3.9325   31.0285 N.3     1  UNL1        0.2624
      3 O           1.1125    3.8071   32.5084 O.co2   1  UNL1       -0.7718
      4 C           0.7492    2.4489   31.1887 C.3     1  UNL1        0.1054
      5 C           0.4645    1.5907   29.9918 C.3     1  UNL1        0.0737
      6 C           0.3327    2.2161   28.6348 C.3     1  UNL1        0.1003
      7 C           0.4858    3.6997   28.4745 C.3     1  UNL1        0.0737
      8 C           0.7706    4.5578   29.6714 C.3     1  UNL1        0.1054
      9 C           0.1554    0.7266   28.6399 C.2     1  UNL1        0.2294
     10 O           0.2317   -0.1662   29.8429 O.2     1  UNL1       -0.2745
     11 N          -0.1116    0.2867   27.2309 N.am    1  UNL1       -0.2839
     12 C          -0.0993    1.5043   26.3550 C.ar    1  UNL1        0.0467
     13 C          -0.3027    1.6812   24.8794 C.ar    1  UNL1        0.0144
     14 C          -0.2314    3.0507   24.2715 C.ar    1  UNL1        0.0012
     15 C           0.0432    4.2431   25.1390 C.ar    1  UNL1       -0.0002
     16 C           0.2466    4.0662   26.6146 C.ar    1  UNL1       -0.0026
     17 C           0.1753    2.6967   27.2226 C.ar    1  UNL1       -0.0007
     18 H          -0.2676   -0.6387   26.9334 H       1  UNL1        0.1549
     19 C          -0.4347    3.2277   22.7959 C.2     1  UNL1        0.0001
     20 C          -1.7977    3.5526   22.2602 C.2     1  UNL1        0.0027
     21 C          -2.8864    3.6783   23.2843 C.ar    1  UNL1       -0.0004
     22 C          -2.3641    3.4450   24.6709 C.ar    1  UNL1       -0.0002
     23 C          -3.2935    3.5247   25.8456 C.ar    1  UNL1       -0.0000
     24 C          -4.7451    3.8376   25.6337 C.ar    1  UNL1       -0.0002
     25 C          -5.2673    4.0709   24.2471 C.ar    1  UNL1       -0.0007
     26 C          -4.3380    3.9913   23.0724 C.ar    1  UNL1        0.0212
     27 C          -5.0593    4.2558   21.7841 C.3     1  UNL1        0.2320
     28 O          -4.5073    4.2726   20.3895 O.3     1  UNL1       -0.4706
     29 C          -3.0974    4.0292   19.9388 C.ar    1  UNL1        0.1412
     30 C          -2.9716    4.1410   18.4483 C.ar    1  UNL1        0.0665
     31 C          -1.6398    3.9324   17.7903 C.ar    1  UNL1        0.1432
     32 F          -1.5139    4.0443   16.2998 F       1  UNL1       -0.2041
     33 C          -0.4339    3.6119   18.6228 C.ar    1  UNL1        0.0298
     34 C          -0.5598    3.5001   20.1133 C.ar    1  UNL1        0.0053
     35 C          -1.8915    3.7087   20.7713 C.ar    1  UNL1        0.0341
@<TRIPOS>UNITY_ATOM_ATTR
2 1
charge 1
3 1
charge -1
@<TRIPOS>BOND
     1     1     2    1
     2     2     3    1
     3     2     4    1
     4     4     5    1
     5     5     6    1
     6     6     7    1
     7     7     8    1
     8     6     9    1
     9     9    10    2
    10     9    11   am
    11    11    12    1
    12    12    13   ar
    13    13    14   ar
    14    14    19    1
    15    19    20    2
    16    20    21    1
    17    21    22   ar
    18    22    23   ar
    19    23    24   ar
    20    24    25   ar
    21    25    26   ar
    22    26    27    1
    23    27    28    1
    24    28    29    1
    25    29    30   ar
    26    30    31   ar
    27    31    32    1
    28    31    33   ar
    29    33    34   ar
    30    34    35   ar
    31    14    15   ar
    32    15    16   ar
    33    16    17   ar
    34     8     2    1
    35    17    12   ar
    36    17     6    1
    37    35    20    1
    38    26    21   ar
    39    35    29   ar
    40    11    18    1
@<TRIPOS>MOLECULE
*****
 35 40 0 0 0
SMALL
GASTEIGER

@<TRIPOS>ATOM
      1 C           0.2114    0.9115   19.8474 C.3     1  UNL1        0.1661
      2 N           1.3860    0.4128   19.0591 N.3     1  UNL1        0.2624
      3 O           0.6757    1.2002   17.9982 O.co2   1  UNL1       -0.7718
      4 C           2.3139    0.1874   17.9023 C.3     1  UNL1        0.1054
      5 C           3.5441   -0.6521   18.0802 C.3     1  UNL1        0.0737
      6 C           3.8465   -1.2664   19.4148 C.3     1  UNL1        0.1003
      7 C           2.9186   -1.0411   20.5717 C.3     1  UNL1        0.0737
      8 C           1.6883   -0.2015   20.3938 C.3     1  UNL1        0.1054
      9 C           4.8618   -1.5782   18.3557 C.2     1  UNL1        0.2294
     10 O           4.8252   -1.1051   16.9326 O.2     1  UNL1       -0.2745
     11 N           5.9203   -2.4460   18.9693 N.am    1  UNL1       -0.2839
     12 C           5.5591   -2.6706   20.4077 C.ar    1  UNL1        0.0467
     13 C           6.2317   -3.4447   21.5024 C.ar    1  UNL1        0.0144
     14 C           5.6225   -3.4898   22.8724 C.ar    1  UNL1        0.0012
     15 C           4.3409   -2.7608   23.1478 C.ar    1  UNL1       -0.0002
     16 C           3.6683   -1.9866   22.0531 C.ar    1  UNL1       -0.0026
     17 C           4.2774   -1.9415   20.6831 C.ar    1  UNL1       -0.0007
     18 H           6.7129   -2.8052   18.5089 H       1  UNL1        0.1549
     19 C           6.2951   -4.2640   23.9672 C.2     1  UNL1        0.0001
     20 C           7.2779   -3.5828   24.8728 C.2     1  UNL1        0.0027
     21 C           7.5158   -2.1275   24.5979 C.ar    1  UNL1       -0.0004
     22 C           6.6941   -1.6473   23.4387 C.ar    1  UNL1       -0.0002
     23 C           6.7839   -0.2165   22.9974 C.ar    1  UNL1       -0.0000
     24 C           7.6955    0.7340   23.7154 C.ar    1  UNL1       -0.0002
     25 C           8.5173    0.2537   24.8747 C.ar    1  UNL1       -0.0007
     26 C           8.4274   -1.1770   25.3160 C.ar    1  UNL1        0.0212
     27 C           9.3262   -1.4471   26.4862 C.3     1  UNL1        0.2320
     28 O           9.5354   -2.7343   27.2274 O.3     1  UNL1       -0.4706
     29 C           8.8974   -4.0694   26.9814 C.ar    1  UNL1        0.1412
     30 C           9.3869   -5.0987   27.9566 C.ar    1  UNL1        0.0665
     31 C           8.8717   -6.5056   27.8839 C.ar    1  UNL1        0.1432
     32 F           9.3612   -7.5348   28.8591 F       1  UNL1       -0.2041
     33 C           7.8671   -6.8832   26.8361 C.ar    1  UNL1        0.0298
     34 C           7.3776   -5.8540   25.8609 C.ar    1  UNL1        0.0053
     35 C           7.8927   -4.4471   25.9335 C.ar    1  UNL1        0.0341
@<TRIPOS>UNITY_ATOM_ATTR
2 1
charge 1
3 1
charge -1
@<TRIPOS>BOND
     1     1     2    1
     2     2     3    1
     3     2     4    1
     4     4     5    1
     5     5     6    1
     6     6     7    1
     7     7     8    1
     8     6     9    1
     9     9    10    2
    10     9    11   am
    11    11    12    1
    12    12    13   ar
    13    13    14   ar
    14    14    19    1
    15    19    20    2
    16    20    21    1
    17    21    22   ar
    18    22    23   ar
    19    23    24   ar
    20    24    25   ar
    21    25    26   ar
    22    26    27    1
    23    27    28    1
    24    28    29    1
    25    29    30   ar
    26    30    31   ar
    27    31    32    1
    28    31    33   ar
    29    33    34   ar
    30    34    35   ar
    31    14    15   ar
    32    15    16   ar
    33    16    17   ar
    34     8     2    1
    35    17    12   ar
    36    17     6    1
    37    35    20    1
    38    26    21   ar
    39    35    29   ar
    40    11    18    1
@<TRIPOS>MOLECULE
*****
 35 40 0 0 0
SMALL
GASTEIGER

@<TRIPOS>ATOM
      1 C           9.1826    2.1395   17.2379 C.3     1  UNL1        0.1661
      2 N           7.9049    1.3703   17.0777 N.3     1  UNL1        0.2624
      3 O           7.7394    2.3813   15.9820 O.co2   1  UNL1       -0.7718
      4 C           6.5697    0.9522   16.5370 C.3     1  UNL1        0.1054
      5 C           5.8437   -0.2097   17.1476 C.3     1  UNL1        0.0737
      6 C           6.4529   -0.9536   18.2989 C.3     1  UNL1        0.1003
      7 C           7.7882   -0.5355   18.8397 C.3     1  UNL1        0.0737
      8 C           8.5141    0.6265   18.2291 C.3     1  UNL1        0.1054
      9 C           5.1180   -1.4844   17.8675 C.2     1  UNL1        0.2294
     10 O           4.2747   -0.9465   16.7496 O.2     1  UNL1       -0.2745
     11 N           4.7744   -2.6477   18.7501 N.am    1  UNL1       -0.2839
     12 C           5.8970   -2.8357   19.7270 C.ar    1  UNL1        0.0467
     13 C           6.1087   -3.8251   20.8344 C.ar    1  UNL1        0.0144
     14 C           7.3577   -3.7673   21.6630 C.ar    1  UNL1        0.0012
     15 C           8.3951   -2.7204   21.3842 C.ar    1  UNL1       -0.0002
     16 C           8.1835   -1.7311   20.2768 C.ar    1  UNL1       -0.0026
     17 C           6.9344   -1.7887   19.4481 C.ar    1  UNL1       -0.0007
     18 H           3.9559   -3.1921   18.6974 H       1  UNL1        0.1549
     19 C           7.5694   -4.7567   22.7705 C.2     1  UNL1        0.0001
     20 C           7.1638   -4.4111   24.1727 C.2     1  UNL1        0.0027
     21 C           6.5566   -3.0521   24.3583 C.ar    1  UNL1       -0.0004
     22 C           6.4816   -2.3035   23.0606 C.ar    1  UNL1       -0.0002
     23 C           5.9047   -0.9193   23.0256 C.ar    1  UNL1       -0.0000
     24 C           5.4028   -0.2838   24.2882 C.ar    1  UNL1       -0.0002
     25 C           5.4778   -1.0324   25.5858 C.ar    1  UNL1       -0.0007
     26 C           6.0547   -2.4165   25.6209 C.ar    1  UNL1        0.0212
     27 C           6.0361   -2.9831   27.0097 C.3     1  UNL1        0.2320
     28 O           6.5147   -4.3250   27.4789 O.3     1  UNL1       -0.4706
     29 C           7.1302   -5.4318   26.6752 C.ar    1  UNL1        0.1412
     30 C           7.4680   -6.6123   27.5368 C.ar    1  UNL1        0.0665
     31 C           8.0948   -7.8311   26.9270 C.ar    1  UNL1        0.1432
     32 F           8.4326   -9.0115   27.7887 F       1  UNL1       -0.2041
     33 C           8.3837   -7.8694   25.4557 C.ar    1  UNL1        0.0298
     34 C           8.0458   -6.6890   24.5940 C.ar    1  UNL1        0.0053
     35 C           7.4191   -5.4702   25.2037 C.ar    1  UNL1        0.0341
@<TRIPOS>UNITY_ATOM_ATTR
2 1
charge 1
3 1
charge -1
@<TRIPOS>BOND
     1     1     2    1
     2     2     3    1
     3     2     4    1
     4     4     5    1
     5     5     6    1
     6     6     7    1
     7     7     8    1
     8     6     9    1
     9     9    10    2
    10     9    11   am
    11    11    12    1
    12    12    13   ar
    13    13    14   ar
    14    14    19    1
    15    19    20    2
    16    20    21    1
    17    21    22   ar
    18    22    23   ar
    19    23    24   ar
    20    24    25   ar
    21    25    26   ar
    22    26    27    1
    23    27    28    1
    24    28    29    1
    25    29    30   ar
    26    30    31   ar
    27    31    32    1
    28    31    33   ar
    29    33    34   ar
    30    34    35   ar
    31    14    15   ar
    32    15    16   ar
    33    16    17   ar
    34     8     2    1
    35    17    12   ar
    36    17     6    1
    37    35    20    1
    38    26    21   ar
    39    35    29   ar
    40    11    18    1
@<TRIPOS>MOLECULE
*****
 35 40 0 0 0
SMALL
GASTEIGER

@<TRIPOS>ATOM
      1 C          -4.7720    4.3434   26.2929 C.3     1  UNL1        0.1661
      2 N          -3.5860    5.1477   25.8500 N.3     1  UNL1        0.2624
      3 O          -4.5881    6.2468   26.0444 O.co2   1  UNL1       -0.7718
      4 C          -2.7479    6.3338   25.4745 C.3     1  UNL1        0.1054
      5 C          -1.3197    6.1414   25.0586 C.3     1  UNL1        0.0737
      6 C          -0.7294    4.7630   25.0180 C.3     1  UNL1        0.1003
      7 C          -1.5674    3.5769   25.3934 C.3     1  UNL1        0.0737
      8 C          -2.9957    3.7693   25.8094 C.3     1  UNL1        0.1054
      9 C           0.2258    5.8478   24.6171 C.2     1  UNL1        0.2294
     10 O          -0.0795    7.3154   24.5617 O.2     1  UNL1       -0.2745
     11 N           1.5400    5.2073   24.2812 N.am    1  UNL1       -0.2839
     12 C           1.3969    3.7268   24.4745 C.ar    1  UNL1        0.0467
     13 C           2.3626    2.5931   24.2947 C.ar    1  UNL1        0.0144
     14 C           1.9257    1.1849   24.5703 C.ar    1  UNL1        0.0012
     15 C           0.5231    0.9102   25.0257 C.ar    1  UNL1       -0.0002
     16 C          -0.4426    2.0439   25.2055 C.ar    1  UNL1       -0.0026
     17 C          -0.0057    3.4521   24.9299 C.ar    1  UNL1       -0.0007
     18 H           2.3536    5.6763   23.9857 H       1  UNL1        0.1549
     19 C           2.8913    0.0512   24.3906 C.2     1  UNL1        0.0001
     20 C           2.9979   -0.6401   23.0636 C.2     1  UNL1        0.0027
     21 C           2.0949   -0.1200   21.9846 C.ar    1  UNL1       -0.0004
     22 C           1.2502    1.0172   22.4776 C.ar    1  UNL1       -0.0002
     23 C           0.2750    1.6829   21.5527 C.ar    1  UNL1       -0.0000
     24 C           0.1444    1.2116   20.1347 C.ar    1  UNL1       -0.0002
     25 C           0.9892    0.0744   19.6416 C.ar    1  UNL1       -0.0007
     26 C           1.9644   -0.5914   20.5666 C.ar    1  UNL1        0.0212
     27 C           2.7046   -1.6992   19.8774 C.3     1  UNL1        0.2320
     28 O           3.7581   -2.6093   20.4360 O.3     1  UNL1       -0.4706
     29 C           4.3316   -2.6362   21.8218 C.ar    1  UNL1        0.1412
     30 C           5.3697   -3.7095   21.9644 C.ar    1  UNL1        0.0665
     31 C           6.0695   -3.9064   23.2765 C.ar    1  UNL1        0.1432
     32 F           7.1076   -4.9797   23.4192 F       1  UNL1       -0.2041
     33 C           5.7312   -3.0301   24.4459 C.ar    1  UNL1        0.0298
     34 C           4.6931   -1.9568   24.3032 C.ar    1  UNL1        0.0053
     35 C           3.9933   -1.7598   22.9912 C.ar    1  UNL1        0.0341
@<TRIPOS>UNITY_ATOM_ATTR
2 1
charge 1
3 1
charge -1
@<TRIPOS>BOND
     1     1     2    1
     2     2     3    1
     3     2     4    1
     4     4     5    1
     5     5     6    1
     6     6     7    1
     7     7     8    1
     8     6     9    1
     9     9    10    2
    10     9    11   am
    11    11    12    1
    12    12    13   ar
    13    13    14   ar
    14    14    19    1
    15    19    20    2
    16    20    21    1
    17    21    22   ar
    18    22    23   ar
    19    23    24   ar
    20    24    25   ar
    21    25    26   ar
    22    26    27    1
    23    27    28    1
    24    28    29    1
    25    29    30   ar
    26    30    31   ar
    27    31    32    1
    28    31    33   ar
    29    33    34   ar
    30    34    35   ar
    31    14    15   ar
    32    15    16   ar
    33    16    17   ar
    34     8     2    1
    35    17    12   ar
    36    17     6    1
    37    35    20    1
    38    26    21   ar
    39    35    29   ar
    40    11    18    1
@<TRIPOS>MOLECULE
*****
 35 40 0 0 0
SMALL
GASTEIGER

@<TRIPOS>ATOM
      1 C           3.9607   -1.6612   17.9822 C.3     1  UNL1        0.1661
      2 N           5.3799   -1.3231   18.3306 N.3     1  UNL1        0.2624
      3 O           5.3809   -0.9782   16.8708 O.co2   1  UNL1       -0.7718
      4 C           6.7995   -0.8652   18.1721 C.3     1  UNL1        0.1054
      5 C           7.7253   -0.8697   19.3522 C.3     1  UNL1        0.0737
      6 C           7.2315   -1.3320   20.6911 C.3     1  UNL1        0.1003
      7 C           5.8119   -1.7899   20.8497 C.3     1  UNL1        0.0737
      8 C           4.8862   -1.7854   19.6694 C.3     1  UNL1        0.1054
      9 C           8.6694   -0.9048   20.6854 C.2     1  UNL1        0.2294
     10 O           9.4339   -0.3982   19.4984 O.2     1  UNL1       -0.2745
     11 N           9.2085   -1.0733   22.0750 N.am    1  UNL1       -0.2839
     12 C           8.1038   -1.6045   22.9395 C.ar    1  UNL1        0.0467
     13 C           8.0527   -1.9634   24.3951 C.ar    1  UNL1        0.0144
     14 C           6.7796   -2.4821   24.9952 C.ar    1  UNL1        0.0012
     15 C           5.5578   -2.6421   24.1400 C.ar    1  UNL1       -0.0002
     16 C           5.6089   -2.2832   22.6844 C.ar    1  UNL1       -0.0026
     17 C           6.8819   -1.7645   22.0842 C.ar    1  UNL1       -0.0007
     18 H          10.1262   -0.8707   22.3682 H       1  UNL1        0.1549
     19 C           6.7284   -2.8410   26.4508 C.2     1  UNL1        0.0001
     20 C           7.1249   -4.2166   26.8987 C.2     1  UNL1        0.0027
     21 C           7.5566   -5.1556   25.8115 C.ar    1  UNL1       -0.0004
     22 C           7.4981   -4.4985   24.4644 C.ar    1  UNL1       -0.0002
     23 C           7.8903   -5.2670   23.2375 C.ar    1  UNL1       -0.0000
     24 C           8.3410   -6.6926   23.3575 C.ar    1  UNL1       -0.0002
     25 C           8.3995   -7.3498   24.7046 C.ar    1  UNL1       -0.0007
     26 C           8.0073   -6.5813   25.9316 C.ar    1  UNL1        0.0212
     27 C           8.1376   -7.4199   27.1685 C.3     1  UNL1        0.2320
     28 O           7.8495   -7.0400   28.5907 O.3     1  UNL1       -0.4706
     29 C           7.3599   -5.7277   29.1273 C.ar    1  UNL1        0.1412
     30 C           7.2014   -5.7701   30.6183 C.ar    1  UNL1        0.0665
     31 C           6.7205   -4.5559   31.3563 C.ar    1  UNL1        0.1432
     32 F           6.5620   -4.5984   32.8473 F       1  UNL1       -0.2041
     33 C           6.3980   -3.2994   30.6033 C.ar    1  UNL1        0.0298
     34 C           6.5564   -3.2570   29.1123 C.ar    1  UNL1        0.0053
     35 C           7.0374   -4.4710   28.3743 C.ar    1  UNL1        0.0341
@<TRIPOS>UNITY_ATOM_ATTR
2 1
charge 1
3 1
charge -1
@<TRIPOS>BOND
     1     1     2    1
     2     2     3    1
     3     2     4    1
     4     4     5    1
     5     5     6    1
     6     6     7    1
     7     7     8    1
     8     6     9    1
     9     9    10    2
    10     9    11   am
    11    11    12    1
    12    12    13   ar
    13    13    14   ar
    14    14    19    1
    15    19    20    2
    16    20    21    1
    17    21    22   ar
    18    22    23   ar
    19    23    24   ar
    20    24    25   ar
    21    25    26   ar
    22    26    27    1
    23    27    28    1
    24    28    29    1
    25    29    30   ar
    26    30    31   ar
    27    31    32    1
    28    31    33   ar
    29    33    34   ar
    30    34    35   ar
    31    14    15   ar
    32    15    16   ar
    33    16    17   ar
    34     8     2    1
    35    17    12   ar
    36    17     6    1
    37    35    20    1
    38    26    21   ar
    39    35    29   ar
    40    11    18    1
@<TRIPOS>MOLECULE
*****
 35 40 0 0 0
SMALL
GASTEIGER

@<TRIPOS>ATOM
      1 C           4.7291    4.3724   31.5529 C.3     1  UNL1        0.1661
      2 N           4.1639    2.9920   31.3952 N.3     1  UNL1        0.2624
      3 O           5.2953    2.7042   32.3371 O.co2   1  UNL1       -0.7718
      4 C           3.9917    1.5116   31.5646 C.3     1  UNL1        0.1054
      5 C           2.8843    0.7984   30.8469 C.3     1  UNL1        0.0737
      6 C           1.9492    1.5656   29.9598 C.3     1  UNL1        0.1003
      7 C           2.1214    3.0460   29.7904 C.3     1  UNL1        0.0737
      8 C           3.2288    3.7592   30.5081 C.3     1  UNL1        0.1054
      9 C           1.6546    0.0966   30.0314 C.2     1  UNL1        0.2294
     10 O           2.4158   -0.9172   30.8333 O.2     1  UNL1       -0.2745
     11 N           0.4653   -0.1808   29.1603 N.am    1  UNL1       -0.2839
     12 C           0.0249    1.1169   28.5504 C.ar    1  UNL1        0.0467
     13 C          -1.0928    1.4551   27.6089 C.ar    1  UNL1        0.0144
     14 C          -1.2933    2.8728   27.1615 C.ar    1  UNL1        0.0012
     15 C          -0.3763    3.9521   27.6556 C.ar    1  UNL1       -0.0002
     16 C           0.7414    3.6138   28.5971 C.ar    1  UNL1       -0.0026
     17 C           0.9420    2.1962   29.0445 C.ar    1  UNL1       -0.0007
     18 H           0.0473   -1.0601   29.0146 H       1  UNL1        0.1549
     19 C          -2.4110    3.2111   26.2200 C.2     1  UNL1        0.0001
     20 C          -2.1805    3.1747   24.7383 C.2     1  UNL1        0.0027
     21 C          -0.7977    2.7880   24.3041 C.ar    1  UNL1       -0.0004
     22 C           0.0891    2.5110   25.4817 C.ar    1  UNL1       -0.0002
     23 C           1.5174    2.1069   25.2663 C.ar    1  UNL1       -0.0000
     24 C           2.0590    1.9798   23.8732 C.ar    1  UNL1       -0.0002
     25 C           1.1722    2.2568   22.6956 C.ar    1  UNL1       -0.0007
     26 C          -0.2562    2.6609   22.9111 C.ar    1  UNL1        0.0212
     27 C          -0.9636    2.8892   21.6082 C.3     1  UNL1        0.2320
     28 O          -2.3873    3.3009   21.3765 O.3     1  UNL1       -0.4706
     29 C          -3.4552    3.5860   22.3906 C.ar    1  UNL1        0.1412
     30 C          -4.7476    3.9687   21.7325 C.ar    1  UNL1        0.0665
     31 C          -5.9481    4.2953   22.5706 C.ar    1  UNL1        0.1432
     32 F          -7.2406    4.6779   21.9125 F       1  UNL1       -0.2041
     33 C          -5.8561    4.2391   24.0667 C.ar    1  UNL1        0.0298
     34 C          -4.5636    3.8564   24.7247 C.ar    1  UNL1        0.0053
     35 C          -3.3632    3.5299   23.8868 C.ar    1  UNL1        0.0341
@<TRIPOS>UNITY_ATOM_ATTR
2 1
charge 1
3 1
charge -1
@<TRIPOS>BOND
     1     1     2    1
     2     2     3    1
     3     2     4    1
     4     4     5    1
     5     5     6    1
     6     6     7    1
     7     7     8    1
     8     6     9    1
     9     9    10    2
    10     9    11   am
    11    11    12    1
    12    12    13   ar
    13    13    14   ar
    14    14    19    1
    15    19    20    2
    16    20    21    1
    17    21    22   ar
    18    22    23   ar
    19    23    24   ar
    20    24    25   ar
    21    25    26   ar
    22    26    27    1
    23    27    28    1
    24    28    29    1
    25    29    30   ar
    26    30    31   ar
    27    31    32    1
    28    31    33   ar
    29    33    34   ar
    30    34    35   ar
    31    14    15   ar
    32    15    16   ar
    33    16    17   ar
    34     8     2    1
    35    17    12   ar
    36    17     6    1
    37    35    20    1
    38    26    21   ar
    39    35    29   ar
    40    11    18    1
@<TRIPOS>MOLECULE
*****
 35 40 0 0 0
SMALL
GASTEIGER

@<TRIPOS>ATOM
      1 C          -3.5634    3.7279   26.0057 C.3     1  UNL1        0.1661
      2 N          -4.0922    3.6488   24.6043 N.3     1  UNL1        0.2624
      3 O          -5.3780    3.5703   25.3728 O.co2   1  UNL1       -0.7718
      4 C          -5.0677    3.5424   23.4697 C.3     1  UNL1        0.1054
      5 C          -4.5736    3.5419   22.0535 C.3     1  UNL1        0.0737
      6 C          -3.1041    3.6479   21.7717 C.3     1  UNL1        0.1003
      7 C          -2.1286    3.7543   22.9062 C.3     1  UNL1        0.0737
      8 C          -2.6227    3.7547   24.3225 C.3     1  UNL1        0.1054
      9 C          -3.9557    3.5484   20.5409 C.2     1  UNL1        0.2294
     10 O          -5.4509    3.4319   20.5103 O.2     1  UNL1       -0.2745
     11 N          -3.0497    3.5859   19.3460 N.am    1  UNL1       -0.2839
     12 C          -1.6381    3.7085   19.8384 C.ar    1  UNL1        0.0467
     13 C          -0.3265    3.7902   19.1152 C.ar    1  UNL1        0.0144
     14 C           0.9515    3.9102   19.8913 C.ar    1  UNL1        0.0012
     15 C           0.9180    3.9485   21.3905 C.ar    1  UNL1       -0.0002
     16 C          -0.3937    3.8668   22.1136 C.ar    1  UNL1       -0.0026
     17 C          -1.6718    3.7468   21.3375 C.ar    1  UNL1       -0.0007
     18 H          -3.3319    3.5383   18.4040 H       1  UNL1        0.1549
     19 C           2.2633    3.9919   19.1683 C.2     1  UNL1        0.0001
     20 C           3.0420    2.7418   18.8836 C.2     1  UNL1        0.0027
     21 C           2.4202    1.4642   19.3643 C.ar    1  UNL1       -0.0004
     22 C           1.1099    1.7162   20.0495 C.ar    1  UNL1       -0.0002
     23 C           0.3217    0.5679   20.6063 C.ar    1  UNL1       -0.0000
     24 C           0.8439   -0.8325   20.4780 C.ar    1  UNL1       -0.0002
     25 C           2.1542   -1.0845   19.7929 C.ar    1  UNL1       -0.0007
     26 C           2.9424    0.0638   19.2360 C.ar    1  UNL1        0.0212
     27 C           4.2152   -0.4046   18.5954 C.3     1  UNL1        0.2320
     28 O           5.2803    0.4114   17.9248 O.3     1  UNL1       -0.4706
     29 C           5.3355    1.8977   17.7293 C.ar    1  UNL1        0.1412
     30 C           6.5828    2.3090   17.0046 C.ar    1  UNL1        0.0665
     31 C           6.8339    3.7576   16.7067 C.ar    1  UNL1        0.1432
     32 F           8.0811    4.1690   15.9820 F       1  UNL1       -0.2041
     33 C           5.8377    4.7947   17.1334 C.ar    1  UNL1        0.0298
     34 C           4.5905    4.3833   17.8580 C.ar    1  UNL1        0.0053
     35 C           4.3394    2.9348   18.1560 C.ar    1  UNL1        0.0341
@<TRIPOS>UNITY_ATOM_ATTR
2 1
charge 1
3 1
charge -1
@<TRIPOS>BOND
     1     1     2    1
     2     2     3    1
     3     2     4    1
     4     4     5    1
     5     5     6    1
     6     6     7    1
     7     7     8    1
     8     6     9    1
     9     9    10    2
    10     9    11   am
    11    11    12    1
    12    12    13   ar
    13    13    14   ar
    14    14    19    1
    15    19    20    2
    16    20    21    1
    17    21    22   ar
    18    22    23   ar
    19    23    24   ar
    20    24    25   ar
    21    25    26   ar
    22    26    27    1
    23    27    28    1
    24    28    29    1
    25    29    30   ar
    26    30    31   ar
    27    31    32    1
    28    31    33   ar
    29    33    34   ar
    30    34    35   ar
    31    14    15   ar
    32    15    16   ar
    33    16    17   ar
    34     8     2    1
    35    17    12   ar
    36    17     6    1
    37    35    20    1
    38    26    21   ar
    39    35    29   ar
    40    11    18    1
