@<TRIPOS>MOLECULE
*****
 33 37 0 0 0
SMALL
GASTEIGER

@<TRIPOS>ATOM
      1 C          -8.0457  -18.9717   20.1684 C.3     1  UNL1        0.0749
      2 C          -8.3138  -18.1065   21.3640 C.3     1  UNL1        0.0444
      3 C          -9.7244  -17.8608   21.8108 C.ar    1  UNL1       -0.0101
      4 C         -10.8670  -18.4803   21.0620 C.ar    1  UNL1       -0.0091
      5 C         -12.2777  -18.2346   21.5088 C.ar    1  UNL1       -0.0032
      6 C         -12.5457  -17.3694   22.7044 C.ar    1  UNL1        0.0010
      7 C         -11.4032  -16.7499   23.4532 C.ar    1  UNL1        0.0142
      8 C          -9.9925  -16.9956   23.0064 C.ar    1  UNL1        0.0436
      9 C         -10.5989  -19.3455   19.8664 C.3     1  UNL1        0.0954
     10 N          -9.1883  -19.5912   19.4196 N.3     1  UNL1       -0.2934
     11 H          -9.1227  -19.2612   18.4567 H       1  UNL1        0.1236
     12 N          -8.8499  -16.3760   23.7552 N.pl3   1  UNL1       -0.3050
     13 C          -7.7718  -15.6471   23.0094 C.3     1  UNL1        0.1079
     14 C          -6.6292  -15.0276   23.7582 C.3     1  UNL1        0.0902
     15 N          -6.5648  -15.1370   25.2528 N.3     1  UNL1       -0.2968
     16 C          -7.6429  -15.8659   25.9986 C.3     1  UNL1        0.0604
     17 C          -8.4177  -16.4502   27.1424 C.3     1  UNL1        0.0175
     18 C          -6.7694  -15.4493   27.1446 C.3     1  UNL1        0.0175
     19 C          -8.7855  -16.4855   25.2498 C.3     1  UNL1        0.1051
     20 H          -6.5470  -14.1845   25.6173 H       1  UNL1        0.1233
     21 C          -6.6350  -19.2175   19.7215 C.3     1  UNL1        0.0886
     22 C          -5.6444  -21.3427   20.8405 C.3     1  UNL1        0.0899
     23 N          -5.6516  -19.8538   20.6584 N.3     1  UNL1       -0.2667
     24 C          -4.6752  -19.0012   21.4134 C.3     1  UNL1        0.0978
     25 C          -4.9357  -18.6550   22.8494 C.3     1  UNL1        0.0224
     26 C          -3.9593  -17.8024   23.6043 C.3     1  UNL1        0.0065
     27 C          -2.7225  -17.2961   22.9232 C.3     1  UNL1        0.0277
     28 C          -2.4620  -17.6424   21.4871 C.ar    1  UNL1       -0.0073
     29 C          -1.2252  -17.1361   20.8060 C.ar    1  UNL1       -0.0015
     30 C          -0.9647  -17.4824   19.3700 C.ar    1  UNL1        0.0203
     31 C          -1.9411  -18.3350   18.6151 C.ar    1  UNL1        0.0985
     32 N          -3.1779  -18.8412   19.2962 N.ar    1  UNL1       -0.2471
     33 C          -3.4383  -18.4950   20.7322 C.ar    1  UNL1        0.0695
@<TRIPOS>BOND
     1    22    23    1
     2    23    21    1
     3     1    21    1
     4     1     2    1
     5     2     3    1
     6     3     4   ar
     7     4     5   ar
     8     5     6   ar
     9     6     7   ar
    10     7     8   ar
    11     8    12    1
    12    12    13    1
    13    13    14    1
    14    14    15    1
    15    15    16    1
    16    16    17    1
    17    16    18    1
    18    16    19    1
    19     4     9    1
    20     9    10    1
    21    24    23    1
    22    24    25    1
    23    25    26    1
    24    26    27    1
    25    27    28    1
    26    28    29   ar
    27    29    30   ar
    28    30    31   ar
    29    31    32   ar
    30    32    33   ar
    31    10     1    1
    32    33    24    1
    33     8     3   ar
    34    19    12    1
    35    33    28   ar
    36    15    20    1
    37    10    11    1
@<TRIPOS>MOLECULE
*****
 33 37 0 0 0
SMALL
GASTEIGER

@<TRIPOS>ATOM
      1 C          -7.0523  -19.8782   21.2319 C.3     1  UNL1        0.0749
      2 C          -6.4661  -18.8262   22.1260 C.3     1  UNL1        0.0444
      3 C          -4.9865  -18.5794   22.1237 C.ar    1  UNL1       -0.0101
      4 C          -4.0932  -19.3846   21.2273 C.ar    1  UNL1       -0.0091
      5 C          -2.6136  -19.1378   21.2250 C.ar    1  UNL1       -0.0032
      6 C          -2.0274  -18.0857   22.1191 C.ar    1  UNL1        0.0010
      7 C          -2.9207  -17.2805   23.0155 C.ar    1  UNL1        0.0142
      8 C          -4.4002  -17.5273   23.0178 C.ar    1  UNL1        0.0436
      9 C          -4.6795  -20.4367   20.3331 C.3     1  UNL1        0.0954
     10 N          -6.1590  -20.6835   20.3355 N.3     1  UNL1       -0.2934
     11 H          -6.2938  -21.6625   20.5879 H       1  UNL1        0.1236
     12 N          -5.2935  -16.7220   23.9142 N.pl3   1  UNL1       -0.3050
     13 C          -4.7284  -16.0550   25.1332 C.3     1  UNL1        0.1079
     14 C          -5.6217  -15.2498   26.0297 C.3     1  UNL1        0.0902
     15 N          -7.0801  -15.1115   25.7071 N.3     1  UNL1       -0.2968
     16 C          -7.6452  -15.7785   24.4882 C.3     1  UNL1        0.0604
     17 C          -8.6405  -16.2189   23.4561 C.3     1  UNL1        0.0175
     18 C          -8.8841  -15.1262   25.0262 C.3     1  UNL1        0.0175
     19 C          -6.7519  -16.5837   23.5918 C.3     1  UNL1        0.1051
     20 H          -7.2668  -14.1135   25.6099 H       1  UNL1        0.1233
     21 C          -8.5319  -20.1251   21.2342 C.3     1  UNL1        0.0886
     22 C          -9.2252  -19.9243   18.7384 C.3     1  UNL1        0.0899
     23 N          -9.3958  -19.5140   20.1711 N.3     1  UNL1       -0.2667
     24 C         -10.4304  -18.4927   20.5407 C.3     1  UNL1        0.0978
     25 C         -10.8141  -17.4249   19.5596 C.3     1  UNL1        0.0224
     26 C         -11.8487  -16.4036   19.9292 C.3     1  UNL1        0.0065
     27 C         -12.4996  -16.4501   21.2798 C.3     1  UNL1        0.0277
     28 C         -12.1159  -17.5180   22.2609 C.ar    1  UNL1       -0.0073
     29 C         -12.7668  -17.5645   23.6115 C.ar    1  UNL1       -0.0015
     30 C         -12.3831  -18.6324   24.5925 C.ar    1  UNL1        0.0203
     31 C         -11.3485  -19.6537   24.2229 C.ar    1  UNL1        0.0985
     32 N         -10.6976  -19.6071   22.8723 N.ar    1  UNL1       -0.2471
     33 C         -11.0813  -18.5393   21.8913 C.ar    1  UNL1        0.0695
@<TRIPOS>BOND
     1    22    23    1
     2    23    21    1
     3     1    21    1
     4     1     2    1
     5     2     3    1
     6     3     4   ar
     7     4     5   ar
     8     5     6   ar
     9     6     7   ar
    10     7     8   ar
    11     8    12    1
    12    12    13    1
    13    13    14    1
    14    14    15    1
    15    15    16    1
    16    16    17    1
    17    16    18    1
    18    16    19    1
    19     4     9    1
    20     9    10    1
    21    24    23    1
    22    24    25    1
    23    25    26    1
    24    26    27    1
    25    27    28    1
    26    28    29   ar
    27    29    30   ar
    28    30    31   ar
    29    31    32   ar
    30    32    33   ar
    31    10     1    1
    32    33    24    1
    33     8     3   ar
    34    19    12    1
    35    33    28   ar
    36    15    20    1
    37    10    11    1
@<TRIPOS>MOLECULE
*****
 33 37 0 0 0
SMALL
GASTEIGER

@<TRIPOS>ATOM
      1 C          -6.0674  -19.9981   21.2847 C.3     1  UNL1        0.0749
      2 C          -5.7227  -18.8109   22.1342 C.3     1  UNL1        0.0444
      3 C          -4.3781  -18.1593   22.0022 C.ar    1  UNL1       -0.0101
      4 C          -3.3782  -18.6950   21.0207 C.ar    1  UNL1       -0.0091
      5 C          -2.0335  -18.0433   20.8887 C.ar    1  UNL1       -0.0032
      6 C          -1.6888  -16.8561   21.7382 C.ar    1  UNL1        0.0010
      7 C          -2.6887  -16.3204   22.7196 C.ar    1  UNL1        0.0142
      8 C          -4.0333  -16.9720   22.8516 C.ar    1  UNL1        0.0436
      9 C          -3.7229  -19.8822   20.1713 C.3     1  UNL1        0.0954
     10 N          -5.0675  -20.5338   20.3033 N.3     1  UNL1       -0.2934
     11 H          -4.8993  -21.5075   20.5561 H       1  UNL1        0.1236
     12 N          -5.0332  -16.4363   23.8331 N.pl3   1  UNL1       -0.3050
     13 C          -4.5884  -16.0140   25.2020 C.3     1  UNL1        0.1079
     14 C          -5.5883  -15.4783   26.1835 C.3     1  UNL1        0.0902
     15 N          -7.0330  -15.3650   25.7960 N.3     1  UNL1       -0.2968
     16 C          -7.4777  -15.7873   24.4272 C.3     1  UNL1        0.0604
     17 C          -8.3784  -16.0560   23.2581 C.3     1  UNL1        0.0175
     18 C          -8.7904  -15.3450   25.0026 C.3     1  UNL1        0.0175
     19 C          -6.4778  -16.3230   23.4457 C.3     1  UNL1        0.1051
     20 H          -7.2893  -14.3831   25.8990 H       1  UNL1        0.1233
     21 C          -7.4120  -20.6497   21.4167 C.3     1  UNL1        0.0886
     22 C          -8.8808  -19.6473   19.5225 C.3     1  UNL1        0.0899
     23 N          -8.6462  -19.9181   20.9792 N.3     1  UNL1       -0.2667
     24 C          -9.6458  -19.4572   21.9982 C.3     1  UNL1        0.0978
     25 C          -9.6999  -20.1134   23.3459 C.3     1  UNL1        0.0224
     26 C         -10.6995  -19.6526   24.3649 C.3     1  UNL1        0.0065
     27 C         -11.6450  -18.5355   24.0362 C.3     1  UNL1        0.0277
     28 C         -11.5909  -17.8792   22.6884 C.ar    1  UNL1       -0.0073
     29 C         -12.5364  -16.7621   22.3597 C.ar    1  UNL1       -0.0015
     30 C         -12.4823  -16.1059   21.0119 C.ar    1  UNL1        0.0203
     31 C         -11.4827  -16.5667   19.9929 C.ar    1  UNL1        0.0985
     32 N         -10.5372  -17.6838   20.3217 N.ar    1  UNL1       -0.2471
     33 C         -10.5913  -18.3401   21.6694 C.ar    1  UNL1        0.0695
@<TRIPOS>BOND
     1    22    23    1
     2    23    21    1
     3     1    21    1
     4     1     2    1
     5     2     3    1
     6     3     4   ar
     7     4     5   ar
     8     5     6   ar
     9     6     7   ar
    10     7     8   ar
    11     8    12    1
    12    12    13    1
    13    13    14    1
    14    14    15    1
    15    15    16    1
    16    16    17    1
    17    16    18    1
    18    16    19    1
    19     4     9    1
    20     9    10    1
    21    24    23    1
    22    24    25    1
    23    25    26    1
    24    26    27    1
    25    27    28    1
    26    28    29   ar
    27    29    30   ar
    28    30    31   ar
    29    31    32   ar
    30    32    33   ar
    31    10     1    1
    32    33    24    1
    33     8     3   ar
    34    19    12    1
    35    33    28   ar
    36    15    20    1
    37    10    11    1
@<TRIPOS>MOLECULE
*****
 33 37 0 0 0
SMALL
GASTEIGER

@<TRIPOS>ATOM
      1 C          -7.3031  -19.7088   21.3281 C.3     1  UNL1        0.0749
      2 C          -6.6279  -18.7073   22.2174 C.3     1  UNL1        0.0444
      3 C          -5.1364  -18.5533   22.1764 C.ar    1  UNL1       -0.0101
      4 C          -4.3201  -19.4009   21.2462 C.ar    1  UNL1       -0.0091
      5 C          -2.8286  -19.2469   21.2053 C.ar    1  UNL1       -0.0032
      6 C          -2.1533  -18.2454   22.0946 C.ar    1  UNL1        0.0010
      7 C          -2.9696  -17.3978   23.0248 C.ar    1  UNL1        0.0142
      8 C          -4.4611  -17.5518   23.0658 C.ar    1  UNL1        0.0436
      9 C          -4.9954  -20.4025   20.3569 C.3     1  UNL1        0.0954
     10 N          -6.4869  -20.5564   20.3978 N.3     1  UNL1       -0.2934
     11 H          -6.6760  -21.5284   20.6427 H       1  UNL1        0.1236
     12 N          -5.2773  -16.7042   23.9960 N.pl3   1  UNL1       -0.3050
     13 C          -4.6211  -16.0225   25.1601 C.3     1  UNL1        0.1079
     14 C          -5.4374  -15.1749   26.0903 C.3     1  UNL1        0.0902
     15 N          -6.9098  -15.0090   25.8565 N.3     1  UNL1       -0.2968
     16 C          -7.5659  -15.6906   24.6926 C.3     1  UNL1        0.0604
     17 C          -8.6343  -16.1311   23.7363 C.3     1  UNL1        0.0175
     18 C          -8.7531  -14.9960   25.2907 C.3     1  UNL1        0.0175
     19 C          -6.7496  -16.5382   23.7623 C.3     1  UNL1        0.1051
     20 H          -7.0796  -14.0093   25.7462 H       1  UNL1        0.1233
     21 C          -8.7947  -19.8628   21.3690 C.3     1  UNL1        0.0886
     22 C          -8.9946  -20.6886   23.8242 C.3     1  UNL1        0.0899
     23 N          -9.5130  -19.8608   22.6858 N.3     1  UNL1       -0.2667
     24 C         -10.7498  -19.0310   22.8641 C.3     1  UNL1        0.0978
     25 C         -11.5998  -19.2050   24.0877 C.3     1  UNL1        0.0224
     26 C         -12.8365  -18.3752   24.2661 C.3     1  UNL1        0.0065
     27 C         -13.2234  -17.3713   23.2208 C.3     1  UNL1        0.0277
     28 C         -12.3734  -17.1973   21.9971 C.ar    1  UNL1       -0.0073
     29 C         -12.7602  -16.1934   20.9519 C.ar    1  UNL1       -0.0015
     30 C         -11.9103  -16.0194   19.7283 C.ar    1  UNL1        0.0203
     31 C         -10.6735  -16.8492   19.5499 C.ar    1  UNL1        0.0985
     32 N         -10.2867  -17.8530   20.5952 N.ar    1  UNL1       -0.2471
     33 C         -11.1366  -18.0271   21.8188 C.ar    1  UNL1        0.0695
@<TRIPOS>BOND
     1    22    23    1
     2    23    21    1
     3     1    21    1
     4     1     2    1
     5     2     3    1
     6     3     4   ar
     7     4     5   ar
     8     5     6   ar
     9     6     7   ar
    10     7     8   ar
    11     8    12    1
    12    12    13    1
    13    13    14    1
    14    14    15    1
    15    15    16    1
    16    16    17    1
    17    16    18    1
    18    16    19    1
    19     4     9    1
    20     9    10    1
    21    24    23    1
    22    24    25    1
    23    25    26    1
    24    26    27    1
    25    27    28    1
    26    28    29   ar
    27    29    30   ar
    28    30    31   ar
    29    31    32   ar
    30    32    33   ar
    31    10     1    1
    32    33    24    1
    33     8     3   ar
    34    19    12    1
    35    33    28   ar
    36    15    20    1
    37    10    11    1
@<TRIPOS>MOLECULE
*****
 33 37 0 0 0
SMALL
GASTEIGER

@<TRIPOS>ATOM
      1 C          -8.7526  -15.7999   22.5755 C.3     1  UNL1        0.0749
      2 C          -7.3268  -16.2231   22.7701 C.3     1  UNL1        0.0444
      3 C          -6.6974  -16.1357   24.1288 C.ar    1  UNL1       -0.0101
      4 C          -7.4937  -15.6250   25.2929 C.ar    1  UNL1       -0.0091
      5 C          -6.8642  -15.5376   26.6517 C.ar    1  UNL1       -0.0032
      6 C          -5.4384  -15.9608   26.8463 C.ar    1  UNL1        0.0010
      7 C          -4.6421  -16.4715   25.6822 C.ar    1  UNL1        0.0142
      8 C          -5.2715  -16.5589   24.3235 C.ar    1  UNL1        0.0436
      9 C          -8.9195  -15.2018   25.0983 C.3     1  UNL1        0.0954
     10 N          -9.5490  -15.2892   23.7396 N.3     1  UNL1       -0.2934
     11 H          -9.8557  -14.3474   23.4960 H       1  UNL1        0.1236
     12 N          -4.4751  -17.0696   23.1595 N.pl3   1  UNL1       -0.3050
     13 C          -3.2634  -16.3187   22.6926 C.3     1  UNL1        0.1079
     14 C          -2.4671  -16.8293   21.5285 C.3     1  UNL1        0.0902
     15 N          -2.8824  -18.0909   20.8314 N.3     1  UNL1       -0.2968
     16 C          -4.0941  -18.8417   21.2983 C.3     1  UNL1        0.0604
     17 C          -5.1575  -19.8973   21.3695 C.3     1  UNL1        0.0175
     18 C          -3.6670  -19.7189   20.1590 C.3     1  UNL1        0.0175
     19 C          -4.8905  -18.3311   22.4623 C.3     1  UNL1        0.1051
     20 H          -2.0943  -18.7353   20.8944 H       1  UNL1        0.1233
     21 C          -9.3821  -15.8873   21.2167 C.3     1  UNL1        0.0886
     22 C         -11.1038  -16.9873   19.6118 C.3     1  UNL1        0.0899
     23 N         -10.5771  -16.7674   20.9990 N.3     1  UNL1       -0.2667
     24 C         -11.2454  -17.4276   22.1684 C.3     1  UNL1        0.0978
     25 C         -12.5799  -16.9361   22.6453 C.3     1  UNL1        0.0224
     26 C         -13.2482  -17.5964   23.8147 C.3     1  UNL1        0.0065
     27 C         -12.5819  -18.7480   24.5072 C.3     1  UNL1        0.0277
     28 C         -11.2473  -19.2396   24.0304 C.ar    1  UNL1       -0.0073
     29 C         -10.5810  -20.3913   24.7229 C.ar    1  UNL1       -0.0015
     30 C          -9.2465  -20.8827   24.2460 C.ar    1  UNL1        0.0203
     31 C          -8.5782  -20.2225   23.0766 C.ar    1  UNL1        0.0985
     32 N          -9.2445  -19.0708   22.3841 N.ar    1  UNL1       -0.2471
     33 C         -10.5790  -18.5793   22.8610 C.ar    1  UNL1        0.0695
@<TRIPOS>BOND
     1    22    23    1
     2    23    21    1
     3     1    21    1
     4     1     2    1
     5     2     3    1
     6     3     4   ar
     7     4     5   ar
     8     5     6   ar
     9     6     7   ar
    10     7     8   ar
    11     8    12    1
    12    12    13    1
    13    13    14    1
    14    14    15    1
    15    15    16    1
    16    16    17    1
    17    16    18    1
    18    16    19    1
    19     4     9    1
    20     9    10    1
    21    24    23    1
    22    24    25    1
    23    25    26    1
    24    26    27    1
    25    27    28    1
    26    28    29   ar
    27    29    30   ar
    28    30    31   ar
    29    31    32   ar
    30    32    33   ar
    31    10     1    1
    32    33    24    1
    33     8     3   ar
    34    19    12    1
    35    33    28   ar
    36    15    20    1
    37    10    11    1
@<TRIPOS>MOLECULE
*****
 33 37 0 0 0
SMALL
GASTEIGER

@<TRIPOS>ATOM
      1 C          -8.3610  -16.5015   22.1480 C.3     1  UNL1        0.0749
      2 C          -6.9276  -16.7999   22.4736 C.3     1  UNL1        0.0444
      3 C          -6.3204  -16.2721   23.7395 C.ar    1  UNL1       -0.0101
      4 C          -7.1467  -15.4457   24.6799 C.ar    1  UNL1       -0.0091
      5 C          -6.5395  -14.9178   25.9459 C.ar    1  UNL1       -0.0032
      6 C          -5.1060  -15.2163   26.2715 C.ar    1  UNL1        0.0010
      7 C          -4.2797  -16.0426   25.3311 C.ar    1  UNL1        0.0142
      8 C          -4.8869  -16.5705   24.0652 C.ar    1  UNL1        0.0436
      9 C          -8.5802  -15.1472   24.3544 C.3     1  UNL1        0.0954
     10 N          -9.1873  -15.6751   23.0884 N.3     1  UNL1       -0.2934
     11 H          -9.5152  -14.8668   22.5597 H       1  UNL1        0.1236
     12 N          -4.0605  -17.3969   23.1248 N.pl3   1  UNL1       -0.3050
     13 C          -4.3631  -18.8549   22.9439 C.3     1  UNL1        0.1079
     14 C          -3.5367  -19.6813   22.0035 C.3     1  UNL1        0.0902
     15 N          -2.4079  -19.0496   21.2440 N.3     1  UNL1       -0.2968
     16 C          -2.1054  -17.5916   21.4249 C.3     1  UNL1        0.0604
     17 C          -1.4351  -16.2600   21.2593 C.3     1  UNL1        0.0175
     18 C          -1.0463  -17.9555   20.4270 C.3     1  UNL1        0.0175
     19 C          -2.9317  -16.7652   22.3653 C.3     1  UNL1        0.1051
     20 H          -2.6056  -19.1885   20.2530 H       1  UNL1        0.1233
     21 C          -8.9682  -17.0294   20.8820 C.3     1  UNL1        0.0886
     22 C         -10.1349  -18.9654   19.6010 C.3     1  UNL1        0.0899
     23 N          -9.7125  -18.3316   20.8934 N.3     1  UNL1       -0.2667
     24 C         -10.0343  -19.0003   22.1969 C.3     1  UNL1        0.0978
     25 C          -9.0922  -20.0163   22.7714 C.3     1  UNL1        0.0224
     26 C          -9.4140  -20.6849   24.0750 C.3     1  UNL1        0.0065
     27 C         -10.6779  -20.3375   24.8041 C.3     1  UNL1        0.0277
     28 C         -11.6202  -19.3215   24.2297 C.ar    1  UNL1       -0.0073
     29 C         -12.8841  -18.9741   24.9588 C.ar    1  UNL1       -0.0015
     30 C         -13.8262  -17.9581   24.3844 C.ar    1  UNL1        0.0203
     31 C         -13.5044  -17.2894   23.0808 C.ar    1  UNL1        0.0985
     32 N         -12.2405  -17.6368   22.3516 N.ar    1  UNL1       -0.2471
     33 C         -11.2983  -18.6528   22.9261 C.ar    1  UNL1        0.0695
@<TRIPOS>BOND
     1    22    23    1
     2    23    21    1
     3     1    21    1
     4     1     2    1
     5     2     3    1
     6     3     4   ar
     7     4     5   ar
     8     5     6   ar
     9     6     7   ar
    10     7     8   ar
    11     8    12    1
    12    12    13    1
    13    13    14    1
    14    14    15    1
    15    15    16    1
    16    16    17    1
    17    16    18    1
    18    16    19    1
    19     4     9    1
    20     9    10    1
    21    24    23    1
    22    24    25    1
    23    25    26    1
    24    26    27    1
    25    27    28    1
    26    28    29   ar
    27    29    30   ar
    28    30    31   ar
    29    31    32   ar
    30    32    33   ar
    31    10     1    1
    32    33    24    1
    33     8     3   ar
    34    19    12    1
    35    33    28   ar
    36    15    20    1
    37    10    11    1
@<TRIPOS>MOLECULE
*****
 33 37 0 0 0
SMALL
GASTEIGER

@<TRIPOS>ATOM
      1 C           3.3143   -0.8894   23.8525 C.3     1  UNL1        0.0749
      2 C           3.3089   -1.0402   22.3601 C.3     1  UNL1        0.0444
      3 C           2.3137   -0.2814   21.5333 C.ar    1  UNL1       -0.0101
      4 C           1.3239    0.6281   22.1988 C.ar    1  UNL1       -0.0091
      5 C           0.3286    1.3869   21.3718 C.ar    1  UNL1       -0.0032
      6 C           0.3232    1.2361   19.8794 C.ar    1  UNL1        0.0010
      7 C           1.3130    0.3265   19.2140 C.ar    1  UNL1        0.0142
      8 C           2.3083   -0.4322   20.0408 C.ar    1  UNL1        0.0436
      9 C           1.3292    0.7789   23.6911 C.3     1  UNL1        0.0954
     10 N           2.3245    0.0202   24.5180 N.3     1  UNL1       -0.2934
     11 H           1.7893   -0.5535   25.1698 H       1  UNL1        0.1236
     12 N           3.2981   -1.3418   19.3753 N.pl3   1  UNL1       -0.3050
     13 C           4.3555   -0.7710   18.4774 C.3     1  UNL1        0.1079
     14 C           5.3454   -1.6806   17.8119 C.3     1  UNL1        0.0902
     15 N           5.2778   -3.1610   18.0443 N.3     1  UNL1       -0.2968
     16 C           4.2205   -3.7317   18.9422 C.3     1  UNL1        0.0604
     17 C           3.4090   -4.7400   19.7005 C.3     1  UNL1        0.0175
     18 C           4.9285   -4.9914   18.5401 C.3     1  UNL1        0.0175
     19 C           3.2306   -2.8221   19.6077 C.3     1  UNL1        0.1051
     20 H           6.1778   -3.4390   18.4356 H       1  UNL1        0.1233
     21 C           4.3096   -1.6481   24.6794 C.3     1  UNL1        0.0886
     22 C           6.5574   -0.3808   24.9818 C.3     1  UNL1        0.0899
     23 N           5.7764   -1.5184   24.3936 N.3     1  UNL1       -0.2667
     24 C           6.4622   -2.5263   23.5196 C.3     1  UNL1        0.0978
     25 C           6.6918   -2.2272   22.0678 C.3     1  UNL1        0.0224
     26 C           7.3777   -3.2351   21.1938 C.3     1  UNL1        0.0065
     27 C           7.8338   -4.5420   21.7716 C.3     1  UNL1        0.0277
     28 C           7.6042   -4.8411   23.2235 C.ar    1  UNL1       -0.0073
     29 C           8.0603   -6.1480   23.8012 C.ar    1  UNL1       -0.0015
     30 C           7.8307   -6.4470   25.2531 C.ar    1  UNL1        0.0203
     31 C           7.1448   -5.4392   26.1271 C.ar    1  UNL1        0.0985
     32 N           6.6887   -4.1323   25.5493 N.ar    1  UNL1       -0.2471
     33 C           6.9183   -3.8332   24.0975 C.ar    1  UNL1        0.0695
@<TRIPOS>BOND
     1    22    23    1
     2    23    21    1
     3     1    21    1
     4     1     2    1
     5     2     3    1
     6     3     4   ar
     7     4     5   ar
     8     5     6   ar
     9     6     7   ar
    10     7     8   ar
    11     8    12    1
    12    12    13    1
    13    13    14    1
    14    14    15    1
    15    15    16    1
    16    16    17    1
    17    16    18    1
    18    16    19    1
    19     4     9    1
    20     9    10    1
    21    24    23    1
    22    24    25    1
    23    25    26    1
    24    26    27    1
    25    27    28    1
    26    28    29   ar
    27    29    30   ar
    28    30    31   ar
    29    31    32   ar
    30    32    33   ar
    31    10     1    1
    32    33    24    1
    33     8     3   ar
    34    19    12    1
    35    33    28   ar
    36    15    20    1
    37    10    11    1
@<TRIPOS>MOLECULE
*****
 33 37 0 0 0
SMALL
GASTEIGER

@<TRIPOS>ATOM
      1 C          -7.9179  -15.6067   22.5667 C.3     1  UNL1        0.0749
      2 C          -6.6199  -16.3558   22.6288 C.3     1  UNL1        0.0444
      3 C          -5.8595  -16.4328   23.9195 C.ar    1  UNL1       -0.0101
      4 C          -6.3971  -15.7607   25.1480 C.ar    1  UNL1       -0.0091
      5 C          -5.6367  -15.8377   26.4387 C.ar    1  UNL1       -0.0032
      6 C          -4.3386  -16.5867   26.5008 C.ar    1  UNL1        0.0010
      7 C          -3.8010  -17.2589   25.2723 C.ar    1  UNL1        0.0142
      8 C          -4.5614  -17.1819   23.9817 C.ar    1  UNL1        0.0436
      9 C          -7.6952  -15.0116   25.0858 C.3     1  UNL1        0.0954
     10 N          -8.4556  -14.9346   23.7952 N.3     1  UNL1       -0.2934
     11 H          -8.5540  -13.9447   23.5700 H       1  UNL1        0.1236
     12 N          -4.0237  -17.8540   22.7532 N.pl3   1  UNL1       -0.3050
     13 C          -4.6298  -19.1405   22.2760 C.3     1  UNL1        0.1079
     14 C          -4.0922  -19.8126   21.0475 C.3     1  UNL1        0.0902
     15 N          -2.9484  -19.1982   20.2962 N.3     1  UNL1       -0.2968
     16 C          -2.3424  -17.9117   20.7733 C.3     1  UNL1        0.0604
     17 C          -1.4409  -16.7142   20.8308 C.3     1  UNL1        0.0175
     18 C          -1.4917  -18.1680   19.5648 C.3     1  UNL1        0.0175
     19 C          -2.8801  -17.2396   22.0018 C.3     1  UNL1        0.1051
     20 H          -3.2758  -19.0342   19.3441 H       1  UNL1        0.1233
     21 C          -8.6784  -15.5297   21.2760 C.3     1  UNL1        0.0886
     22 C         -11.2495  -15.2536   21.0244 C.3     1  UNL1        0.0899
     23 N         -10.0463  -16.1367   21.1741 N.3     1  UNL1       -0.2667
     24 C         -10.2110  -17.6269   21.2218 C.3     1  UNL1        0.0978
     25 C         -10.4049  -18.4011   19.9518 C.3     1  UNL1        0.0224
     26 C         -10.5696  -19.8913   19.9996 C.3     1  UNL1        0.0065
     27 C         -10.5405  -20.6072   21.3173 C.3     1  UNL1        0.0277
     28 C         -10.3466  -19.8330   22.5874 C.ar    1  UNL1       -0.0073
     29 C         -10.3175  -20.5490   23.9052 C.ar    1  UNL1       -0.0015
     30 C         -10.1236  -19.7748   25.1752 C.ar    1  UNL1        0.0203
     31 C          -9.9589  -18.2846   25.1274 C.ar    1  UNL1        0.0985
     32 N          -9.9880  -17.5686   23.8097 N.ar    1  UNL1       -0.2471
     33 C         -10.1819  -18.3429   22.5397 C.ar    1  UNL1        0.0695
@<TRIPOS>BOND
     1    22    23    1
     2    23    21    1
     3     1    21    1
     4     1     2    1
     5     2     3    1
     6     3     4   ar
     7     4     5   ar
     8     5     6   ar
     9     6     7   ar
    10     7     8   ar
    11     8    12    1
    12    12    13    1
    13    13    14    1
    14    14    15    1
    15    15    16    1
    16    16    17    1
    17    16    18    1
    18    16    19    1
    19     4     9    1
    20     9    10    1
    21    24    23    1
    22    24    25    1
    23    25    26    1
    24    26    27    1
    25    27    28    1
    26    28    29   ar
    27    29    30   ar
    28    30    31   ar
    29    31    32   ar
    30    32    33   ar
    31    10     1    1
    32    33    24    1
    33     8     3   ar
    34    19    12    1
    35    33    28   ar
    36    15    20    1
    37    10    11    1
@<TRIPOS>MOLECULE
*****
 33 37 0 0 0
SMALL
GASTEIGER

@<TRIPOS>ATOM
      1 C           3.2382   -0.8033   23.7676 C.3     1  UNL1        0.0749
      2 C           3.0650   -0.7613   22.2783 C.3     1  UNL1        0.0444
      3 C           2.0131    0.1183   21.6701 C.ar    1  UNL1       -0.0101
      4 C           1.1344    0.9558   22.5513 C.ar    1  UNL1       -0.0091
      5 C           0.0824    1.8354   21.9431 C.ar    1  UNL1       -0.0032
      6 C          -0.0908    1.8774   20.4538 C.ar    1  UNL1        0.0010
      7 C           0.7879    1.0400   19.5726 C.ar    1  UNL1        0.0142
      8 C           1.8398    0.1604   20.1807 C.ar    1  UNL1        0.0436
      9 C           1.3076    0.9137   24.0407 C.3     1  UNL1        0.0954
     10 N           2.3595    0.0341   24.6488 N.3     1  UNL1       -0.2934
     11 H           1.8785   -0.6070   25.2797 H       1  UNL1        0.1236
     12 N           2.7185   -0.6771   19.2995 N.pl3   1  UNL1       -0.3050
     13 C           3.1367   -0.1649   17.9530 C.3     1  UNL1        0.1079
     14 C           4.0154   -1.0024   17.0718 C.3     1  UNL1        0.0902
     15 N           4.4759   -2.3520   17.5371 N.3     1  UNL1       -0.2968
     16 C           4.0578   -2.8641   18.8835 C.3     1  UNL1        0.0604
     17 C           3.9293   -3.7772   20.0666 C.3     1  UNL1        0.0175
     18 C           4.8918   -4.0187   18.4132 C.3     1  UNL1        0.0175
     19 C           3.1791   -2.0266   19.7647 C.3     1  UNL1        0.1051
     20 H           5.4957   -2.3326   17.5331 H       1  UNL1        0.1233
     21 C           4.2901   -1.6829   24.3758 C.3     1  UNL1        0.0886
     22 C           6.4388   -0.2554   24.6847 C.3     1  UNL1        0.0899
     23 N           5.7391   -1.4352   24.0776 N.3     1  UNL1       -0.2667
     24 C           6.4885   -2.3673   23.1723 C.3     1  UNL1        0.0978
     25 C           6.9173   -3.7150   23.6721 C.3     1  UNL1        0.0224
     26 C           7.6667   -4.6471   22.7667 C.3     1  UNL1        0.0065
     27 C           7.9873   -4.2315   21.3616 C.3     1  UNL1        0.0277
     28 C           7.5585   -2.8837   20.8618 C.ar    1  UNL1       -0.0073
     29 C           7.8791   -2.4681   19.4566 C.ar    1  UNL1       -0.0015
     30 C           7.4504   -1.1204   18.9568 C.ar    1  UNL1        0.0203
     31 C           6.7010   -0.1884   19.8622 C.ar    1  UNL1        0.0985
     32 N           6.3803   -0.6040   21.2673 N.ar    1  UNL1       -0.2471
     33 C           6.8091   -1.9516   21.7671 C.ar    1  UNL1        0.0695
@<TRIPOS>BOND
     1    22    23    1
     2    23    21    1
     3     1    21    1
     4     1     2    1
     5     2     3    1
     6     3     4   ar
     7     4     5   ar
     8     5     6   ar
     9     6     7   ar
    10     7     8   ar
    11     8    12    1
    12    12    13    1
    13    13    14    1
    14    14    15    1
    15    15    16    1
    16    16    17    1
    17    16    18    1
    18    16    19    1
    19     4     9    1
    20     9    10    1
    21    24    23    1
    22    24    25    1
    23    25    26    1
    24    26    27    1
    25    27    28    1
    26    28    29   ar
    27    29    30   ar
    28    30    31   ar
    29    31    32   ar
    30    32    33   ar
    31    10     1    1
    32    33    24    1
    33     8     3   ar
    34    19    12    1
    35    33    28   ar
    36    15    20    1
    37    10    11    1
