@<TRIPOS>MOLECULE
*****
 20 21 0 0 0
SMALL
GASTEIGER

@<TRIPOS>ATOM
      1 C          -6.8732  -20.5815   22.5214 C.3     1  UNL1        0.0357
      2 C          -8.0876  -19.8008   22.1140 C.2     1  UNL1        0.0331
      3 C          -8.1427  -19.1500   20.7636 C.2     1  UNL1        0.0875
      4 N          -9.3570  -18.3694   20.3562 N.2     1  UNL1       -0.2513
      5 C         -10.5163  -18.2394   21.2993 C.2     1  UNL1        0.0661
      6 C         -11.7306  -17.4588   20.8919 C.3     1  UNL1        0.0718
      7 C         -12.8898  -17.3289   21.8349 C.2     1  UNL1       -0.0198
      8 C         -12.8347  -17.9796   23.1853 C.2     1  UNL1       -0.0040
      9 C         -11.6204  -18.7603   23.5926 C.2     1  UNL1        0.0040
     10 C         -10.4612  -18.8902   22.6496 C.2     1  UNL1        0.0525
     11 C          -9.2468  -19.6709   23.0570 C.2     1  UNL1        0.1940
     12 O          -9.1917  -20.3216   24.4074 O.2     1  UNL1       -0.2868
     13 C          -6.9834  -19.2800   19.8206 C.3     1  UNL1        0.1872
     14 O          -5.7157  -18.5217   20.0815 O.3     1  UNL1       -0.3474
     15 C          -4.3879  -19.1643   19.8097 C.3     1  UNL1        0.1428
     16 C          -3.2431  -18.9493   20.7549 C.3     1  UNL1        0.0347
     17 C          -3.4184  -19.2217   22.2195 C.3     1  UNL1        0.0343
     18 C          -3.9387  -18.1455   23.1255 C.3     1  UNL1        0.1372
     19 O          -5.2332  -17.4577   22.8069 O.3     1  UNL1       -0.3820
     20 H          -5.1350  -16.9471   21.9880 H       1  UNL1        0.2104
@<TRIPOS>BOND
     1     1     2    1
     2     2     3    2
     3     3    13    1
     4    13    14    1
     5    14    15    1
     6    15    16    1
     7    16    17    1
     8    17    18    1
     9    18    19    1
    10     3     4    1
    11     4     5    2
    12     5     6    1
    13     6     7    1
    14     7     8    2
    15     8     9    1
    16     9    10    2
    17    10    11    1
    18    11    12    2
    19    11     2    1
    20    10     5    1
    21    19    20    1
@<TRIPOS>MOLECULE
*****
 20 21 0 0 0
SMALL
GASTEIGER

@<TRIPOS>ATOM
      1 C          -7.9979  -19.4147   19.4014 C.3     1  UNL1        0.0357
      2 C          -8.7760  -19.2771   20.6765 C.2     1  UNL1        0.0331
      3 C          -8.1401  -19.6396   21.9858 C.2     1  UNL1        0.0875
      4 N          -8.9181  -19.5020   23.2609 N.2     1  UNL1       -0.2513
      5 C         -10.3319  -19.0020   23.2267 C.2     1  UNL1        0.0661
      6 C         -11.1099  -18.8645   24.5017 C.3     1  UNL1        0.0718
      7 C         -12.5237  -18.3645   24.4674 C.2     1  UNL1       -0.0198
      8 C         -13.1595  -18.0020   23.1581 C.2     1  UNL1       -0.0040
      9 C         -12.3815  -18.1396   21.8830 C.2     1  UNL1        0.0040
     10 C         -10.9678  -18.6396   21.9173 C.2     1  UNL1        0.0525
     11 C         -10.1897  -18.7771   20.6422 C.2     1  UNL1        0.1940
     12 O         -10.8255  -18.4147   19.3329 O.2     1  UNL1       -0.2868
     13 C          -6.7263  -20.1396   22.0201 C.3     1  UNL1        0.1872
     14 O          -5.6060  -19.1990   22.3520 O.3     1  UNL1       -0.3474
     15 C          -4.3235  -19.2566   21.5761 C.3     1  UNL1        0.1428
     16 C          -4.3521  -19.2269   20.0767 C.3     1  UNL1        0.0347
     17 C          -3.0683  -19.1681   19.3031 C.3     1  UNL1        0.0343
     18 C          -2.3738  -17.8540   19.1011 C.3     1  UNL1        0.1372
     19 O          -1.1001  -17.7925   18.3111 O.3     1  UNL1       -0.3820
     20 H          -0.4030  -18.2736   18.7838 H       1  UNL1        0.2104
@<TRIPOS>BOND
     1     1     2    1
     2     2     3    2
     3     3    13    1
     4    13    14    1
     5    14    15    1
     6    15    16    1
     7    16    17    1
     8    17    18    1
     9    18    19    1
    10     3     4    1
    11     4     5    2
    12     5     6    1
    13     6     7    1
    14     7     8    2
    15     8     9    1
    16     9    10    2
    17    10    11    1
    18    11    12    2
    19    11     2    1
    20    10     5    1
    21    19    20    1
@<TRIPOS>MOLECULE
*****
 20 21 0 0 0
SMALL
GASTEIGER

@<TRIPOS>ATOM
      1 C          -8.8294  -19.1298   21.2488 C.3     1  UNL1        0.0357
      2 C          -7.4445  -18.7439   21.6768 C.2     1  UNL1        0.0331
      3 C          -7.2449  -17.6064   22.6340 C.2     1  UNL1        0.0875
      4 N          -5.8601  -17.2205   23.0620 N.2     1  UNL1       -0.2513
      5 C          -4.6747  -17.9722   22.5327 C.2     1  UNL1        0.0661
      6 C          -3.2898  -17.5863   22.9607 C.3     1  UNL1        0.0718
      7 C          -2.1045  -18.3379   22.4314 C.2     1  UNL1       -0.0198
      8 C          -2.3041  -19.4753   21.4742 C.2     1  UNL1       -0.0040
      9 C          -3.6890  -19.8612   21.0462 C.2     1  UNL1        0.0040
     10 C          -4.8743  -19.1096   21.5755 C.2     1  UNL1        0.0525
     11 C          -6.2592  -19.4955   21.1475 C.2     1  UNL1        0.1940
     12 O          -6.4588  -20.6330   20.1902 O.2     1  UNL1       -0.2868
     13 C          -8.4303  -16.8548   23.1633 C.3     1  UNL1        0.1872
     14 O          -8.7050  -16.8296   24.6377 O.3     1  UNL1       -0.3474
     15 C          -8.5291  -15.5568   25.4117 C.3     1  UNL1        0.1428
     16 C          -8.1050  -15.6060   26.8496 C.3     1  UNL1        0.0347
     17 C          -6.6747  -15.3454   27.2191 C.3     1  UNL1        0.0343
     18 C          -5.5834  -15.6071   26.2238 C.3     1  UNL1        0.1372
     19 O          -5.4939  -14.7815   24.9745 O.3     1  UNL1       -0.3820
     20 H          -6.2679  -14.9551   24.4162 H       1  UNL1        0.2104
@<TRIPOS>BOND
     1     1     2    1
     2     2     3    2
     3     3    13    1
     4    13    14    1
     5    14    15    1
     6    15    16    1
     7    16    17    1
     8    17    18    1
     9    18    19    1
    10     3     4    1
    11     4     5    2
    12     5     6    1
    13     6     7    1
    14     7     8    2
    15     8     9    1
    16     9    10    2
    17    10    11    1
    18    11    12    2
    19    11     2    1
    20    10     5    1
    21    19    20    1
@<TRIPOS>MOLECULE
*****
 20 21 0 0 0
SMALL
GASTEIGER

@<TRIPOS>ATOM
      1 C          -7.0155  -20.6263   22.6460 C.3     1  UNL1        0.0357
      2 C          -8.2061  -19.8275   22.2050 C.2     1  UNL1        0.0331
      3 C          -8.2320  -19.2132   20.8368 C.2     1  UNL1        0.0875
      4 N          -9.4225  -18.4144   20.3957 N.2     1  UNL1       -0.2513
      5 C         -10.5872  -18.2299   21.3228 C.2     1  UNL1        0.0661
      6 C         -11.7777  -17.4312   20.8818 C.3     1  UNL1        0.0718
      7 C         -12.9424  -17.2468   21.8089 C.2     1  UNL1       -0.0198
      8 C         -12.9165  -17.8611   23.1770 C.2     1  UNL1       -0.0040
      9 C         -11.7260  -18.6599   23.6181 C.2     1  UNL1        0.0040
     10 C         -10.5613  -18.8443   22.6910 C.2     1  UNL1        0.0525
     11 C          -9.3707  -19.6431   23.1321 C.2     1  UNL1        0.1940
     12 O          -9.3449  -20.2575   24.5002 O.2     1  UNL1       -0.2868
     13 C          -7.0672  -19.3976   19.9097 C.3     1  UNL1        0.1872
     14 O          -5.7692  -18.6992   20.1880 O.3     1  UNL1       -0.3474
     15 C          -4.5384  -19.4990   20.4968 C.3     1  UNL1        0.1428
     16 C          -3.1860  -18.8553   20.4167 C.3     1  UNL1        0.0347
     17 C          -2.8593  -17.9359   19.2774 C.3     1  UNL1        0.0343
     18 C          -1.4348  -17.7561   18.8435 C.3     1  UNL1        0.1372
     19 O          -1.0855  -17.7863   17.3850 O.3     1  UNL1       -0.3820
     20 H          -1.2523  -18.6739   17.0309 H       1  UNL1        0.2104
@<TRIPOS>BOND
     1     1     2    1
     2     2     3    2
     3     3    13    1
     4    13    14    1
     5    14    15    1
     6    15    16    1
     7    16    17    1
     8    17    18    1
     9    18    19    1
    10     3     4    1
    11     4     5    2
    12     5     6    1
    13     6     7    1
    14     7     8    2
    15     8     9    1
    16     9    10    2
    17    10    11    1
    18    11    12    2
    19    11     2    1
    20    10     5    1
    21    19    20    1
@<TRIPOS>MOLECULE
*****
 20 21 0 0 0
SMALL
GASTEIGER

@<TRIPOS>ATOM
      1 C          -8.8302  -19.4794   20.5999 C.3     1  UNL1        0.0357
      2 C          -7.5693  -18.9690   21.2322 C.2     1  UNL1        0.0331
      3 C          -7.6172  -17.7840   22.1505 C.2     1  UNL1        0.0875
      4 N          -6.3564  -17.2737   22.7828 N.2     1  UNL1       -0.2513
      5 C          -5.0475  -17.9484   22.4968 C.2     1  UNL1        0.0661
      6 C          -3.7867  -17.4381   23.1291 C.3     1  UNL1        0.0718
      7 C          -2.4780  -18.1128   22.8431 C.2     1  UNL1       -0.0198
      8 C          -2.4301  -19.2979   21.9248 C.2     1  UNL1       -0.0040
      9 C          -3.6909  -19.8082   21.2925 C.2     1  UNL1        0.0040
     10 C          -4.9996  -19.1335   21.5785 C.2     1  UNL1        0.0525
     11 C          -6.2605  -19.6438   20.9462 C.2     1  UNL1        0.1940
     12 O          -6.2126  -20.8289   20.0279 O.2     1  UNL1       -0.2868
     13 C          -8.9261  -17.1092   22.4365 C.3     1  UNL1        0.1872
     14 O          -9.4646  -16.0830   21.4843 O.3     1  UNL1       -0.3474
     15 C         -10.8710  -16.1970   20.9755 C.3     1  UNL1        0.1428
     16 C         -11.7915  -17.2372   21.5418 C.3     1  UNL1        0.0347
     17 C         -12.5858  -16.9421   22.7795 C.3     1  UNL1        0.0343
     18 C         -13.0350  -18.0642   23.6677 C.3     1  UNL1        0.1372
     19 O         -14.3402  -17.9644   24.4002 O.3     1  UNL1       -0.3820
     20 H         -14.2901  -17.2498   25.0542 H       1  UNL1        0.2104
@<TRIPOS>BOND
     1     1     2    1
     2     2     3    2
     3     3    13    1
     4    13    14    1
     5    14    15    1
     6    15    16    1
     7    16    17    1
     8    17    18    1
     9    18    19    1
    10     3     4    1
    11     4     5    2
    12     5     6    1
    13     6     7    1
    14     7     8    2
    15     8     9    1
    16     9    10    2
    17    10    11    1
    18    11    12    2
    19    11     2    1
    20    10     5    1
    21    19    20    1
@<TRIPOS>MOLECULE
*****
 20 21 0 0 0
SMALL
GASTEIGER

@<TRIPOS>ATOM
      1 C          -9.0134  -19.4391   20.6458 C.3     1  UNL1        0.0357
      2 C          -7.7312  -18.9653   21.2637 C.2     1  UNL1        0.0331
      3 C          -7.7434  -17.8191   22.2312 C.2     1  UNL1        0.0875
      4 N          -6.4614  -17.3454   22.8490 N.2     1  UNL1       -0.2513
      5 C          -5.1669  -18.0179   22.4994 C.2     1  UNL1        0.0661
      6 C          -3.8848  -17.5442   23.1172 C.3     1  UNL1        0.0718
      7 C          -2.5904  -18.2167   22.7675 C.2     1  UNL1       -0.0198
      8 C          -2.5781  -19.3629   21.8000 C.2     1  UNL1       -0.0040
      9 C          -3.8602  -19.8366   21.1822 C.2     1  UNL1        0.0040
     10 C          -5.1546  -19.1641   21.5318 C.2     1  UNL1        0.0525
     11 C          -6.4368  -19.6378   20.9140 C.2     1  UNL1        0.1940
     12 O          -6.4245  -20.7840   19.9465 O.2     1  UNL1       -0.2868
     13 C          -9.0379  -17.1467   22.5808 C.3     1  UNL1        0.1872
     14 O          -9.8525  -17.6435   23.7383 O.3     1  UNL1       -0.3474
     15 C         -11.0688  -18.4862   23.4925 C.3     1  UNL1        0.1428
     16 C         -12.3502  -17.8431   23.0517 C.3     1  UNL1        0.0347
     17 C         -12.6325  -17.6580   21.5902 C.3     1  UNL1        0.0343
     18 C         -12.3428  -16.3421   20.9311 C.3     1  UNL1        0.1372
     19 O         -12.3196  -16.2419   19.4346 O.3     1  UNL1       -0.3820
     20 H         -11.5796  -16.7639   19.0870 H       1  UNL1        0.2104
@<TRIPOS>BOND
     1     1     2    1
     2     2     3    2
     3     3    13    1
     4    13    14    1
     5    14    15    1
     6    15    16    1
     7    16    17    1
     8    17    18    1
     9    18    19    1
    10     3     4    1
    11     4     5    2
    12     5     6    1
    13     6     7    1
    14     7     8    2
    15     8     9    1
    16     9    10    2
    17    10    11    1
    18    11    12    2
    19    11     2    1
    20    10     5    1
    21    19    20    1
@<TRIPOS>MOLECULE
*****
 20 21 0 0 0
SMALL
GASTEIGER

@<TRIPOS>ATOM
      1 C          -6.3778  -20.0839   20.2168 C.3     1  UNL1        0.0357
      2 C          -7.4258  -19.2666   20.9124 C.2     1  UNL1        0.0331
      3 C          -7.0601  -18.4406   22.1099 C.2     1  UNL1        0.0875
      4 N          -8.1080  -17.6232   22.8055 N.2     1  UNL1       -0.2513
      5 C          -9.5216  -17.6320   22.3036 C.2     1  UNL1        0.0661
      6 C         -10.5695  -16.8146   22.9992 C.3     1  UNL1        0.0718
      7 C         -11.9830  -16.8234   22.4974 C.2     1  UNL1       -0.0198
      8 C         -12.3486  -17.6494   21.2999 C.2     1  UNL1       -0.0040
      9 C         -11.3007  -18.4667   20.6043 C.2     1  UNL1        0.0040
     10 C          -9.8872  -18.4580   21.1061 C.2     1  UNL1        0.0525
     11 C          -8.8393  -19.2753   20.4105 C.2     1  UNL1        0.1940
     12 O          -9.2049  -20.1014   19.2130 O.2     1  UNL1       -0.2868
     13 C          -5.6466  -18.4319   22.6117 C.3     1  UNL1        0.1872
     14 O          -4.5234  -18.0755   21.6836 O.3     1  UNL1       -0.3474
     15 C          -3.1041  -18.1382   22.1649 C.3     1  UNL1        0.1428
     16 C          -2.1496  -17.0301   21.8320 C.3     1  UNL1        0.0347
     17 C          -1.4667  -17.0042   20.4967 C.3     1  UNL1        0.0343
     18 C          -2.1457  -17.5924   19.2955 C.3     1  UNL1        0.1372
     19 O          -3.5367  -17.1624   18.9347 O.3     1  UNL1       -0.3820
     20 H          -4.1535  -17.4490   19.6264 H       1  UNL1        0.2104
@<TRIPOS>BOND
     1     1     2    1
     2     2     3    2
     3     3    13    1
     4    13    14    1
     5    14    15    1
     6    15    16    1
     7    16    17    1
     8    17    18    1
     9    18    19    1
    10     3     4    1
    11     4     5    2
    12     5     6    1
    13     6     7    1
    14     7     8    2
    15     8     9    1
    16     9    10    2
    17    10    11    1
    18    11    12    2
    19    11     2    1
    20    10     5    1
    21    19    20    1
@<TRIPOS>MOLECULE
*****
 20 21 0 0 0
SMALL
GASTEIGER

@<TRIPOS>ATOM
      1 C          -6.1128  -21.3082   20.2283 C.3     1  UNL1        0.0357
      2 C          -5.2902  -20.1494   20.7086 C.2     1  UNL1        0.0331
      3 C          -5.8034  -19.2712   21.8110 C.2     1  UNL1        0.0875
      4 N          -4.9809  -18.1124   22.2913 N.2     1  UNL1       -0.2513
      5 C          -3.6451  -17.8319   21.6692 C.2     1  UNL1        0.0661
      6 C          -2.8226  -16.6731   22.1496 C.3     1  UNL1        0.0718
      7 C          -1.4868  -16.3926   21.5274 C.2     1  UNL1       -0.0198
      8 C          -0.9736  -17.2708   20.4250 C.2     1  UNL1       -0.0040
      9 C          -1.7961  -18.4296   19.9447 C.2     1  UNL1        0.0040
     10 C          -3.1319  -18.7101   20.5668 C.2     1  UNL1        0.0525
     11 C          -3.9545  -19.8689   20.0865 C.2     1  UNL1        0.1940
     12 O          -3.4412  -20.7471   18.9841 O.2     1  UNL1       -0.2868
     13 C          -7.1392  -19.5517   22.4331 C.3     1  UNL1        0.1872
     14 O          -8.2970  -18.6354   22.1688 O.3     1  UNL1       -0.3474
     15 C          -9.5219  -19.1550   21.4764 C.3     1  UNL1        0.1428
     16 C         -10.5712  -19.8884   22.2582 C.3     1  UNL1        0.0347
     17 C         -11.2864  -19.2001   23.3828 C.3     1  UNL1        0.0343
     18 C         -10.6117  -19.0371   24.7125 C.3     1  UNL1        0.1372
     19 O         -10.1871  -20.2467   25.4914 O.3     1  UNL1       -0.3820
     20 H         -10.9719  -20.7453   25.7677 H       1  UNL1        0.2104
@<TRIPOS>BOND
     1     1     2    1
     2     2     3    2
     3     3    13    1
     4    13    14    1
     5    14    15    1
     6    15    16    1
     7    16    17    1
     8    17    18    1
     9    18    19    1
    10     3     4    1
    11     4     5    2
    12     5     6    1
    13     6     7    1
    14     7     8    2
    15     8     9    1
    16     9    10    2
    17    10    11    1
    18    11    12    2
    19    11     2    1
    20    10     5    1
    21    19    20    1
@<TRIPOS>MOLECULE
*****
 20 21 0 0 0
SMALL
GASTEIGER

@<TRIPOS>ATOM
      1 C          -9.1957  -20.6719   24.1826 C.3     1  UNL1        0.0357
      2 C          -9.5462  -19.6932   23.1012 C.2     1  UNL1        0.0331
      3 C          -8.5681  -19.4106   21.9997 C.2     1  UNL1        0.0875
      4 N          -8.9185  -18.4320   20.9183 N.2     1  UNL1       -0.2513
      5 C         -10.2472  -17.7360   20.9384 C.2     1  UNL1        0.0661
      6 C         -10.5976  -16.7574   19.8570 C.3     1  UNL1        0.0718
      7 C         -11.9262  -16.0615   19.8771 C.2     1  UNL1       -0.0198
      8 C         -12.9044  -16.3441   20.9786 C.2     1  UNL1       -0.0040
      9 C         -12.5539  -17.3227   22.0600 C.2     1  UNL1        0.0040
     10 C         -11.2253  -18.0187   22.0399 C.2     1  UNL1        0.0525
     11 C         -10.8748  -18.9973   23.1213 C.2     1  UNL1        0.1940
     12 O         -11.8529  -19.2800   24.2228 O.2     1  UNL1       -0.2868
     13 C          -7.2394  -20.1066   21.9796 C.3     1  UNL1        0.1872
     14 O          -6.5566  -20.3818   20.6727 O.3     1  UNL1       -0.3474
     15 C          -5.0664  -20.2507   20.5628 C.3     1  UNL1        0.1428
     16 C          -4.4662  -19.0445   19.9035 C.3     1  UNL1        0.0347
     17 C          -3.0524  -19.0881   19.4044 C.3     1  UNL1        0.0343
     18 C          -2.3683  -17.8233   18.9775 C.3     1  UNL1        0.1372
     19 O          -0.9194  -17.8483   18.5900 O.3     1  UNL1       -0.3820
     20 H          -0.3810  -18.0701   19.3658 H       1  UNL1        0.2104
@<TRIPOS>BOND
     1     1     2    1
     2     2     3    2
     3     3    13    1
     4    13    14    1
     5    14    15    1
     6    15    16    1
     7    16    17    1
     8    17    18    1
     9    18    19    1
    10     3     4    1
    11     4     5    2
    12     5     6    1
    13     6     7    1
    14     7     8    2
    15     8     9    1
    16     9    10    2
    17    10    11    1
    18    11    12    2
    19    11     2    1
    20    10     5    1
    21    19    20    1
