@<TRIPOS>MOLECULE
*****
 28 31 0 0 0
SMALL
GASTEIGER

@<TRIPOS>ATOM
      1 C          -7.4002  -19.3151   22.4866 C.ar    1  UNL1        0.1264
      2 C          -6.8966  -20.6642   22.0664 C.ar    1  UNL1        0.1099
      3 N          -5.5275  -20.8011   21.4693 N.ar    1  UNL1       -0.2221
      4 C          -4.6618  -19.5890   21.2922 C.ar    1  UNL1        0.2016
      5 N          -5.1653  -18.2399   21.7124 N.ar    1  UNL1       -0.1889
      6 C          -6.5345  -18.1030   22.3095 C.ar    1  UNL1        0.2370
      7 C         -13.0185  -16.1018   20.1716 C.3     1  UNL1        0.1123
      8 N         -11.9562  -16.8709   20.8996 N.pl3   1  UNL1       -0.3031
      9 C         -10.5871  -17.0078   20.3025 C.3     1  UNL1        0.1128
     10 C          -9.5248  -17.7769   21.0305 C.3     1  UNL1        0.1199
     11 N          -9.8317  -18.4091   22.3557 N.am    1  UNL1       -0.2521
     12 C          -8.7694  -19.1782   23.0837 C.2     1  UNL1        0.2589
     13 O          -9.0763  -19.8104   24.4089 O.2     1  UNL1       -0.2693
     14 C         -11.2009  -18.2722   22.9529 C.ar    1  UNL1        0.0675
     15 C         -11.5077  -18.9045   24.2780 C.ar    1  UNL1        0.0162
     16 C         -12.8769  -18.7676   24.8752 C.ar    1  UNL1        0.0014
     17 C         -13.9392  -17.9985   24.1471 C.ar    1  UNL1        0.0014
     18 C         -13.6323  -17.3663   22.8220 C.ar    1  UNL1        0.0158
     19 C         -12.2632  -17.5031   22.2248 C.ar    1  UNL1        0.0618
     20 O          -7.0380  -16.7539   22.7297 O.3     1  UNL1       -0.4350
     21 C          -6.7784  -16.2563   24.1207 C.ar    1  UNL1        0.1585
     22 C          -7.8290  -16.4096   25.1803 C.ar    1  UNL1        0.0498
     23 C          -7.5694  -15.9120   26.5714 C.ar    1  UNL1        0.0608
     24 CL         -8.6200  -16.0654   27.6310 Cl      1  UNL1       -0.0821
     25 C          -6.2593  -15.2611   26.9028 C.ar    1  UNL1        0.0125
     26 C          -5.2087  -15.1078   25.8431 C.ar    1  UNL1        0.0153
     27 C          -5.4683  -15.6054   24.4521 C.ar    1  UNL1        0.0922
     28 CL         -4.4177  -15.4521   23.3925 Cl      1  UNL1       -0.0791
@<TRIPOS>BOND
     1     7     8    1
     2     8     9    1
     3     9    10    1
     4    10    11    1
     5    11    12   am
     6    12    13    2
     7    12     1    1
     8     1     2   ar
     9     2     3   ar
    10     3     4   ar
    11     4     5   ar
    12     5     6   ar
    13     6    20    1
    14    20    21    1
    15    21    22   ar
    16    22    23   ar
    17    23    24    1
    18    23    25   ar
    19    25    26   ar
    20    26    27   ar
    21    27    28    1
    22    11    14    1
    23    14    15   ar
    24    15    16   ar
    25    16    17   ar
    26    17    18   ar
    27    18    19   ar
    28    19     8    1
    29     6     1   ar
    30    27    21   ar
    31    19    14   ar
@<TRIPOS>MOLECULE
*****
 28 31 0 0 0
SMALL
GASTEIGER

@<TRIPOS>ATOM
      1 C          -6.6868  -15.9720   23.7053 C.ar    1  UNL1        0.1264
      2 C          -6.5525  -14.9312   24.7771 C.ar    1  UNL1        0.1099
      3 N          -5.3835  -14.9683   25.7163 N.ar    1  UNL1       -0.2221
      4 C          -4.3489  -16.0462   25.5837 C.ar    1  UNL1        0.2016
      5 N          -4.4832  -17.0870   24.5120 N.ar    1  UNL1       -0.1889
      6 C          -5.6522  -17.0499   23.5727 C.ar    1  UNL1        0.2370
      7 C         -12.9688  -18.7130   24.2289 C.3     1  UNL1        0.1123
      8 N         -11.6905  -18.0185   23.8632 N.pl3   1  UNL1       -0.3031
      9 C         -10.5216  -18.0556   24.8024 C.3     1  UNL1        0.1128
     10 C          -9.2433  -17.3611   24.4367 C.3     1  UNL1        0.1199
     11 N          -9.1341  -16.6294   23.1318 N.am    1  UNL1       -0.2521
     12 C          -7.8558  -15.9349   22.7661 C.2     1  UNL1        0.2589
     13 O          -7.7466  -15.2032   21.4612 O.2     1  UNL1       -0.2693
     14 C         -10.3031  -16.5923   22.1926 C.ar    1  UNL1        0.0675
     15 C         -10.1938  -15.8606   20.8877 C.ar    1  UNL1        0.0162
     16 C         -11.3628  -15.8235   19.9486 C.ar    1  UNL1        0.0014
     17 C         -12.6410  -16.5180   20.3143 C.ar    1  UNL1        0.0014
     18 C         -12.7503  -17.2497   21.6191 C.ar    1  UNL1        0.0158
     19 C         -11.5813  -17.2868   22.5583 C.ar    1  UNL1        0.0618
     20 O          -5.7865  -18.0907   22.5010 O.3     1  UNL1       -0.4350
     21 C          -4.6446  -18.3552   21.5650 C.ar    1  UNL1        0.1585
     22 C          -3.4242  -17.4840   21.6058 C.ar    1  UNL1        0.0498
     23 C          -2.2823  -17.7484   20.6698 C.ar    1  UNL1        0.0608
     24 CL         -1.0619  -16.8772   20.7106 Cl      1  UNL1       -0.0821
     25 C          -2.3608  -18.8840   19.6930 C.ar    1  UNL1        0.0125
     26 C          -3.5812  -19.7553   19.6521 C.ar    1  UNL1        0.0153
     27 C          -4.7231  -19.4908   20.5881 C.ar    1  UNL1        0.0922
     28 CL         -5.9435  -20.3620   20.5473 Cl      1  UNL1       -0.0791
@<TRIPOS>BOND
     1     7     8    1
     2     8     9    1
     3     9    10    1
     4    10    11    1
     5    11    12   am
     6    12    13    2
     7    12     1    1
     8     1     2   ar
     9     2     3   ar
    10     3     4   ar
    11     4     5   ar
    12     5     6   ar
    13     6    20    1
    14    20    21    1
    15    21    22   ar
    16    22    23   ar
    17    23    24    1
    18    23    25   ar
    19    25    26   ar
    20    26    27   ar
    21    27    28    1
    22    11    14    1
    23    14    15   ar
    24    15    16   ar
    25    16    17   ar
    26    17    18   ar
    27    18    19   ar
    28    19     8    1
    29     6     1   ar
    30    27    21   ar
    31    19    14   ar
@<TRIPOS>MOLECULE
*****
 28 31 0 0 0
SMALL
GASTEIGER

@<TRIPOS>ATOM
      1 C          -7.4082  -16.4054   24.2202 C.ar    1  UNL1        0.1264
      2 C          -7.0227  -15.2275   25.0653 C.ar    1  UNL1        0.1099
      3 N          -5.6199  -14.6984   25.0194 N.ar    1  UNL1       -0.2221
      4 C          -4.6024  -15.3472   24.1284 C.ar    1  UNL1        0.2016
      5 N          -4.9878  -16.5251   23.2833 N.ar    1  UNL1       -0.1889
      6 C          -6.3907  -17.0542   23.3292 C.ar    1  UNL1        0.2370
      7 C         -12.5397  -15.9520   19.6691 C.3     1  UNL1        0.1123
      8 N         -11.6075  -16.1976   20.8184 N.pl3   1  UNL1       -0.3031
      9 C         -10.2047  -15.6686   20.7725 C.3     1  UNL1        0.1128
     10 C          -9.2725  -15.9142   21.9217 C.3     1  UNL1        0.1199
     11 N          -9.7432  -16.6888   23.1168 N.am    1  UNL1       -0.2521
     12 C          -8.8110  -16.9344   24.2661 C.2     1  UNL1        0.2589
     13 O          -9.2817  -17.7090   25.4613 O.2     1  UNL1       -0.2693
     14 C         -11.1461  -17.2179   23.1628 C.ar    1  UNL1        0.0675
     15 C         -11.6167  -17.9925   24.3579 C.ar    1  UNL1        0.0162
     16 C         -13.0195  -18.5215   24.4038 C.ar    1  UNL1        0.0014
     17 C         -13.9517  -18.2759   23.2546 C.ar    1  UNL1        0.0014
     18 C         -13.4811  -17.5013   22.0595 C.ar    1  UNL1        0.0158
     19 C         -12.0782  -16.9723   22.0136 C.ar    1  UNL1        0.0618
     20 O          -6.7760  -18.2320   22.4842 O.3     1  UNL1       -0.4350
     21 C          -5.7270  -18.9777   21.7139 C.ar    1  UNL1        0.1585
     22 C          -4.2874  -18.8857   22.1250 C.ar    1  UNL1        0.0498
     23 C          -3.2383  -19.6314   21.3547 C.ar    1  UNL1        0.0608
     24 CL         -1.7986  -19.5394   21.7658 Cl      1  UNL1       -0.0821
     25 C          -3.6288  -20.4692   20.1733 C.ar    1  UNL1        0.0125
     26 C          -5.0685  -20.5612   19.7622 C.ar    1  UNL1        0.0153
     27 C          -6.1176  -19.8155   20.5325 C.ar    1  UNL1        0.0922
     28 CL         -7.5572  -19.9075   20.1214 Cl      1  UNL1       -0.0791
@<TRIPOS>BOND
     1     7     8    1
     2     8     9    1
     3     9    10    1
     4    10    11    1
     5    11    12   am
     6    12    13    2
     7    12     1    1
     8     1     2   ar
     9     2     3   ar
    10     3     4   ar
    11     4     5   ar
    12     5     6   ar
    13     6    20    1
    14    20    21    1
    15    21    22   ar
    16    22    23   ar
    17    23    24    1
    18    23    25   ar
    19    25    26   ar
    20    26    27   ar
    21    27    28    1
    22    11    14    1
    23    14    15   ar
    24    15    16   ar
    25    16    17   ar
    26    17    18   ar
    27    18    19   ar
    28    19     8    1
    29     6     1   ar
    30    27    21   ar
    31    19    14   ar
@<TRIPOS>MOLECULE
*****
 28 31 0 0 0
SMALL
GASTEIGER

@<TRIPOS>ATOM
      1 C          -6.0009  -16.0860   24.3770 C.ar    1  UNL1        0.1264
      2 C          -5.6450  -16.1234   25.8337 C.ar    1  UNL1        0.1099
      3 N          -6.6556  -15.7130   26.8634 N.ar    1  UNL1       -0.2221
      4 C          -8.0220  -15.2651   26.4364 C.ar    1  UNL1        0.2016
      5 N          -8.3779  -15.2277   24.9798 N.ar    1  UNL1       -0.1889
      6 C          -7.3673  -15.6382   23.9500 C.ar    1  UNL1        0.2370
      7 C          -5.8052  -21.5288   20.1832 C.3     1  UNL1        0.1123
      8 N          -5.6015  -20.2707   20.9742 N.pl3   1  UNL1       -0.3031
      9 C          -6.6120  -19.8603   22.0039 C.3     1  UNL1        0.1128
     10 C          -6.4083  -18.6022   22.7949 C.3     1  UNL1        0.1199
     11 N          -5.1941  -17.7545   22.5563 N.am    1  UNL1       -0.2521
     12 C          -4.9903  -16.4964   23.3473 C.2     1  UNL1        0.2589
     13 O          -3.7760  -15.6488   23.1086 O.2     1  UNL1       -0.2693
     14 C          -4.1834  -18.1649   21.5265 C.ar    1  UNL1        0.0675
     15 C          -2.9692  -17.3173   21.2879 C.ar    1  UNL1        0.0162
     16 C          -1.9586  -17.7277   20.2582 C.ar    1  UNL1        0.0014
     17 C          -2.1624  -18.9858   19.4672 C.ar    1  UNL1        0.0014
     18 C          -3.3766  -19.8335   19.7058 C.ar    1  UNL1        0.0158
     19 C          -4.3872  -19.4230   20.7355 C.ar    1  UNL1        0.0618
     20 O          -7.7232  -15.6008   22.4934 O.3     1  UNL1       -0.4350
     21 C          -9.0519  -16.1223   22.0323 C.ar    1  UNL1        0.1585
     22 C          -9.6410  -17.3443   22.6722 C.ar    1  UNL1        0.0498
     23 C         -10.9697  -17.8659   22.2112 C.ar    1  UNL1        0.0608
     24 CL        -11.5588  -19.0880   22.8512 Cl      1  UNL1       -0.0821
     25 C         -11.7093  -17.1654   21.1101 C.ar    1  UNL1        0.0125
     26 C         -11.1202  -15.9433   20.4701 C.ar    1  UNL1        0.0153
     27 C          -9.7915  -15.4218   20.9312 C.ar    1  UNL1        0.0922
     28 CL         -9.2024  -14.1997   20.2913 Cl      1  UNL1       -0.0791
@<TRIPOS>BOND
     1     7     8    1
     2     8     9    1
     3     9    10    1
     4    10    11    1
     5    11    12   am
     6    12    13    2
     7    12     1    1
     8     1     2   ar
     9     2     3   ar
    10     3     4   ar
    11     4     5   ar
    12     5     6   ar
    13     6    20    1
    14    20    21    1
    15    21    22   ar
    16    22    23   ar
    17    23    24    1
    18    23    25   ar
    19    25    26   ar
    20    26    27   ar
    21    27    28    1
    22    11    14    1
    23    14    15   ar
    24    15    16   ar
    25    16    17   ar
    26    17    18   ar
    27    18    19   ar
    28    19     8    1
    29     6     1   ar
    30    27    21   ar
    31    19    14   ar
@<TRIPOS>MOLECULE
*****
 28 31 0 0 0
SMALL
GASTEIGER

@<TRIPOS>ATOM
      1 C          -7.3458  -15.7597   24.6777 C.ar    1  UNL1        0.1264
      2 C          -7.9850  -15.6754   26.0322 C.ar    1  UNL1        0.1099
      3 N          -7.1369  -15.7455   27.2674 N.ar    1  UNL1       -0.2221
      4 C          -5.6496  -15.8997   27.1482 C.ar    1  UNL1        0.2016
      5 N          -5.0105  -15.9840   25.7939 N.ar    1  UNL1       -0.1889
      6 C          -5.8586  -15.9139   24.5586 C.ar    1  UNL1        0.2370
      7 C         -11.3975  -20.4644   21.7283 C.3     1  UNL1        0.1123
      8 N         -10.5966  -19.2707   22.1568 N.pl3   1  UNL1       -0.3031
      9 C          -9.7485  -19.3408   23.3920 C.3     1  UNL1        0.1128
     10 C          -8.9476  -18.1471   23.8206 C.3     1  UNL1        0.1199
     11 N          -8.9948  -16.8833   23.0140 N.am    1  UNL1       -0.2521
     12 C          -8.1939  -15.6896   23.4425 C.2     1  UNL1        0.2589
     13 O          -8.2412  -14.4259   22.6358 O.2     1  UNL1       -0.2693
     14 C          -9.8430  -16.8133   21.7787 C.ar    1  UNL1        0.0675
     15 C          -9.8902  -15.5495   20.9720 C.ar    1  UNL1        0.0162
     16 C         -10.7383  -15.4795   19.7368 C.ar    1  UNL1        0.0014
     17 C         -11.5392  -16.6732   19.3083 C.ar    1  UNL1        0.0014
     18 C         -11.4919  -17.9369   20.1149 C.ar    1  UNL1        0.0158
     19 C         -10.6439  -18.0070   21.3501 C.ar    1  UNL1        0.0618
     20 O          -5.2194  -15.9982   23.2042 O.3     1  UNL1       -0.4350
     21 C          -4.7840  -17.3271   22.6617 C.ar    1  UNL1        0.1585
     22 C          -5.7866  -18.4278   22.4798 C.ar    1  UNL1        0.0498
     23 C          -5.3512  -19.7568   21.9372 C.ar    1  UNL1        0.0608
     24 CL         -6.3539  -20.8575   21.7553 Cl      1  UNL1       -0.0821
     25 C          -3.9133  -19.9850   21.5766 C.ar    1  UNL1        0.0125
     26 C          -2.9106  -18.8843   21.7586 C.ar    1  UNL1        0.0153
     27 C          -3.3459  -17.5553   22.3011 C.ar    1  UNL1        0.0922
     28 CL         -2.3433  -16.4546   22.4831 Cl      1  UNL1       -0.0791
@<TRIPOS>BOND
     1     7     8    1
     2     8     9    1
     3     9    10    1
     4    10    11    1
     5    11    12   am
     6    12    13    2
     7    12     1    1
     8     1     2   ar
     9     2     3   ar
    10     3     4   ar
    11     4     5   ar
    12     5     6   ar
    13     6    20    1
    14    20    21    1
    15    21    22   ar
    16    22    23   ar
    17    23    24    1
    18    23    25   ar
    19    25    26   ar
    20    26    27   ar
    21    27    28    1
    22    11    14    1
    23    14    15   ar
    24    15    16   ar
    25    16    17   ar
    26    17    18   ar
    27    18    19   ar
    28    19     8    1
    29     6     1   ar
    30    27    21   ar
    31    19    14   ar
@<TRIPOS>MOLECULE
*****
 28 31 0 0 0
SMALL
GASTEIGER

@<TRIPOS>ATOM
      1 C          -7.2691  -20.2826   19.9502 C.ar    1  UNL1        0.1264
      2 C          -6.8671  -21.5836   19.3210 C.ar    1  UNL1        0.1099
      3 N          -7.7382  -22.2107   18.2733 N.ar    1  UNL1       -0.2221
      4 C          -9.0113  -21.5369   17.8547 C.ar    1  UNL1        0.2016
      5 N          -9.4133  -20.2360   18.4839 N.ar    1  UNL1       -0.1889
      6 C          -8.5421  -19.6088   19.5317 C.ar    1  UNL1        0.2370
      7 C          -0.8305  -17.8991   19.6127 C.3     1  UNL1        0.1123
      8 N          -2.2224  -18.3382   19.9590 N.pl3   1  UNL1       -0.3031
      9 C          -3.0935  -18.9653   18.9113 C.3     1  UNL1        0.1128
     10 C          -4.4854  -19.4044   19.2576 C.3     1  UNL1        0.1199
     11 N          -5.0061  -19.2164   20.6517 N.am    1  UNL1       -0.2521
     12 C          -6.3979  -19.6555   20.9980 C.2     1  UNL1        0.2589
     13 O          -6.9187  -19.4674   22.3921 O.2     1  UNL1       -0.2693
     14 C          -4.1349  -18.5892   21.6995 C.ar    1  UNL1        0.0675
     15 C          -4.6557  -18.4012   23.0936 C.ar    1  UNL1        0.0162
     16 C          -3.7845  -17.7740   24.1413 C.ar    1  UNL1        0.0014
     17 C          -2.3927  -17.3349   23.7950 C.ar    1  UNL1        0.0014
     18 C          -1.8720  -17.5230   22.4009 C.ar    1  UNL1        0.0158
     19 C          -2.7431  -18.1501   21.3532 C.ar    1  UNL1        0.0618
     20 O          -8.9441  -18.3078   20.1608 O.3     1  UNL1       -0.4350
     21 C         -10.0940  -18.2637   21.1230 C.ar    1  UNL1        0.1585
     22 C         -10.0063  -18.9935   22.4305 C.ar    1  UNL1        0.0498
     23 C         -11.1562  -18.9494   23.3927 C.ar    1  UNL1        0.0608
     24 CL        -11.0685  -19.6793   24.7003 Cl      1  UNL1       -0.0821
     25 C         -12.3938  -18.1754   23.0474 C.ar    1  UNL1        0.0125
     26 C         -12.4815  -17.4455   21.7398 C.ar    1  UNL1        0.0153
     27 C         -11.3317  -17.4897   20.7776 C.ar    1  UNL1        0.0922
     28 CL        -11.4193  -16.7598   19.4701 Cl      1  UNL1       -0.0791
@<TRIPOS>BOND
     1     7     8    1
     2     8     9    1
     3     9    10    1
     4    10    11    1
     5    11    12   am
     6    12    13    2
     7    12     1    1
     8     1     2   ar
     9     2     3   ar
    10     3     4   ar
    11     4     5   ar
    12     5     6   ar
    13     6    20    1
    14    20    21    1
    15    21    22   ar
    16    22    23   ar
    17    23    24    1
    18    23    25   ar
    19    25    26   ar
    20    26    27   ar
    21    27    28    1
    22    11    14    1
    23    14    15   ar
    24    15    16   ar
    25    16    17   ar
    26    17    18   ar
    27    18    19   ar
    28    19     8    1
    29     6     1   ar
    30    27    21   ar
    31    19    14   ar
@<TRIPOS>MOLECULE
*****
 28 31 0 0 0
SMALL
GASTEIGER

@<TRIPOS>ATOM
      1 C          -6.1630  -16.0624   24.3372 C.ar    1  UNL1        0.1264
      2 C          -5.9842  -15.7877   25.8010 C.ar    1  UNL1        0.1099
      3 N          -7.1823  -15.6955   26.6987 N.ar    1  UNL1       -0.2221
      4 C          -8.5594  -15.8779   26.1326 C.ar    1  UNL1        0.2016
      5 N          -8.7383  -16.1526   24.6689 N.ar    1  UNL1       -0.1889
      6 C          -7.5401  -16.2448   23.7711 C.ar    1  UNL1        0.2370
      7 C          -4.0282  -21.1078   20.1856 C.3     1  UNL1        0.1123
      8 N          -4.2623  -19.8695   20.9990 N.pl3   1  UNL1       -0.3031
      9 C          -5.4605  -19.7773   21.8967 C.3     1  UNL1        0.1128
     10 C          -5.6947  -18.5390   22.7102 C.3     1  UNL1        0.1199
     11 N          -4.7307  -17.3929   22.6260 N.am    1  UNL1       -0.2521
     12 C          -4.9649  -16.1546   23.4395 C.2     1  UNL1        0.2589
     13 O          -4.0008  -15.0084   23.3553 O.2     1  UNL1       -0.2693
     14 C          -3.5324  -17.4850   21.7283 C.ar    1  UNL1        0.0675
     15 C          -2.5685  -16.3389   21.6441 C.ar    1  UNL1        0.0162
     16 C          -1.3703  -16.4312   20.7465 C.ar    1  UNL1        0.0014
     17 C          -1.1361  -17.6695   19.9330 C.ar    1  UNL1        0.0014
     18 C          -2.1001  -18.8156   20.0172 C.ar    1  UNL1        0.0158
     19 C          -3.2983  -18.7234   20.9148 C.ar    1  UNL1        0.0618
     20 O          -7.7190  -16.5195   22.3074 O.3     1  UNL1       -0.4350
     21 C          -9.0502  -16.9742   21.7869 C.ar    1  UNL1        0.1585
     22 C          -9.8507  -16.0776   20.8896 C.ar    1  UNL1        0.0498
     23 C         -11.1820  -16.5323   20.3690 C.ar    1  UNL1        0.0608
     24 CL        -11.9825  -15.6356   19.4717 Cl      1  UNL1       -0.0821
     25 C         -11.7128  -17.8837   20.7458 C.ar    1  UNL1        0.0125
     26 C         -10.9123  -18.7804   21.6431 C.ar    1  UNL1        0.0153
     27 C          -9.5810  -18.3257   22.1637 C.ar    1  UNL1        0.0922
     28 CL         -8.7805  -19.2223   23.0610 Cl      1  UNL1       -0.0791
@<TRIPOS>BOND
     1     7     8    1
     2     8     9    1
     3     9    10    1
     4    10    11    1
     5    11    12   am
     6    12    13    2
     7    12     1    1
     8     1     2   ar
     9     2     3   ar
    10     3     4   ar
    11     4     5   ar
    12     5     6   ar
    13     6    20    1
    14    20    21    1
    15    21    22   ar
    16    22    23   ar
    17    23    24    1
    18    23    25   ar
    19    25    26   ar
    20    26    27   ar
    21    27    28    1
    22    11    14    1
    23    14    15   ar
    24    15    16   ar
    25    16    17   ar
    26    17    18   ar
    27    18    19   ar
    28    19     8    1
    29     6     1   ar
    30    27    21   ar
    31    19    14   ar
@<TRIPOS>MOLECULE
*****
 28 31 0 0 0
SMALL
GASTEIGER

@<TRIPOS>ATOM
      1 C          -6.1157  -16.6218   24.0609 C.ar    1  UNL1        0.1264
      2 C          -5.2893  -16.4685   25.3033 C.ar    1  UNL1        0.1099
      3 N          -5.6754  -15.4563   26.3408 N.ar    1  UNL1       -0.2221
      4 C          -6.8880  -14.5975   26.1359 C.ar    1  UNL1        0.2016
      5 N          -7.7144  -14.7507   24.8935 N.ar    1  UNL1       -0.1889
      6 C          -7.3283  -15.7629   23.8560 C.ar    1  UNL1        0.2370
      7 C          -0.4577  -17.1705   20.1962 C.3     1  UNL1        0.1123
      8 N          -1.7757  -17.2864   20.9030 N.pl3   1  UNL1       -0.3031
      9 C          -2.1618  -16.2743   21.9404 C.3     1  UNL1        0.1128
     10 C          -3.4798  -16.3901   22.6472 C.3     1  UNL1        0.1199
     11 N          -4.4116  -17.5181   22.3166 N.am    1  UNL1       -0.2521
     12 C          -5.7295  -17.6339   23.0234 C.2     1  UNL1        0.2589
     13 O          -6.6613  -18.7620   22.6927 O.2     1  UNL1       -0.2693
     14 C          -4.0254  -18.5303   21.2791 C.ar    1  UNL1        0.0675
     15 C          -4.9572  -19.6583   20.9484 C.ar    1  UNL1        0.0162
     16 C          -4.5710  -20.6704   19.9109 C.ar    1  UNL1        0.0014
     17 C          -3.2531  -20.5546   19.2041 C.ar    1  UNL1        0.0014
     18 C          -2.3213  -19.4266   19.5348 C.ar    1  UNL1        0.0158
     19 C          -2.7075  -18.4145   20.5723 C.ar    1  UNL1        0.0618
     20 O          -8.1547  -15.9162   22.6136 O.3     1  UNL1       -0.4350
     21 C          -9.4911  -16.5940   22.6807 C.ar    1  UNL1        0.1585
     22 C          -9.7742  -17.5879   23.7678 C.ar    1  UNL1        0.0498
     23 C         -11.1107  -18.2658   23.8349 C.ar    1  UNL1        0.0608
     24 CL        -11.3938  -19.2597   24.9222 Cl      1  UNL1       -0.0821
     25 C         -12.1639  -17.9498   22.8148 C.ar    1  UNL1        0.0125
     26 C         -11.8808  -16.9558   21.7276 C.ar    1  UNL1        0.0153
     27 C         -10.5444  -16.2780   21.6605 C.ar    1  UNL1        0.0922
     28 CL        -10.2613  -15.2841   20.5733 Cl      1  UNL1       -0.0791
@<TRIPOS>BOND
     1     7     8    1
     2     8     9    1
     3     9    10    1
     4    10    11    1
     5    11    12   am
     6    12    13    2
     7    12     1    1
     8     1     2   ar
     9     2     3   ar
    10     3     4   ar
    11     4     5   ar
    12     5     6   ar
    13     6    20    1
    14    20    21    1
    15    21    22   ar
    16    22    23   ar
    17    23    24    1
    18    23    25   ar
    19    25    26   ar
    20    26    27   ar
    21    27    28    1
    22    11    14    1
    23    14    15   ar
    24    15    16   ar
    25    16    17   ar
    26    17    18   ar
    27    18    19   ar
    28    19     8    1
    29     6     1   ar
    30    27    21   ar
    31    19    14   ar
@<TRIPOS>MOLECULE
*****
 28 31 0 0 0
SMALL
GASTEIGER

@<TRIPOS>ATOM
      1 C           8.1592   -3.6952   20.9628 C.ar    1  UNL1        0.1264
      2 C           9.4835   -3.2097   20.4522 C.ar    1  UNL1        0.1099
      3 N           9.5355   -2.1706   19.3717 N.ar    1  UNL1       -0.2221
      4 C           8.2632   -1.6168   18.8018 C.ar    1  UNL1        0.2016
      5 N           6.9390   -2.1022   19.3124 N.ar    1  UNL1       -0.1889
      6 C           6.8870   -3.1414   20.3929 C.ar    1  UNL1        0.2370
      7 C           6.6978   -3.1565   27.6579 C.3     1  UNL1        0.1123
      8 N           7.0502   -3.5509   26.2542 N.pl3   1  UNL1       -0.3031
      9 C           7.1022   -2.5118   25.1738 C.3     1  UNL1        0.1128
     10 C           7.4545   -2.9063   23.7701 C.3     1  UNL1        0.1199
     11 N           7.7549   -4.3399   23.4469 N.am    1  UNL1       -0.2521
     12 C           8.1072   -4.7343   22.0433 C.2     1  UNL1        0.2589
     13 O           8.4076   -6.1680   21.7201 O.2     1  UNL1       -0.2693
     14 C           7.7029   -5.3791   24.5274 C.ar    1  UNL1        0.0675
     15 C           8.0033   -6.8127   24.2042 C.ar    1  UNL1        0.0162
     16 C           7.9513   -7.8518   25.2847 C.ar    1  UNL1        0.0014
     17 C           7.5990   -7.4574   26.6883 C.ar    1  UNL1        0.0014
     18 C           7.2986   -6.0238   27.0115 C.ar    1  UNL1        0.0158
     19 C           7.3506   -4.9846   25.9311 C.ar    1  UNL1        0.0618
     20 O           5.5627   -3.6268   20.9035 O.3     1  UNL1       -0.4350
     21 C           4.4390   -2.6561   21.1154 C.ar    1  UNL1        0.1585
     22 C           4.2334   -2.0292   22.4624 C.ar    1  UNL1        0.0498
     23 C           3.1096   -1.0584   22.6743 C.ar    1  UNL1        0.0608
     24 CL          2.9040   -0.4315   24.0215 Cl      1  UNL1       -0.0821
     25 C           2.1916   -0.7145   21.5390 C.ar    1  UNL1        0.0125
     26 C           2.3972   -1.3414   20.1918 C.ar    1  UNL1        0.0153
     27 C           3.5209   -2.3122   19.9800 C.ar    1  UNL1        0.0922
     28 CL          3.7266   -2.9391   18.6329 Cl      1  UNL1       -0.0791
@<TRIPOS>BOND
     1     7     8    1
     2     8     9    1
     3     9    10    1
     4    10    11    1
     5    11    12   am
     6    12    13    2
     7    12     1    1
     8     1     2   ar
     9     2     3   ar
    10     3     4   ar
    11     4     5   ar
    12     5     6   ar
    13     6    20    1
    14    20    21    1
    15    21    22   ar
    16    22    23   ar
    17    23    24    1
    18    23    25   ar
    19    25    26   ar
    20    26    27   ar
    21    27    28    1
    22    11    14    1
    23    14    15   ar
    24    15    16   ar
    25    16    17   ar
    26    17    18   ar
    27    18    19   ar
    28    19     8    1
    29     6     1   ar
    30    27    21   ar
    31    19    14   ar
