@<TRIPOS>MOLECULE
*****
 32 36 0 0 0
SMALL
GASTEIGER

@<TRIPOS>ATOM
      1 N           3.0364    0.0491   19.8450 N.ar    1  UNL1       -0.2286
      2 C           3.4163    1.3879   20.4047 C.ar    1  UNL1        0.0990
      3 C           2.1706    2.0451   20.9207 C.ar    1  UNL1        0.0338
      4 C           1.0207    1.1124   20.6799 C.ar    1  UNL1        0.0981
      5 N           1.5558   -0.1212   20.0151 N.ar    1  UNL1       -0.1680
      6 C          -0.2251    1.7695   21.1959 C.3     1  UNL1        0.1414
      7 N           0.1548    3.1084   21.7557 N.am    1  UNL1       -0.2661
      8 C          -0.7813    4.1023   22.3764 C.2     1  UNL1        0.2496
      9 O          -0.2537    5.4071   22.8954 O.2     1  UNL1       -0.2699
     10 C           1.6355    3.2786   21.5855 C.3     1  UNL1        0.1236
     11 C           4.3359   -4.8759   18.8180 C.3     1  UNL1        0.0521
     12 C           4.6224   -3.4075   18.7107 C.ar    1  UNL1        0.0609
     13 C           3.6862   -2.4134   19.3315 C.ar    1  UNL1        0.0339
     14 C           3.9726   -0.9449   19.2242 C.ar    1  UNL1        0.0855
     15 C           5.1952   -0.4704   18.4962 C.ar    1  UNL1        0.0398
     16 C           6.1314   -1.4645   17.8754 C.ar    1  UNL1        0.1000
     17 N           5.8450   -2.9330   17.9827 N.ar    1  UNL1       -0.2480
     18 C          -2.2453    3.7917   22.4783 C.ar    1  UNL1        0.0543
     19 C          -3.0877    3.7338   21.2386 C.ar    1  UNL1        0.0148
     20 C          -4.5517    3.4231   21.3404 C.ar    1  UNL1        0.0686
     21 C          -5.1732    3.1703   22.6819 C.ar    1  UNL1        0.0103
     22 C          -4.3308    3.2282   23.9218 C.ar    1  UNL1        0.0008
     23 C          -2.8668    3.5389   23.8199 C.ar    1  UNL1        0.0045
     24 C          -2.0244    3.5967   25.0596 C.ar    1  UNL1        0.0024
     25 C          -2.0004    4.8440   25.8925 C.ar    1  UNL1        0.0001
     26 C          -1.1579    4.9019   27.1323 C.ar    1  UNL1        0.0023
     27 C          -0.3395    3.7125   27.5390 C.ar    1  UNL1        0.0296
     28 C          -0.3634    2.4652   26.7062 C.ar    1  UNL1        0.1401
     29 F           0.4550    1.2758   27.1130 F       1  UNL1       -0.2042
     30 C          -1.2059    2.4073   25.4664 C.ar    1  UNL1        0.0296
     31 C          -5.3941    3.3653   20.1006 C.1     1  UNL1        0.1004
     32 N          -6.2365    3.3075   18.8609 N.1     1  UNL1       -0.1908
@<TRIPOS>BOND
     1    11    12    1
     2    12    13   ar
     3    13    14   ar
     4    14     1    1
     5     1     2   ar
     6     2     3   ar
     7     3     4   ar
     8     4     5   ar
     9     4     6    1
    10     6     7    1
    11     7     8   am
    12     8     9    2
    13     8    18    1
    14    18    19   ar
    15    19    20   ar
    16    20    31    1
    17    31    32    3
    18    20    21   ar
    19    21    22   ar
    20    22    23   ar
    21    23    24    1
    22    24    25   ar
    23    25    26   ar
    24    26    27   ar
    25    27    28   ar
    26    28    29    1
    27    28    30   ar
    28     7    10    1
    29    14    15   ar
    30    15    16   ar
    31    16    17   ar
    32    17    12   ar
    33     5     1   ar
    34    23    18   ar
    35    30    24   ar
    36    10     3    1
@<TRIPOS>MOLECULE
*****
 32 36 0 0 0
SMALL
GASTEIGER

@<TRIPOS>ATOM
      1 N           0.1045    2.4136   21.1751 N.ar    1  UNL1       -0.2286
      2 C          -0.1966    1.5701   19.9718 C.ar    1  UNL1        0.0990
      3 C           1.1077    1.1637   19.3525 C.ar    1  UNL1        0.0338
      4 C           2.2150    1.7559   20.1730 C.ar    1  UNL1        0.0981
      5 N           1.5950    2.5284   21.2995 N.ar    1  UNL1       -0.1680
      6 C           3.5193    1.3495   19.5538 C.3     1  UNL1        0.1414
      7 N           3.2182    0.5059   18.3504 N.am    1  UNL1       -0.2661
      8 C           4.2298   -0.1139   17.4327 C.2     1  UNL1        0.2496
      9 O           3.7768   -0.9367   16.2632 O.2     1  UNL1       -0.2699
     10 C           1.7277    0.3912   18.2261 C.3     1  UNL1        0.1236
     11 C          -1.4747    3.6152   25.9774 C.3     1  UNL1        0.0521
     12 C          -1.6968    3.6343   24.4941 C.ar    1  UNL1        0.0609
     13 C          -0.6851    3.0144   23.5762 C.ar    1  UNL1        0.0339
     14 C          -0.9071    3.0334   22.0928 C.ar    1  UNL1        0.0855
     15 C          -2.1408    3.6723   21.5273 C.ar    1  UNL1        0.0398
     16 C          -3.1525    4.2921   22.4452 C.ar    1  UNL1        0.1000
     17 N          -2.9304    4.2731   23.9285 N.ar    1  UNL1       -0.2480
     18 C           5.6945    0.0891   17.6844 C.ar    1  UNL1        0.0543
     19 C           6.4162    1.2315   17.0331 C.ar    1  UNL1        0.0148
     20 C           7.8810    1.4345   17.2848 C.ar    1  UNL1        0.0686
     21 C           8.6241    0.4951   18.1877 C.ar    1  UNL1        0.0103
     22 C           7.9024   -0.6473   18.8391 C.ar    1  UNL1        0.0008
     23 C           6.4377   -0.8503   18.5874 C.ar    1  UNL1        0.0045
     24 C           5.7161   -1.9926   19.2387 C.ar    1  UNL1        0.0024
     25 C           5.1481   -1.8324   20.6178 C.ar    1  UNL1        0.0001
     26 C           4.4264   -2.9747   21.2691 C.ar    1  UNL1        0.0023
     27 C           4.2727   -4.2773   20.5414 C.ar    1  UNL1        0.0296
     28 C           4.8407   -4.4377   19.1624 C.ar    1  UNL1        0.1401
     29 F           4.6870   -5.7403   18.4347 F       1  UNL1       -0.2042
     30 C           5.5624   -3.2953   18.5110 C.ar    1  UNL1        0.0296
     31 C           8.6026    2.5769   16.6334 C.1     1  UNL1        0.1004
     32 N           9.3240    3.7193   15.9820 N.1     1  UNL1       -0.1908
@<TRIPOS>BOND
     1    11    12    1
     2    12    13   ar
     3    13    14   ar
     4    14     1    1
     5     1     2   ar
     6     2     3   ar
     7     3     4   ar
     8     4     5   ar
     9     4     6    1
    10     6     7    1
    11     7     8   am
    12     8     9    2
    13     8    18    1
    14    18    19   ar
    15    19    20   ar
    16    20    31    1
    17    31    32    3
    18    20    21   ar
    19    21    22   ar
    20    22    23   ar
    21    23    24    1
    22    24    25   ar
    23    25    26   ar
    24    26    27   ar
    25    27    28   ar
    26    28    29    1
    27    28    30   ar
    28     7    10    1
    29    14    15   ar
    30    15    16   ar
    31    16    17   ar
    32    17    12   ar
    33     5     1   ar
    34    23    18   ar
    35    30    24   ar
    36    10     3    1
@<TRIPOS>MOLECULE
*****
 32 36 0 0 0
SMALL
GASTEIGER

@<TRIPOS>ATOM
      1 N           5.6815   -1.8128   27.6787 N.ar    1  UNL1       -0.2286
      2 C           6.6416   -1.0488   26.8157 C.ar    1  UNL1        0.0990
      3 C           5.9164   -0.6354   25.5695 C.ar    1  UNL1        0.0338
      4 C           4.5083   -1.1437   25.6622 C.ar    1  UNL1        0.0981
      5 N           4.3631   -1.8714   26.9658 N.ar    1  UNL1       -0.1680
      6 C           3.7831   -0.7302   24.4159 C.3     1  UNL1        0.1414
      7 N           4.7432    0.0337   23.5528 N.am    1  UNL1       -0.2661
      8 C           4.4383    0.6337   22.2124 C.2     1  UNL1        0.2496
      9 O           5.5054    1.3739   21.4617 O.2     1  UNL1       -0.2699
     10 C           6.0616    0.0923   24.2658 C.3     1  UNL1        0.1236
     11 C           7.4185   -5.7871   30.5401 C.3     1  UNL1        0.0521
     12 C           6.8549   -4.3999   30.4500 C.ar    1  UNL1        0.0609
     13 C           6.5500   -3.7999   29.1095 C.ar    1  UNL1        0.0339
     14 C           5.9864   -2.4127   29.0193 C.ar    1  UNL1        0.0855
     15 C           5.7276   -1.6255   30.2696 C.ar    1  UNL1        0.0398
     16 C           6.0325   -2.2256   31.6102 C.ar    1  UNL1        0.1000
     17 N           6.5961   -3.6128   31.7004 N.ar    1  UNL1       -0.2480
     18 C           3.0664    0.4934   21.6224 C.ar    1  UNL1        0.0543
     19 C           2.0235    1.5371   21.8926 C.ar    1  UNL1        0.0148
     20 C           0.6515    1.3969   21.3026 C.ar    1  UNL1        0.0686
     21 C           0.3224    0.2130   20.4424 C.ar    1  UNL1        0.0103
     22 C           1.3653   -0.8308   20.1722 C.ar    1  UNL1        0.0008
     23 C           2.7372   -0.6906   20.7622 C.ar    1  UNL1        0.0045
     24 C           3.7801   -1.7343   20.4920 C.ar    1  UNL1        0.0024
     25 C           4.0001   -2.8466   21.4740 C.ar    1  UNL1        0.0001
     26 C           5.0430   -3.8903   21.2038 C.ar    1  UNL1        0.0023
     27 C           5.8659   -3.8218   19.9516 C.ar    1  UNL1        0.0296
     28 C           5.6460   -2.7096   18.9695 C.ar    1  UNL1        0.1401
     29 F           6.4689   -2.6410   17.7173 F       1  UNL1       -0.2042
     30 C           4.6031   -1.6658   19.2397 C.ar    1  UNL1        0.0296
     31 C          -0.3913    2.4407   21.5728 C.1     1  UNL1        0.1004
     32 N          -1.4342    3.4844   21.8432 N.1     1  UNL1       -0.1908
@<TRIPOS>BOND
     1    11    12    1
     2    12    13   ar
     3    13    14   ar
     4    14     1    1
     5     1     2   ar
     6     2     3   ar
     7     3     4   ar
     8     4     5   ar
     9     4     6    1
    10     6     7    1
    11     7     8   am
    12     8     9    2
    13     8    18    1
    14    18    19   ar
    15    19    20   ar
    16    20    31    1
    17    31    32    3
    18    20    21   ar
    19    21    22   ar
    20    22    23   ar
    21    23    24    1
    22    24    25   ar
    23    25    26   ar
    24    26    27   ar
    25    27    28   ar
    26    28    29    1
    27    28    30   ar
    28     7    10    1
    29    14    15   ar
    30    15    16   ar
    31    16    17   ar
    32    17    12   ar
    33     5     1   ar
    34    23    18   ar
    35    30    24   ar
    36    10     3    1
@<TRIPOS>MOLECULE
*****
 32 36 0 0 0
SMALL
GASTEIGER

@<TRIPOS>ATOM
      1 N           1.4733    1.0858   19.7518 N.ar    1  UNL1       -0.2286
      2 C           1.8320    2.4920   20.1312 C.ar    1  UNL1        0.0990
      3 C           0.5772    3.1887   20.5671 C.ar    1  UNL1        0.0338
      4 C          -0.5569    2.2132   20.4571 C.ar    1  UNL1        0.0981
      5 N          -0.0031    0.9134   19.9532 N.ar    1  UNL1       -0.1680
      6 C          -1.8117    2.9099   20.8930 C.3     1  UNL1        0.1414
      7 N          -1.4531    4.3162   21.2725 N.am    1  UNL1       -0.2661
      8 C          -2.4039    5.3658   21.7665 C.2     1  UNL1        0.2496
      9 O          -1.8972    6.7356   22.1089 O.2     1  UNL1       -0.2699
     10 C           0.0233    4.4885   21.0710 C.3     1  UNL1        0.1236
     11 C           4.1402   -3.3026   20.5455 C.3     1  UNL1        0.0521
     12 C           3.7576   -2.1582   19.6546 C.ar    1  UNL1        0.0609
     13 C           2.8068   -1.1084   20.1486 C.ar    1  UNL1        0.0339
     14 C           2.4242    0.0361   19.2577 C.ar    1  UNL1        0.0855
     15 C           2.9924    0.1310   17.8728 C.ar    1  UNL1        0.0398
     16 C           3.9433   -0.9188   17.3788 C.ar    1  UNL1        0.1000
     17 N           4.3259   -2.0633   18.2696 N.ar    1  UNL1       -0.2480
     18 C          -3.8615    5.0458   21.9183 C.ar    1  UNL1        0.0543
     19 C          -4.7758    5.1321   20.7323 C.ar    1  UNL1        0.0148
     20 C          -6.2334    4.8121   20.8841 C.ar    1  UNL1        0.0686
     21 C          -6.7767    4.4058   22.2218 C.ar    1  UNL1        0.0103
     22 C          -5.8625    4.3195   23.4079 C.ar    1  UNL1        0.0008
     23 C          -4.4049    4.6395   23.2561 C.ar    1  UNL1        0.0045
     24 C          -3.4906    4.5532   24.4421 C.ar    1  UNL1        0.0024
     25 C          -3.3792    5.7112   25.3890 C.ar    1  UNL1        0.0001
     26 C          -2.4649    5.6249   26.5751 C.ar    1  UNL1        0.0023
     27 C          -1.6621    4.3806   26.8142 C.ar    1  UNL1        0.0296
     28 C          -1.7735    3.2226   25.8674 C.ar    1  UNL1        0.1401
     29 F          -0.9707    1.9783   26.1065 F       1  UNL1       -0.2042
     30 C          -2.6878    3.3088   24.6813 C.ar    1  UNL1        0.0296
     31 C          -7.1476    4.8984   19.6980 C.1     1  UNL1        0.1004
     32 N          -8.0617    4.9849   18.5118 N.1     1  UNL1       -0.1908
@<TRIPOS>BOND
     1    11    12    1
     2    12    13   ar
     3    13    14   ar
     4    14     1    1
     5     1     2   ar
     6     2     3   ar
     7     3     4   ar
     8     4     5   ar
     9     4     6    1
    10     6     7    1
    11     7     8   am
    12     8     9    2
    13     8    18    1
    14    18    19   ar
    15    19    20   ar
    16    20    31    1
    17    31    32    3
    18    20    21   ar
    19    21    22   ar
    20    22    23   ar
    21    23    24    1
    22    24    25   ar
    23    25    26   ar
    24    26    27   ar
    25    27    28   ar
    26    28    29    1
    27    28    30   ar
    28     7    10    1
    29    14    15   ar
    30    15    16   ar
    31    16    17   ar
    32    17    12   ar
    33     5     1   ar
    34    23    18   ar
    35    30    24   ar
    36    10     3    1
@<TRIPOS>MOLECULE
*****
 32 36 0 0 0
SMALL
GASTEIGER

@<TRIPOS>ATOM
      1 N           2.0107    1.3862   19.1311 N.ar    1  UNL1       -0.2286
      2 C           2.0175    2.8580   18.8420 C.ar    1  UNL1        0.0990
      3 C           0.7634    3.4486   19.4149 C.ar    1  UNL1        0.0338
      4 C          -0.0185    2.3418   20.0580 C.ar    1  UNL1        0.0981
      5 N           0.7524    1.0671   19.8826 N.ar    1  UNL1       -0.1680
      6 C          -1.2727    2.9325   20.6309 C.3     1  UNL1        0.1414
      7 N          -1.2659    4.4044   20.3419 N.am    1  UNL1       -0.2661
      8 C          -2.3305    5.3850   20.7353 C.2     1  UNL1        0.2496
      9 O          -2.1858    6.8340   20.3750 O.2     1  UNL1       -0.2699
     10 C          -0.0075    4.7234   19.5903 C.3     1  UNL1        0.1236
     11 C           3.8360   -3.4780   19.0385 C.3     1  UNL1        0.0521
     12 C           3.9880   -2.0267   18.6914 C.ar    1  UNL1        0.0609
     13 C           2.9234   -1.0459   19.0848 C.ar    1  UNL1        0.0339
     14 C           3.0754    0.4054   18.7377 C.ar    1  UNL1        0.0855
     15 C           4.2920    0.8761   17.9972 C.ar    1  UNL1        0.0398
     16 C           5.3566   -0.1047   17.6038 C.ar    1  UNL1        0.1000
     17 N           5.2046   -1.5561   17.9509 N.ar    1  UNL1       -0.2480
     18 C          -3.5400    4.9169   21.4889 C.ar    1  UNL1        0.0543
     19 C          -3.4782    4.7524   22.9786 C.ar    1  UNL1        0.0148
     20 C          -4.6878    4.2842   23.7323 C.ar    1  UNL1        0.0686
     21 C          -5.9590    3.9805   22.9963 C.ar    1  UNL1        0.0103
     22 C          -6.0208    4.1450   21.5066 C.ar    1  UNL1        0.0008
     23 C          -4.8113    4.6132   20.7529 C.ar    1  UNL1        0.0045
     24 C          -4.8731    4.7777   19.2633 C.ar    1  UNL1        0.0024
     25 C          -5.5094    5.9993   18.6693 C.ar    1  UNL1        0.0001
     26 C          -5.5712    6.1638   17.1797 C.ar    1  UNL1        0.0023
     27 C          -4.9966    5.1066   16.2839 C.ar    1  UNL1        0.0296
     28 C          -4.3603    3.8850   16.8777 C.ar    1  UNL1        0.1401
     29 F          -3.7858    2.8279   15.9820 F       1  UNL1       -0.2042
     30 C          -4.2985    3.7205   18.3675 C.ar    1  UNL1        0.0296
     31 C          -4.6259    4.1197   25.2219 C.1     1  UNL1        0.1004
     32 N          -4.5639    3.9552   26.7116 N.1     1  UNL1       -0.1908
@<TRIPOS>BOND
     1    11    12    1
     2    12    13   ar
     3    13    14   ar
     4    14     1    1
     5     1     2   ar
     6     2     3   ar
     7     3     4   ar
     8     4     5   ar
     9     4     6    1
    10     6     7    1
    11     7     8   am
    12     8     9    2
    13     8    18    1
    14    18    19   ar
    15    19    20   ar
    16    20    31    1
    17    31    32    3
    18    20    21   ar
    19    21    22   ar
    20    22    23   ar
    21    23    24    1
    22    24    25   ar
    23    25    26   ar
    24    26    27   ar
    25    27    28   ar
    26    28    29    1
    27    28    30   ar
    28     7    10    1
    29    14    15   ar
    30    15    16   ar
    31    16    17   ar
    32    17    12   ar
    33     5     1   ar
    34    23    18   ar
    35    30    24   ar
    36    10     3    1
@<TRIPOS>MOLECULE
*****
 32 36 0 0 0
SMALL
GASTEIGER

@<TRIPOS>ATOM
      1 N           1.4534    1.3255   25.1423 N.ar    1  UNL1       -0.2286
      2 C           0.5376    0.9917   24.0022 C.ar    1  UNL1        0.0990
      3 C           1.3661    0.8936   22.7556 C.ar    1  UNL1        0.0338
      4 C           2.7939    1.1667   23.1253 C.ar    1  UNL1        0.0981
      5 N           2.8479    1.4336   24.6003 N.ar    1  UNL1       -0.1680
      6 C           3.6224    1.0685   21.8787 C.3     1  UNL1        0.1414
      7 N           2.7066    0.7348   20.7385 N.am    1  UNL1       -0.2661
      8 C           3.1137    0.5428   19.3077 C.2     1  UNL1        0.2496
      9 O           2.0808    0.2103   18.2720 O.2     1  UNL1       -0.2699
     10 C           1.3121    0.6266   21.2805 C.3     1  UNL1        0.1236
     11 C          -1.7139    0.2109   29.1079 C.3     1  UNL1        0.0521
     12 C          -0.5375    0.9601   28.5560 C.ar    1  UNL1        0.0609
     13 C          -0.1302    0.7682   27.1251 C.ar    1  UNL1        0.0339
     14 C           1.0462    1.5174   26.5731 C.ar    1  UNL1        0.0855
     15 C           1.8155    2.4585   27.4521 C.ar    1  UNL1        0.0398
     16 C           1.4083    2.6504   28.8829 C.ar    1  UNL1        0.1000
     17 N           0.2319    1.9012   29.4349 N.ar    1  UNL1       -0.2480
     18 C           4.5538    0.6834   18.9124 C.ar    1  UNL1        0.0543
     19 C           5.0746    2.0063   18.4341 C.ar    1  UNL1        0.0148
     20 C           6.5148    2.1469   18.0388 C.ar    1  UNL1        0.0686
     21 C           7.4341    0.9646   18.1218 C.ar    1  UNL1        0.0103
     22 C           6.9134   -0.3584   18.6001 C.ar    1  UNL1        0.0008
     23 C           5.4733   -0.4989   18.9954 C.ar    1  UNL1        0.0045
     24 C           4.9525   -1.8218   19.4737 C.ar    1  UNL1        0.0024
     25 C           4.3162   -2.7725   18.5035 C.ar    1  UNL1        0.0001
     26 C           3.7954   -4.0954   18.9819 C.ar    1  UNL1        0.0023
     27 C           3.9110   -4.4675   20.4303 C.ar    1  UNL1        0.0296
     28 C           4.5474   -3.5169   21.4005 C.ar    1  UNL1        0.1401
     29 F           4.6630   -3.8891   22.8490 F       1  UNL1       -0.2042
     30 C           5.0682   -2.1940   20.9223 C.ar    1  UNL1        0.0296
     31 C           7.0354    3.4698   17.5605 C.1     1  UNL1        0.1004
     32 N           7.5562    4.7927   17.0822 N.1     1  UNL1       -0.1908
@<TRIPOS>BOND
     1    11    12    1
     2    12    13   ar
     3    13    14   ar
     4    14     1    1
     5     1     2   ar
     6     2     3   ar
     7     3     4   ar
     8     4     5   ar
     9     4     6    1
    10     6     7    1
    11     7     8   am
    12     8     9    2
    13     8    18    1
    14    18    19   ar
    15    19    20   ar
    16    20    31    1
    17    31    32    3
    18    20    21   ar
    19    21    22   ar
    20    22    23   ar
    21    23    24    1
    22    24    25   ar
    23    25    26   ar
    24    26    27   ar
    25    27    28   ar
    26    28    29    1
    27    28    30   ar
    28     7    10    1
    29    14    15   ar
    30    15    16   ar
    31    16    17   ar
    32    17    12   ar
    33     5     1   ar
    34    23    18   ar
    35    30    24   ar
    36    10     3    1
@<TRIPOS>MOLECULE
*****
 32 36 0 0 0
SMALL
GASTEIGER

@<TRIPOS>ATOM
      1 N           1.6273    0.8352   26.5058 N.ar    1  UNL1       -0.2286
      2 C           0.5991    1.3013   25.5181 C.ar    1  UNL1        0.0990
      3 C           1.0853    0.9515   24.1429 C.ar    1  UNL1        0.0338
      4 C           2.4140    0.2691   24.2806 C.ar    1  UNL1        0.0981
      5 N           2.7490    0.1973   25.7410 N.ar    1  UNL1       -0.1680
      6 C           2.9002   -0.0807   22.9054 C.3     1  UNL1        0.1414
      7 N           1.8720    0.3854   21.9177 N.am    1  UNL1       -0.2661
      8 C           1.9515    0.2393   20.4270 C.2     1  UNL1        0.2496
      9 O           0.8405    0.7571   19.5623 O.2     1  UNL1       -0.2699
     10 C           0.7503    1.0233   22.6826 C.3     1  UNL1        0.1236
     11 C           3.0848   -0.6745   31.2593 C.3     1  UNL1        0.0521
     12 C           2.2766    0.2264   30.3734 C.ar    1  UNL1        0.0609
     13 C           2.3560    0.0804   28.8826 C.ar    1  UNL1        0.0339
     14 C           1.5478    0.9813   27.9965 C.ar    1  UNL1        0.0855
     15 C           0.6602    2.0284   28.6012 C.ar    1  UNL1        0.0398
     16 C           0.5807    2.1745   30.0920 C.ar    1  UNL1        0.1000
     17 N           1.3889    1.2735   30.9781 N.ar    1  UNL1       -0.2480
     18 C           3.1419   -0.4247   19.8009 C.ar    1  UNL1        0.0543
     19 C           3.2196   -1.9214   19.7391 C.ar    1  UNL1        0.0148
     20 C           4.4101   -2.5854   19.1129 C.ar    1  UNL1        0.0686
     21 C           5.5228   -1.7528   18.5487 C.ar    1  UNL1        0.0103
     22 C           5.4451   -0.2560   18.6106 C.ar    1  UNL1        0.0008
     23 C           4.2547    0.4080   19.2367 C.ar    1  UNL1        0.0045
     24 C           4.1770    1.9047   19.2985 C.ar    1  UNL1        0.0024
     25 C           4.7690    2.6388   20.4650 C.ar    1  UNL1        0.0001
     26 C           4.6913    4.1355   20.5269 C.ar    1  UNL1        0.0023
     27 C           4.0217    4.8981   19.4222 C.ar    1  UNL1        0.0296
     28 C           3.4298    4.1640   18.2558 C.ar    1  UNL1        0.1401
     29 F           2.7602    4.9266   17.1512 F       1  UNL1       -0.2042
     30 C           3.5074    2.6673   18.1939 C.ar    1  UNL1        0.0296
     31 C           4.4876   -4.0821   19.0511 C.1     1  UNL1        0.1004
     32 N           4.5651   -5.5788   18.9892 N.1     1  UNL1       -0.1908
@<TRIPOS>BOND
     1    11    12    1
     2    12    13   ar
     3    13    14   ar
     4    14     1    1
     5     1     2   ar
     6     2     3   ar
     7     3     4   ar
     8     4     5   ar
     9     4     6    1
    10     6     7    1
    11     7     8   am
    12     8     9    2
    13     8    18    1
    14    18    19   ar
    15    19    20   ar
    16    20    31    1
    17    31    32    3
    18    20    21   ar
    19    21    22   ar
    20    22    23   ar
    21    23    24    1
    22    24    25   ar
    23    25    26   ar
    24    26    27   ar
    25    27    28   ar
    26    28    29    1
    27    28    30   ar
    28     7    10    1
    29    14    15   ar
    30    15    16   ar
    31    16    17   ar
    32    17    12   ar
    33     5     1   ar
    34    23    18   ar
    35    30    24   ar
    36    10     3    1
@<TRIPOS>MOLECULE
*****
 32 36 0 0 0
SMALL
GASTEIGER

@<TRIPOS>ATOM
      1 N          -1.9683    3.2114   21.4943 N.ar    1  UNL1       -0.2286
      2 C          -0.8482    3.4858   22.4535 C.ar    1  UNL1        0.0990
      3 C           0.3200    2.6319   22.0584 C.ar    1  UNL1        0.0338
      4 C          -0.0781    1.8297   20.8550 C.ar    1  UNL1        0.0981
      5 N          -1.4923    2.1879   20.5064 N.ar    1  UNL1       -0.1680
      6 C           1.0901    0.9758   20.4599 C.3     1  UNL1        0.1414
      7 N           2.2103    1.2502   21.4192 N.am    1  UNL1       -0.2661
      8 C           3.5679    0.6130   21.3947 C.2     1  UNL1        0.2496
      9 O           4.5916    0.9890   22.4247 O.2     1  UNL1       -0.2699
     10 C           1.7343    2.2737   22.4070 C.3     1  UNL1        0.1236
     11 C          -6.6272    3.9609   19.3188 C.3     1  UNL1        0.0521
     12 C          -5.6555    4.2234   20.4309 C.ar    1  UNL1        0.0609
     13 C          -4.2977    3.5862   20.4066 C.ar    1  UNL1        0.0339
     14 C          -3.3260    3.8487   21.5187 C.ar    1  UNL1        0.0855
     15 C          -3.7119    4.7484   22.6552 C.ar    1  UNL1        0.0398
     16 C          -5.0696    5.3856   22.6795 C.ar    1  UNL1        0.1000
     17 N          -6.0414    5.1231   21.5674 N.ar    1  UNL1       -0.2480
     18 C           3.9020   -0.4003   20.3404 C.ar    1  UNL1        0.0543
     19 C           3.6687   -1.8589   20.6013 C.ar    1  UNL1        0.0148
     20 C           4.0028   -2.8723   19.5469 C.ar    1  UNL1        0.0686
     21 C           4.5701   -2.4270   18.2318 C.ar    1  UNL1        0.0103
     22 C           4.8035   -0.9684   17.9708 C.ar    1  UNL1        0.0008
     23 C           4.4694    0.0449   19.0252 C.ar    1  UNL1        0.0045
     24 C           4.7028    1.5035   18.7643 C.ar    1  UNL1        0.0024
     25 C           6.0485    2.1081   19.0357 C.ar    1  UNL1        0.0001
     26 C           6.2818    3.5666   18.7748 C.ar    1  UNL1        0.0023
     27 C           5.1695    4.4207   18.2425 C.ar    1  UNL1        0.0296
     28 C           3.8238    3.8162   17.9711 C.ar    1  UNL1        0.1401
     29 F           2.7115    4.6702   17.4388 F       1  UNL1       -0.2042
     30 C           3.5904    2.3576   18.2320 C.ar    1  UNL1        0.0296
     31 C           3.7694   -4.3308   19.8079 C.1     1  UNL1        0.1004
     32 N           3.5359   -5.7894   20.0688 N.1     1  UNL1       -0.1908
@<TRIPOS>BOND
     1    11    12    1
     2    12    13   ar
     3    13    14   ar
     4    14     1    1
     5     1     2   ar
     6     2     3   ar
     7     3     4   ar
     8     4     5   ar
     9     4     6    1
    10     6     7    1
    11     7     8   am
    12     8     9    2
    13     8    18    1
    14    18    19   ar
    15    19    20   ar
    16    20    31    1
    17    31    32    3
    18    20    21   ar
    19    21    22   ar
    20    22    23   ar
    21    23    24    1
    22    24    25   ar
    23    25    26   ar
    24    26    27   ar
    25    27    28   ar
    26    28    29    1
    27    28    30   ar
    28     7    10    1
    29    14    15   ar
    30    15    16   ar
    31    16    17   ar
    32    17    12   ar
    33     5     1   ar
    34    23    18   ar
    35    30    24   ar
    36    10     3    1
@<TRIPOS>MOLECULE
*****
 32 36 0 0 0
SMALL
GASTEIGER

@<TRIPOS>ATOM
      1 N           2.9003    0.9123   27.2775 N.ar    1  UNL1       -0.2286
      2 C           3.5297    1.9862   26.4405 C.ar    1  UNL1        0.0990
      3 C           3.9552    1.3709   25.1404 C.ar    1  UNL1        0.0338
      4 C           3.5888   -0.0833   25.1739 C.ar    1  UNL1        0.0981
      5 N           2.9369   -0.3667   26.4948 N.ar    1  UNL1       -0.1680
      6 C           4.0143   -0.6986   23.8738 C.3     1  UNL1        0.1414
      7 N           4.6437    0.3753   23.0367 N.am    1  UNL1       -0.2661
      8 C           5.2102    0.2008   21.6589 C.2     1  UNL1        0.2496
      9 O           5.8107    1.3729   20.9408 O.2     1  UNL1       -0.2699
     10 C           4.6071    1.6543   23.8196 C.3     1  UNL1        0.1236
     11 C           3.3319    0.3487   32.4250 C.3     1  UNL1        0.0521
     12 C           2.5496    0.8050   31.2292 C.ar    1  UNL1        0.0609
     13 C           3.1160    0.6305   29.8513 C.ar    1  UNL1        0.0339
     14 C           2.3338    1.0868   28.6555 C.ar    1  UNL1        0.0855
     15 C           0.9851    1.7175   28.8376 C.ar    1  UNL1        0.0398
     16 C           0.4187    1.8919   30.2156 C.ar    1  UNL1        0.1000
     17 N           1.2009    1.4357   31.4114 N.ar    1  UNL1       -0.2480
     18 C           5.1762   -1.1458   20.9989 C.ar    1  UNL1        0.0543
     19 C           6.2899   -2.1232   21.2314 C.ar    1  UNL1        0.0148
     20 C           6.2559   -3.4699   20.5714 C.ar    1  UNL1        0.0686
     21 C           5.1082   -3.8390   19.6791 C.ar    1  UNL1        0.0103
     22 C           3.9943   -2.8615   19.4466 C.ar    1  UNL1        0.0008
     23 C           4.0284   -1.5150   20.1065 C.ar    1  UNL1        0.0045
     24 C           2.9146   -0.5375   19.8741 C.ar    1  UNL1        0.0024
     25 C           1.5795   -0.7535   20.5228 C.ar    1  UNL1        0.0001
     26 C           0.4657    0.2240   20.2904 C.ar    1  UNL1        0.0023
     27 C           0.6871    1.4175   19.4092 C.ar    1  UNL1        0.0296
     28 C           2.0221    1.6336   18.7604 C.ar    1  UNL1        0.1401
     29 F           2.2434    2.8271   17.8792 F       1  UNL1       -0.2042
     30 C           3.1359    0.6561   18.9928 C.ar    1  UNL1        0.0296
     31 C           7.3697   -4.4473   20.8039 C.1     1  UNL1        0.1004
     32 N           8.4835   -5.4248   21.0365 N.1     1  UNL1       -0.1908
@<TRIPOS>BOND
     1    11    12    1
     2    12    13   ar
     3    13    14   ar
     4    14     1    1
     5     1     2   ar
     6     2     3   ar
     7     3     4   ar
     8     4     5   ar
     9     4     6    1
    10     6     7    1
    11     7     8   am
    12     8     9    2
    13     8    18    1
    14    18    19   ar
    15    19    20   ar
    16    20    31    1
    17    31    32    3
    18    20    21   ar
    19    21    22   ar
    20    22    23   ar
    21    23    24    1
    22    24    25   ar
    23    25    26   ar
    24    26    27   ar
    25    27    28   ar
    26    28    29    1
    27    28    30   ar
    28     7    10    1
    29    14    15   ar
    30    15    16   ar
    31    16    17   ar
    32    17    12   ar
    33     5     1   ar
    34    23    18   ar
    35    30    24   ar
    36    10     3    1
