@<TRIPOS>MOLECULE
*****
 51 55 0 0 0
SMALL
GASTEIGER

@<TRIPOS>ATOM
      1 C           1.0709    1.8809   28.3575 C.3     1  UNL1        0.1248
      2 N           1.6127    2.1443   29.7312 N.am    1  UNL1       -0.2734
      3 C           1.7776    1.0129   30.7021 C.2     1  UNL1        0.2506
      4 O           1.4007   -0.3820   30.2993 O.2     1  UNL1       -0.2699
      5 C           1.9896    3.5392   30.1340 C.3     1  UNL1        0.0939
      6 C           1.8247    4.6707   29.1632 C.3     1  UNL1        0.0257
      7 C           1.2829    4.4073   27.7895 C.3     1  UNL1        0.0525
      8 C           0.9060    3.0124   27.3867 C.3     1  UNL1        0.2173
      9 C           0.5697    3.7482   26.1236 C.2     1  UNL1        0.2636
     10 O           1.0526    4.1177   25.4794 O.2     1  UNL1       -0.2711
     11 N          -0.8643    3.9782   25.7486 N.am    1  UNL1       -0.2732
     12 C          -1.9621    3.4724   26.6369 C.3     1  UNL1        0.1149
     13 C          -3.3962    3.7024   26.2621 C.3     1  UNL1        0.1124
     14 N          -3.7325    4.4382   24.9990 N.pl3   1  UNL1       -0.3017
     15 C          -2.6347    4.9440   24.1107 C.3     1  UNL1        0.1124
     16 C          -1.2007    4.7140   24.4855 C.3     1  UNL1        0.1149
     17 C          -5.1666    4.6682   24.6241 C.ar    1  UNL1        0.0824
     18 C          -6.0036    5.6294   25.4151 C.ar    1  UNL1        0.0176
     19 C          -7.4376    5.8594   25.0402 C.ar    1  UNL1        0.0015
     20 C          -8.0347    5.1284   23.8744 C.ar    1  UNL1        0.0032
     21 C          -7.1976    4.1673   23.0835 C.ar    1  UNL1        0.0382
     22 C          -5.7636    3.9372   23.4583 C.ar    1  UNL1        0.1518
     23 O          -4.9266    2.9760   22.6673 O.3     1  UNL1       -0.4715
     24 C          -4.7863    3.1485   21.1839 C.3     1  UNL1        0.2374
     25 C          -3.4293    3.3494   20.5772 C.3     1  UNL1        0.1894
     26 O          -2.2113    2.8140   21.2699 O.3     1  UNL1       -0.3471
     27 C          -0.9010    2.7525   20.5425 C.3     1  UNL1        0.1743
     28 C           2.3193    1.2763   32.0758 C.ar    1  UNL1        0.0766
     29 C           1.5330    2.1079   33.0454 C.ar    1  UNL1        0.1033
     30 N           2.0749    2.3713   34.4192 N.ar    1  UNL1       -0.2422
     31 C           3.4029    1.8031   34.8232 C.ar    1  UNL1        0.0988
     32 C           4.1892    0.9715   33.8536 C.ar    1  UNL1        0.0247
     33 C           3.6475    0.7080   32.4799 C.ar    1  UNL1        0.0788
     34 C           4.4338   -0.1236   31.5103 C.3     1  UNL1        0.4188
     35 F           5.2201   -0.9552   30.5407 F       1  UNL1       -0.1659
     36 F           3.8157   -1.3677   32.0761 F       1  UNL1       -0.1659
     37 F           5.0519    1.1205   30.9445 F       1  UNL1       -0.1659
     38 C           0.6940    0.4861   27.9547 C.3     1  UNL1        0.0499
     39 C          -1.5664    0.5620   29.2332 C.2     1  UNL1       -0.0049
     40 C          -0.7191    0.0124   28.1242 C.2     1  UNL1       -0.0243
     41 O           0.4123    1.8731   26.5451 O.3     1  UNL1       -0.4723
     42 C           1.2273    1.3921   25.3813 C.ar    1  UNL1        0.1390
     43 C           2.6967    1.1405   25.5476 C.ar    1  UNL1        0.0369
     44 C           3.5116    0.6595   24.3838 C.ar    1  UNL1        0.0070
     45 C           2.8572    0.4299   23.0537 C.ar    1  UNL1        0.0716
     46 C           1.3878    0.6814   22.8874 C.ar    1  UNL1        0.0070
     47 C           0.5728    1.1625   24.0512 C.ar    1  UNL1        0.0369
     48 C           3.6721   -0.0511   21.8899 C.3     1  UNL1        0.4186
     49 F           4.4870   -0.5321   20.7261 F       1  UNL1       -0.1659
     50 F           2.9812   -1.3809   21.9557 F       1  UNL1       -0.1659
     51 F           4.3630    1.2786   21.8241 F       1  UNL1       -0.1659
@<TRIPOS>BOND
     1    39    40    2
     2    40    38    1
     3     1    38    1
     4     1     2    1
     5     2     3   am
     6     3     4    2
     7     3    28    1
     8    28    29   ar
     9    29    30   ar
    10    30    31   ar
    11    31    32   ar
    12    32    33   ar
    13    33    34    1
    14    34    35    1
    15    34    36    1
    16    34    37    1
    17     2     5    1
    18     5     6    1
    19     6     7    1
    20     7     8    1
    21     8    41    1
    22    41    42    1
    23    42    43   ar
    24    43    44   ar
    25    44    45   ar
    26    45    48    1
    27    48    49    1
    28    48    50    1
    29    48    51    1
    30    45    46   ar
    31    46    47   ar
    32     8     9    1
    33     9    10    2
    34     9    11   am
    35    11    12    1
    36    12    13    1
    37    13    14    1
    38    14    17    1
    39    17    18   ar
    40    18    19   ar
    41    19    20   ar
    42    20    21   ar
    43    21    22   ar
    44    22    23    1
    45    23    24    1
    46    24    25    1
    47    25    26    1
    48    26    27    1
    49    14    15    1
    50    15    16    1
    51     8     1    1
    52    47    42   ar
    53    16    11    1
    54    33    28   ar
    55    22    17   ar
@<TRIPOS>MOLECULE
*****
 51 55 0 0 0
SMALL
GASTEIGER

@<TRIPOS>ATOM
      1 C           1.0620    2.6407   28.8826 C.3     1  UNL1        0.1248
      2 N           1.5760    3.0169   30.2406 N.am    1  UNL1       -0.2734
      3 C           0.8472    2.5630   31.4706 C.2     1  UNL1        0.2506
      4 O          -0.3955    1.7328   31.3425 O.2     1  UNL1       -0.2699
      5 C           2.8188    3.8470   30.3686 C.3     1  UNL1        0.0939
      6 C           3.5476    4.3009   29.1387 C.3     1  UNL1        0.0257
      7 C           3.0336    3.9247   27.7807 C.3     1  UNL1        0.0525
      8 C           1.7908    3.0946   27.6526 C.3     1  UNL1        0.2173
      9 C           2.1288    3.2829   26.2034 C.2     1  UNL1        0.2636
     10 O           2.1376    3.9819   25.6593 O.2     1  UNL1       -0.2711
     11 N           2.5626    2.1096   25.3757 N.am    1  UNL1       -0.2732
     12 C           2.6584    0.7478   25.9973 C.3     1  UNL1        0.1149
     13 C           3.0922   -0.4256   25.1697 C.3     1  UNL1        0.1124
     14 N           3.4301   -0.2372   23.7205 N.pl3   1  UNL1       -0.3017
     15 C           3.3343    1.1246   23.0989 C.3     1  UNL1        0.1124
     16 C           2.9005    2.2979   23.9265 C.3     1  UNL1        0.1149
     17 C           3.8639   -1.4106   22.8928 C.ar    1  UNL1        0.0824
     18 C           4.6403   -2.5278   23.5245 C.ar    1  UNL1        0.0176
     19 C           5.0742   -3.7012   22.6969 C.ar    1  UNL1        0.0015
     20 C           4.7316   -3.7574   21.2376 C.ar    1  UNL1        0.0032
     21 C           3.9552   -2.6401   20.6059 C.ar    1  UNL1        0.0382
     22 C           3.5214   -1.4667   21.4335 C.ar    1  UNL1        0.1518
     23 O           2.7450   -0.3495   20.8019 O.3     1  UNL1       -0.4715
     24 C           1.3294   -0.5759   20.3603 C.3     1  UNL1        0.2374
     25 C           0.5396    0.5524   19.7659 C.3     1  UNL1        0.1894
     26 O          -0.5096    1.2457   20.5835 O.3     1  UNL1       -0.3471
     27 C          -0.1058    2.1905   21.6763 C.3     1  UNL1        0.1743
     28 C           1.3612    2.9392   32.8286 C.ar    1  UNL1        0.0766
     29 C           2.2419    1.9905   33.5865 C.ar    1  UNL1        0.1033
     30 N           2.7559    2.3668   34.9446 N.ar    1  UNL1       -0.2422
     31 C           2.3892    3.6917   35.5447 C.ar    1  UNL1        0.0988
     32 C           1.5085    4.6403   34.7868 C.ar    1  UNL1        0.0247
     33 C           0.9945    4.2641   33.4288 C.ar    1  UNL1        0.0788
     34 C           0.1138    5.2128   32.6709 C.3     1  UNL1        0.4188
     35 F          -0.7669    6.1614   31.9130 F       1  UNL1       -0.1659
     36 F          -1.0897    4.4067   33.0604 F       1  UNL1       -0.1659
     37 F           1.3173    6.0189   32.2814 F       1  UNL1       -0.1659
     38 C          -0.1807    1.8105   28.7545 C.3     1  UNL1        0.0499
     39 C          -1.3327   -0.5179   28.7184 C.2     1  UNL1       -0.0049
     40 C          -0.0845    0.3137   28.7390 C.2     1  UNL1       -0.0243
     41 O           0.6655    2.3299   27.0212 O.3     1  UNL1       -0.4723
     42 C          -0.5194    3.0620   26.4643 C.ar    1  UNL1        0.1390
     43 C          -1.2557    2.5070   25.2811 C.ar    1  UNL1        0.0369
     44 C          -2.4405    3.2392   24.7242 C.ar    1  UNL1        0.0070
     45 C          -2.8890    4.5263   25.3504 C.ar    1  UNL1        0.0716
     46 C          -2.1526    5.0813   26.5336 C.ar    1  UNL1        0.0070
     47 C          -0.9678    4.3492   27.0905 C.ar    1  UNL1        0.0369
     48 C          -4.0738    5.2585   24.7936 C.3     1  UNL1        0.4186
     49 F          -5.2585    5.9908   24.2367 F       1  UNL1       -0.1659
     50 F          -4.9880    4.4231   25.6399 F       1  UNL1       -0.1659
     51 F          -3.1596    6.0940   23.9473 F       1  UNL1       -0.1659
@<TRIPOS>BOND
     1    39    40    2
     2    40    38    1
     3     1    38    1
     4     1     2    1
     5     2     3   am
     6     3     4    2
     7     3    28    1
     8    28    29   ar
     9    29    30   ar
    10    30    31   ar
    11    31    32   ar
    12    32    33   ar
    13    33    34    1
    14    34    35    1
    15    34    36    1
    16    34    37    1
    17     2     5    1
    18     5     6    1
    19     6     7    1
    20     7     8    1
    21     8    41    1
    22    41    42    1
    23    42    43   ar
    24    43    44   ar
    25    44    45   ar
    26    45    48    1
    27    48    49    1
    28    48    50    1
    29    48    51    1
    30    45    46   ar
    31    46    47   ar
    32     8     9    1
    33     9    10    2
    34     9    11   am
    35    11    12    1
    36    12    13    1
    37    13    14    1
    38    14    17    1
    39    17    18   ar
    40    18    19   ar
    41    19    20   ar
    42    20    21   ar
    43    21    22   ar
    44    22    23    1
    45    23    24    1
    46    24    25    1
    47    25    26    1
    48    26    27    1
    49    14    15    1
    50    15    16    1
    51     8     1    1
    52    47    42   ar
    53    16    11    1
    54    33    28   ar
    55    22    17   ar
@<TRIPOS>MOLECULE
*****
 51 55 0 0 0
SMALL
GASTEIGER

@<TRIPOS>ATOM
      1 C           3.3704    0.7585   21.8094 C.3     1  UNL1        0.1248
      2 N           4.7400    0.4444   21.2844 N.am    1  UNL1       -0.2734
      3 C           5.1675   -0.9829   21.1107 C.2     1  UNL1        0.2506
      4 O           4.2254   -2.0960   21.4620 O.2     1  UNL1       -0.2699
      5 C           5.6820    1.5576   20.9331 C.3     1  UNL1        0.0939
      6 C           5.2546    2.9848   21.1068 C.3     1  UNL1        0.0257
      7 C           3.8850    3.2989   21.6318 C.3     1  UNL1        0.0525
      8 C           2.9430    2.1858   21.9831 C.3     1  UNL1        0.2173
      9 C           2.0848    3.3692   22.3194 C.2     1  UNL1        0.2636
     10 O           2.1751    4.0588   22.8680 O.2     1  UNL1       -0.2711
     11 N           0.7538    3.5449   21.6504 N.am    1  UNL1       -0.2732
     12 C           0.2810    2.5371   20.6451 C.3     1  UNL1        0.1149
     13 C          -1.0500    2.7127   19.9760 C.3     1  UNL1        0.1124
     14 N          -1.9081    3.8961   20.3123 N.pl3   1  UNL1       -0.3017
     15 C          -1.4352    4.9039   21.3177 C.3     1  UNL1        0.1124
     16 C          -0.1043    4.7283   21.9867 C.3     1  UNL1        0.1149
     17 C          -3.2391    4.0718   19.6433 C.ar    1  UNL1        0.0824
     18 C          -3.3417    4.8649   18.3743 C.ar    1  UNL1        0.0176
     19 C          -4.6727    5.0407   17.7052 C.ar    1  UNL1        0.0015
     20 C          -5.9010    4.4233   18.3052 C.ar    1  UNL1        0.0032
     21 C          -5.7984    3.6302   19.5742 C.ar    1  UNL1        0.0382
     22 C          -4.4675    3.4544   20.2433 C.ar    1  UNL1        0.1518
     23 O          -4.3649    2.6613   21.5123 O.3     1  UNL1       -0.4715
     24 C          -5.0781    3.1265   22.7472 C.3     1  UNL1        0.2374
     25 C          -4.3113    3.3500   24.0169 C.3     1  UNL1        0.1894
     26 O          -5.0431    3.5155   25.3158 O.3     1  UNL1       -0.3471
     27 C          -4.3225    4.0442   26.5204 C.3     1  UNL1        0.1743
     28 C           6.5370   -1.2970   20.5856 C.ar    1  UNL1        0.0766
     29 C           7.7146   -1.2969   21.5147 C.ar    1  UNL1        0.1033
     30 N           9.0842   -1.6110   20.9896 N.ar    1  UNL1       -0.2422
     31 C           9.2761   -1.9252   19.5355 C.ar    1  UNL1        0.0988
     32 C           8.0985   -1.9252   18.6064 C.ar    1  UNL1        0.0247
     33 C           6.7290   -1.6111   19.1315 C.ar    1  UNL1        0.0788
     34 C           5.5513   -1.6111   18.2024 C.3     1  UNL1        0.4188
     35 F           4.3737   -1.6112   17.2733 F       1  UNL1       -0.1659
     36 F           5.6971   -0.1297   18.0176 F       1  UNL1       -0.1659
     37 F           5.4056   -3.0926   18.3872 F       1  UNL1       -0.1659
     38 C           2.4284   -0.3546   22.1607 C.3     1  UNL1        0.0499
     39 C           1.7386   -0.5958   19.6675 C.2     1  UNL1       -0.0049
     40 C           1.5173   -0.9245   21.1142 C.2     1  UNL1       -0.0243
     41 O           1.7028    1.4837   22.4512 O.3     1  UNL1       -0.4723
     42 C           1.3784    1.4300   23.9147 C.ar    1  UNL1        0.1390
     43 C          -0.0493    1.4998   24.3695 C.ar    1  UNL1        0.0369
     44 C          -0.3737    1.4461   25.8330 C.ar    1  UNL1        0.0070
     45 C           0.7295    1.3225   26.8417 C.ar    1  UNL1        0.0716
     46 C           2.1573    1.2527   26.3870 C.ar    1  UNL1        0.0070
     47 C           2.4817    1.3064   24.9235 C.ar    1  UNL1        0.0369
     48 C           0.4052    1.2688   28.3053 C.3     1  UNL1        0.4186
     49 F           0.0808    1.2150   29.7688 F       1  UNL1       -0.1659
     50 F           1.7888    1.7488   28.6296 F       1  UNL1       -0.1659
     51 F          -0.9784    0.7888   27.9809 F       1  UNL1       -0.1659
@<TRIPOS>BOND
     1    39    40    2
     2    40    38    1
     3     1    38    1
     4     1     2    1
     5     2     3   am
     6     3     4    2
     7     3    28    1
     8    28    29   ar
     9    29    30   ar
    10    30    31   ar
    11    31    32   ar
    12    32    33   ar
    13    33    34    1
    14    34    35    1
    15    34    36    1
    16    34    37    1
    17     2     5    1
    18     5     6    1
    19     6     7    1
    20     7     8    1
    21     8    41    1
    22    41    42    1
    23    42    43   ar
    24    43    44   ar
    25    44    45   ar
    26    45    48    1
    27    48    49    1
    28    48    50    1
    29    48    51    1
    30    45    46   ar
    31    46    47   ar
    32     8     9    1
    33     9    10    2
    34     9    11   am
    35    11    12    1
    36    12    13    1
    37    13    14    1
    38    14    17    1
    39    17    18   ar
    40    18    19   ar
    41    19    20   ar
    42    20    21   ar
    43    21    22   ar
    44    22    23    1
    45    23    24    1
    46    24    25    1
    47    25    26    1
    48    26    27    1
    49    14    15    1
    50    15    16    1
    51     8     1    1
    52    47    42   ar
    53    16    11    1
    54    33    28   ar
    55    22    17   ar
@<TRIPOS>MOLECULE
*****
 51 55 0 0 0
SMALL
GASTEIGER

@<TRIPOS>ATOM
      1 C           1.3818    2.4803   29.0962 C.3     1  UNL1        0.1248
      2 N           1.7695    2.9192   30.4771 N.am    1  UNL1       -0.2734
      3 C           0.8839    2.5947   31.6436 C.2     1  UNL1        0.2506
      4 O          -0.3894    1.8314   31.4290 O.2     1  UNL1       -0.2699
      5 C           3.0427    3.6825   30.6917 C.3     1  UNL1        0.0939
      6 C           3.9283    4.0070   29.5254 C.3     1  UNL1        0.0257
      7 C           3.5406    3.5681   28.1444 C.3     1  UNL1        0.0525
      8 C           2.2673    2.8048   27.9298 C.3     1  UNL1        0.2173
      9 C           2.7716    2.8723   26.5188 C.2     1  UNL1        0.2636
     10 O           2.7799    3.5040   25.8978 O.2     1  UNL1       -0.2711
     11 N           3.4285    1.6747   25.8988 N.am    1  UNL1       -0.2732
     12 C           3.5812    0.4096   26.6901 C.3     1  UNL1        0.1149
     13 C           4.2382   -0.7880   26.0703 C.3     1  UNL1        0.1124
     14 N           4.7424   -0.7205   24.6592 N.pl3   1  UNL1       -0.3017
     15 C           4.5896    0.5447   23.8679 C.3     1  UNL1        0.1124
     16 C           3.9327    1.7423   24.4878 C.3     1  UNL1        0.1149
     17 C           5.3993   -1.9180   24.0393 C.ar    1  UNL1        0.0824
     18 C           6.6621   -2.4708   24.6308 C.ar    1  UNL1        0.0176
     19 C           7.3191   -3.6683   24.0110 C.ar    1  UNL1        0.0015
     20 C           6.7134   -4.3131   22.7997 C.ar    1  UNL1        0.0032
     21 C           5.4506   -3.7603   22.2081 C.ar    1  UNL1        0.0382
     22 C           4.7936   -2.5628   22.8280 C.ar    1  UNL1        0.1518
     23 O           3.5308   -2.0099   22.2364 O.3     1  UNL1       -0.4715
     24 C           3.5439   -1.4213   20.8568 C.3     1  UNL1        0.2374
     25 C           3.1495   -2.2621   19.6789 C.3     1  UNL1        0.1894
     26 O           4.0184   -2.2954   18.4567 O.3     1  UNL1       -0.3471
     27 C           5.3418   -3.0003   18.4964 C.3     1  UNL1        0.1743
     28 C           1.2716    3.0336   33.0245 C.ar    1  UNL1        0.0766
     29 C           2.0781    2.1230   33.9021 C.ar    1  UNL1        0.1033
     30 N           2.4658    2.5619   35.2831 N.ar    1  UNL1       -0.2422
     31 C           2.0470    3.9114   35.7864 C.ar    1  UNL1        0.0988
     32 C           1.2404    4.8220   34.9088 C.ar    1  UNL1        0.0247
     33 C           0.8527    4.3832   33.5279 C.ar    1  UNL1        0.0788
     34 C           0.0462    5.2938   32.6502 C.3     1  UNL1        0.4188
     35 F          -0.7603    6.2044   31.7726 F       1  UNL1       -0.1659
     36 F          -1.2135    4.6228   33.1116 F       1  UNL1       -0.1659
     37 F           1.3059    5.9648   32.1888 F       1  UNL1       -0.1659
     38 C           0.1085    1.7169   28.8816 C.3     1  UNL1        0.0499
     39 C          -1.1578   -0.5458   28.7186 C.2     1  UNL1       -0.0049
     40 C           0.1092    0.2192   28.9626 C.2     1  UNL1       -0.0243
     41 O           1.1692    2.0649   27.2251 O.3     1  UNL1       -0.4723
     42 C           0.1265    2.8226   26.4579 C.ar    1  UNL1        0.1390
     43 C          -0.5073    2.2074   25.2454 C.ar    1  UNL1        0.0369
     44 C          -1.5500    2.9651   24.4782 C.ar    1  UNL1        0.0070
     45 C          -1.9589    4.3379   24.9234 C.ar    1  UNL1        0.0716
     46 C          -1.3252    4.9531   26.1359 C.ar    1  UNL1        0.0070
     47 C          -0.2824    4.1954   26.9031 C.ar    1  UNL1        0.0369
     48 C          -3.0016    5.0956   24.1562 C.3     1  UNL1        0.4186
     49 F          -4.0444    5.8533   23.3891 F       1  UNL1       -0.1659
     50 F          -1.9260    5.7525   23.3429 F       1  UNL1       -0.1659
     51 F          -4.0773    4.4387   24.9695 F       1  UNL1       -0.1659
@<TRIPOS>BOND
     1    39    40    2
     2    40    38    1
     3     1    38    1
     4     1     2    1
     5     2     3   am
     6     3     4    2
     7     3    28    1
     8    28    29   ar
     9    29    30   ar
    10    30    31   ar
    11    31    32   ar
    12    32    33   ar
    13    33    34    1
    14    34    35    1
    15    34    36    1
    16    34    37    1
    17     2     5    1
    18     5     6    1
    19     6     7    1
    20     7     8    1
    21     8    41    1
    22    41    42    1
    23    42    43   ar
    24    43    44   ar
    25    44    45   ar
    26    45    48    1
    27    48    49    1
    28    48    50    1
    29    48    51    1
    30    45    46   ar
    31    46    47   ar
    32     8     9    1
    33     9    10    2
    34     9    11   am
    35    11    12    1
    36    12    13    1
    37    13    14    1
    38    14    17    1
    39    17    18   ar
    40    18    19   ar
    41    19    20   ar
    42    20    21   ar
    43    21    22   ar
    44    22    23    1
    45    23    24    1
    46    24    25    1
    47    25    26    1
    48    26    27    1
    49    14    15    1
    50    15    16    1
    51     8     1    1
    52    47    42   ar
    53    16    11    1
    54    33    28   ar
    55    22    17   ar
@<TRIPOS>MOLECULE
*****
 51 55 0 0 0
SMALL
GASTEIGER

@<TRIPOS>ATOM
      1 C           1.0235    2.5486   28.5786 C.3     1  UNL1        0.1248
      2 N           1.5842    2.8737   29.9312 N.am    1  UNL1       -0.2734
      3 C           0.8990    2.3719   31.1677 C.2     1  UNL1        0.2506
      4 O          -0.3470    1.5449   31.0513 O.2     1  UNL1       -0.2699
      5 C           2.8302    3.7007   30.0476 C.3     1  UNL1        0.0939
      6 C           3.5155    4.2026   28.8113 C.3     1  UNL1        0.0257
      7 C           2.9547    3.8774   27.4586 C.3     1  UNL1        0.0525
      8 C           1.7087    3.0504   27.3423 C.3     1  UNL1        0.2173
      9 C           1.9959    3.2945   25.8904 C.2     1  UNL1        0.2636
     10 O           1.9970    4.0157   25.3760 O.2     1  UNL1       -0.2711
     11 N           2.3776    2.1503   24.9986 N.am    1  UNL1       -0.2732
     12 C           2.4721    0.7620   25.5587 C.3     1  UNL1        0.1149
     13 C           2.8537   -0.3821   24.6670 C.3     1  UNL1        0.1124
     14 N           3.1409   -0.1381   23.2152 N.pl3   1  UNL1       -0.3017
     15 C           3.0464    1.2503   22.6550 C.3     1  UNL1        0.1124
     16 C           2.6648    2.3944   23.5467 C.3     1  UNL1        0.1149
     17 C           3.5226   -1.2822   22.3234 C.ar    1  UNL1        0.0824
     18 C           3.0921   -1.2890   20.8865 C.ar    1  UNL1        0.0176
     19 C           3.4737   -2.4331   19.9946 C.ar    1  UNL1        0.0015
     20 C           4.2858   -3.5703   20.5396 C.ar    1  UNL1        0.0032
     21 C           4.7164   -3.5635   21.9765 C.ar    1  UNL1        0.0382
     22 C           4.3348   -2.4194   22.8684 C.ar    1  UNL1        0.1518
     23 O           4.7653   -2.4126   24.3053 O.3     1  UNL1       -0.4715
     24 C           6.2035   -2.6512   24.6584 C.3     1  UNL1        0.2374
     25 C           6.6848   -4.0430   24.9436 C.3     1  UNL1        0.1894
     26 O           6.5376   -4.6201   26.3202 O.3     1  UNL1       -0.3471
     27 C           6.7392   -3.7485   27.5243 C.3     1  UNL1        0.1743
     28 C           1.4597    2.6971   32.5203 C.ar    1  UNL1        0.0766
     29 C           2.3536    1.7148   33.2176 C.ar    1  UNL1        0.1033
     30 N           2.9144    2.0401   34.5703 N.ar    1  UNL1       -0.2422
     31 C           2.5812    3.3475   35.2258 C.ar    1  UNL1        0.0988
     32 C           1.6873    4.3297   34.5285 C.ar    1  UNL1        0.0247
     33 C           1.1265    4.0045   33.1759 C.ar    1  UNL1        0.0788
     34 C           0.2326    4.9867   32.4786 C.3     1  UNL1        0.4188
     35 F          -0.6613    5.9690   31.7814 F       1  UNL1       -0.1659
     36 F          -0.9645    4.1661   32.8574 F       1  UNL1       -0.1659
     37 F           1.4297    5.8074   32.0999 F       1  UNL1       -0.1659
     38 C          -0.2225    1.7216   28.4622 C.3     1  UNL1        0.0499
     39 C          -1.3386   -0.6090   28.7320 C.2     1  UNL1       -0.0049
     40 C          -0.1290    0.2249   28.4296 C.2     1  UNL1       -0.0243
     41 O           0.5625    2.3082   26.7216 O.3     1  UNL1       -0.4723
     42 C          -0.6281    3.0614   26.2068 C.ar    1  UNL1        0.1390
     43 C          -1.3483    2.5798   24.9823 C.ar    1  UNL1        0.0369
     44 C          -2.5389    3.3331   24.4676 C.ar    1  UNL1        0.0070
     45 C          -3.0093    4.5680   25.1773 C.ar    1  UNL1        0.0716
     46 C          -2.2892    5.0496   26.4018 C.ar    1  UNL1        0.0070
     47 C          -1.0986    4.2964   26.9166 C.ar    1  UNL1        0.0369
     48 C          -4.1999    5.3213   24.6626 C.3     1  UNL1        0.4186
     49 F          -5.3906    6.0747   24.1480 F       1  UNL1       -0.1659
     50 F          -4.1306    4.5524   23.3765 F       1  UNL1       -0.1659
     51 F          -4.2693    6.0902   25.9487 F       1  UNL1       -0.1659
@<TRIPOS>BOND
     1    39    40    2
     2    40    38    1
     3     1    38    1
     4     1     2    1
     5     2     3   am
     6     3     4    2
     7     3    28    1
     8    28    29   ar
     9    29    30   ar
    10    30    31   ar
    11    31    32   ar
    12    32    33   ar
    13    33    34    1
    14    34    35    1
    15    34    36    1
    16    34    37    1
    17     2     5    1
    18     5     6    1
    19     6     7    1
    20     7     8    1
    21     8    41    1
    22    41    42    1
    23    42    43   ar
    24    43    44   ar
    25    44    45   ar
    26    45    48    1
    27    48    49    1
    28    48    50    1
    29    48    51    1
    30    45    46   ar
    31    46    47   ar
    32     8     9    1
    33     9    10    2
    34     9    11   am
    35    11    12    1
    36    12    13    1
    37    13    14    1
    38    14    17    1
    39    17    18   ar
    40    18    19   ar
    41    19    20   ar
    42    20    21   ar
    43    21    22   ar
    44    22    23    1
    45    23    24    1
    46    24    25    1
    47    25    26    1
    48    26    27    1
    49    14    15    1
    50    15    16    1
    51     8     1    1
    52    47    42   ar
    53    16    11    1
    54    33    28   ar
    55    22    17   ar
@<TRIPOS>MOLECULE
*****
 51 55 0 0 0
SMALL
GASTEIGER

@<TRIPOS>ATOM
      1 C           2.9566    0.7980   28.6745 C.3     1  UNL1        0.1248
      2 N           3.7259    0.8571   29.9608 N.am    1  UNL1       -0.2734
      3 C           3.3097    0.0055   31.1234 C.2     1  UNL1        0.2506
      4 O           2.1243   -0.9053   30.9996 O.2     1  UNL1       -0.2699
      5 C           4.9113    1.7679   30.0846 C.3     1  UNL1        0.0939
      6 C           5.3274    2.6195   28.9221 C.3     1  UNL1        0.0257
      7 C           4.5581    2.5604   27.6358 C.3     1  UNL1        0.0525
      8 C           3.3727    1.6497   27.5120 C.3     1  UNL1        0.2173
      9 C           3.3778    2.2584   26.1411 C.2     1  UNL1        0.2636
     10 O           3.2262    3.0736   25.8292 O.2     1  UNL1       -0.2711
     11 N           3.6936    1.4103   24.9449 N.am    1  UNL1       -0.2732
     12 C           4.0043   -0.0467   25.1196 C.3     1  UNL1        0.1149
     13 C           4.3201   -0.8949   23.9235 C.3     1  UNL1        0.1124
     14 N           4.3252   -0.2861   22.5526 N.pl3   1  UNL1       -0.3017
     15 C           4.0144    1.1709   22.3779 C.3     1  UNL1        0.1124
     16 C           3.6986    2.0191   23.5740 C.3     1  UNL1        0.1149
     17 C           4.6410   -1.1343   21.3564 C.ar    1  UNL1        0.0824
     18 C           6.0637   -1.4967   21.0485 C.ar    1  UNL1        0.0176
     19 C           6.3796   -2.3448   19.8524 C.ar    1  UNL1        0.0015
     20 C           5.2728   -2.8306   18.9640 C.ar    1  UNL1        0.0032
     21 C           3.8501   -2.4682   19.2719 C.ar    1  UNL1        0.0382
     22 C           3.5343   -1.6200   20.4681 C.ar    1  UNL1        0.1518
     23 O           2.1116   -1.2577   20.7759 O.3     1  UNL1       -0.4715
     24 C           1.3858   -0.2689   19.9124 C.3     1  UNL1        0.2374
     25 C           0.1924    0.4631   20.4509 C.3     1  UNL1        0.1894
     26 O           0.3755    1.5496   21.4688 O.3     1  UNL1       -0.3471
     27 C           0.9631    2.8680   21.0609 C.3     1  UNL1        0.1743
     28 C           4.0790    0.0646   32.4097 C.ar    1  UNL1        0.0766
     29 C           3.7028    1.0637   33.4634 C.ar    1  UNL1        0.1033
     30 N           4.4722    1.1228   34.7498 N.ar    1  UNL1       -0.2422
     31 C           5.6177    0.1827   34.9824 C.ar    1  UNL1        0.0988
     32 C           5.9939   -0.8164   33.9288 C.ar    1  UNL1        0.0247
     33 C           5.2246   -0.8755   32.6424 C.ar    1  UNL1        0.0788
     34 C           5.6007   -1.8746   31.5888 C.3     1  UNL1        0.4188
     35 F           5.9769   -2.8738   30.5351 F       1  UNL1       -0.1659
     36 F           6.5013   -0.8603   30.9484 F       1  UNL1       -0.1659
     37 F           4.7002   -2.8890   32.2291 F       1  UNL1       -0.1659
     38 C           1.7711   -0.1127   28.5507 C.3     1  UNL1        0.0499
     39 C          -0.7924   -0.4149   28.8458 C.2     1  UNL1       -0.0049
     40 C           0.5015    0.2050   29.2836 C.2     1  UNL1       -0.0243
     41 O           2.1890    0.9504   26.9120 O.3     1  UNL1       -0.4723
     42 C           0.9526    1.7278   26.5700 C.ar    1  UNL1        0.1390
     43 C           0.5222    2.8725   27.4386 C.ar    1  UNL1        0.0369
     44 C          -0.7143    3.6497   27.0965 C.ar    1  UNL1        0.0070
     45 C          -1.5202    3.2825   25.8859 C.ar    1  UNL1        0.0716
     46 C          -1.0897    2.1378   25.0173 C.ar    1  UNL1        0.0070
     47 C           0.1467    1.3604   25.3593 C.ar    1  UNL1        0.0369
     48 C          -2.7566    4.0597   25.5438 C.3     1  UNL1        0.4186
     49 F          -3.9930    4.8371   25.2018 F       1  UNL1       -0.1659
     50 F          -2.9110    3.2600   24.2842 F       1  UNL1       -0.1659
     51 F          -2.6022    4.8595   26.8034 F       1  UNL1       -0.1659
@<TRIPOS>BOND
     1    39    40    2
     2    40    38    1
     3     1    38    1
     4     1     2    1
     5     2     3   am
     6     3     4    2
     7     3    28    1
     8    28    29   ar
     9    29    30   ar
    10    30    31   ar
    11    31    32   ar
    12    32    33   ar
    13    33    34    1
    14    34    35    1
    15    34    36    1
    16    34    37    1
    17     2     5    1
    18     5     6    1
    19     6     7    1
    20     7     8    1
    21     8    41    1
    22    41    42    1
    23    42    43   ar
    24    43    44   ar
    25    44    45   ar
    26    45    48    1
    27    48    49    1
    28    48    50    1
    29    48    51    1
    30    45    46   ar
    31    46    47   ar
    32     8     9    1
    33     9    10    2
    34     9    11   am
    35    11    12    1
    36    12    13    1
    37    13    14    1
    38    14    17    1
    39    17    18   ar
    40    18    19   ar
    41    19    20   ar
    42    20    21   ar
    43    21    22   ar
    44    22    23    1
    45    23    24    1
    46    24    25    1
    47    25    26    1
    48    26    27    1
    49    14    15    1
    50    15    16    1
    51     8     1    1
    52    47    42   ar
    53    16    11    1
    54    33    28   ar
    55    22    17   ar
@<TRIPOS>MOLECULE
*****
 51 55 0 0 0
SMALL
GASTEIGER

@<TRIPOS>ATOM
      1 C           6.6688   -1.8794   21.8763 C.3     1  UNL1        0.1248
      2 N           5.4327   -1.1577   21.4280 N.am    1  UNL1       -0.2734
      3 C           4.7139   -1.6003   20.1880 C.2     1  UNL1        0.2506
      4 O           5.2313   -2.7647   19.3964 O.2     1  UNL1       -0.2699
      5 C           4.9152    0.0066   22.2195 C.3     1  UNL1        0.0939
      6 C           5.6340    0.4493   23.4595 C.3     1  UNL1        0.0257
      7 C           6.8701   -0.2724   23.9078 C.3     1  UNL1        0.0525
      8 C           7.3875   -1.4368   23.1162 C.3     1  UNL1        0.2173
      9 C           8.4091   -1.3932   24.2137 C.2     1  UNL1        0.2636
     10 O           9.2819   -1.2435   24.2364 O.2     1  UNL1       -0.2711
     11 N           7.9952   -1.6404   25.6341 N.am    1  UNL1       -0.2732
     12 C           6.5595   -1.9312   25.9571 C.3     1  UNL1        0.1149
     13 C           6.1455   -2.1783   27.3774 C.3     1  UNL1        0.1124
     14 N           7.1672   -2.1348   28.4748 N.pl3   1  UNL1       -0.3017
     15 C           8.6029   -1.8441   28.1518 C.3     1  UNL1        0.1124
     16 C           9.0169   -1.5969   26.7315 C.3     1  UNL1        0.1149
     17 C           6.7532   -2.3820   29.8952 C.ar    1  UNL1        0.0824
     18 C           7.0179   -3.7138   30.5326 C.ar    1  UNL1        0.0176
     19 C           6.6041   -3.9611   31.9529 C.ar    1  UNL1        0.0015
     20 C           5.9255   -2.8766   32.7360 C.ar    1  UNL1        0.0032
     21 C           5.6607   -1.5447   32.0987 C.ar    1  UNL1        0.0382
     22 C           6.0746   -1.2975   30.6783 C.ar    1  UNL1        0.1518
     23 O           5.8099    0.0344   30.0410 O.3     1  UNL1       -0.4715
     24 C           4.4360    0.3655   29.5383 C.3     1  UNL1        0.2374
     25 C           3.3879   -0.7048   29.4601 C.3     1  UNL1        0.1894
     26 O           2.8418   -1.1238   28.1274 O.3     1  UNL1       -0.3471
     27 C           3.0461   -0.2504   26.9251 C.3     1  UNL1        0.1743
     28 C           3.4777   -0.8786   19.7396 C.ar    1  UNL1        0.0766
     29 C           2.1561   -1.1864   20.3788 C.ar    1  UNL1        0.1033
     30 N           0.9199   -0.4646   19.9304 N.ar    1  UNL1       -0.2422
     31 C           1.0054    0.5649   18.8428 C.ar    1  UNL1        0.0988
     32 C           2.3271    0.8726   18.2036 C.ar    1  UNL1        0.0247
     33 C           3.5632    0.1509   18.6520 C.ar    1  UNL1        0.0788
     34 C           4.8848    0.4587   18.0128 C.3     1  UNL1        0.4188
     35 F           6.2065    0.7665   17.3736 F       1  UNL1       -0.1659
     36 F           4.5856   -0.5247   16.9204 F       1  UNL1       -0.1659
     37 F           5.1841    1.4422   19.1052 F       1  UNL1       -0.1659
     38 C           7.1862   -3.0438   21.0847 C.3     1  UNL1        0.0499
     39 C           8.4146   -1.4201   19.4709 C.2     1  UNL1       -0.0049
     40 C           8.1403   -2.8147   19.9502 C.2     1  UNL1       -0.0243
     41 O           8.2598   -2.5860   22.7059 O.3     1  UNL1       -0.4723
     42 C           8.2413   -3.8611   23.4957 C.ar    1  UNL1        0.1390
     43 C           6.9472   -4.3849   24.0442 C.ar    1  UNL1        0.0369
     44 C           6.9288   -5.6599   24.8340 C.ar    1  UNL1        0.0070
     45 C           8.2044   -6.4112   25.0753 C.ar    1  UNL1        0.0716
     46 C           9.4986   -5.8874   24.5267 C.ar    1  UNL1        0.0070
     47 C           9.5170   -4.6124   23.7369 C.ar    1  UNL1        0.0369
     48 C           8.1861   -7.6863   25.8651 C.3     1  UNL1        0.4186
     49 F           8.1678   -8.9614   26.6548 F       1  UNL1       -0.1659
     50 F           7.0355   -7.1677   26.6758 F       1  UNL1       -0.1659
     51 F           9.3366   -8.2049   25.0544 F       1  UNL1       -0.1659
@<TRIPOS>BOND
     1    39    40    2
     2    40    38    1
     3     1    38    1
     4     1     2    1
     5     2     3   am
     6     3     4    2
     7     3    28    1
     8    28    29   ar
     9    29    30   ar
    10    30    31   ar
    11    31    32   ar
    12    32    33   ar
    13    33    34    1
    14    34    35    1
    15    34    36    1
    16    34    37    1
    17     2     5    1
    18     5     6    1
    19     6     7    1
    20     7     8    1
    21     8    41    1
    22    41    42    1
    23    42    43   ar
    24    43    44   ar
    25    44    45   ar
    26    45    48    1
    27    48    49    1
    28    48    50    1
    29    48    51    1
    30    45    46   ar
    31    46    47   ar
    32     8     9    1
    33     9    10    2
    34     9    11   am
    35    11    12    1
    36    12    13    1
    37    13    14    1
    38    14    17    1
    39    17    18   ar
    40    18    19   ar
    41    19    20   ar
    42    20    21   ar
    43    21    22   ar
    44    22    23    1
    45    23    24    1
    46    24    25    1
    47    25    26    1
    48    26    27    1
    49    14    15    1
    50    15    16    1
    51     8     1    1
    52    47    42   ar
    53    16    11    1
    54    33    28   ar
    55    22    17   ar
@<TRIPOS>MOLECULE
*****
 51 55 0 0 0
SMALL
GASTEIGER

@<TRIPOS>ATOM
      1 C           3.2015    0.5972   28.6202 C.3     1  UNL1        0.1248
      2 N           4.0225    0.6723   29.8733 N.am    1  UNL1       -0.2734
      3 C           3.5981   -0.0880   31.0947 C.2     1  UNL1        0.2506
      4 O           2.3526   -0.9234   31.0630 O.2     1  UNL1       -0.2699
      5 C           5.2679    1.5078   29.9051 C.3     1  UNL1        0.0939
      6 C           5.6923    2.2681   28.6837 C.3     1  UNL1        0.0257
      7 C           4.8713    2.1930   27.4306 C.3     1  UNL1        0.0525
      8 C           3.6259    1.3576   27.3989 C.3     1  UNL1        0.2173
      9 C           3.6167    1.8923   25.9974 C.2     1  UNL1        0.2636
     10 O           3.5051    2.6981   25.6470 O.2     1  UNL1       -0.2711
     11 N           3.8321    0.9640   24.8390 N.am    1  UNL1       -0.2732
     12 C           4.0566   -0.4991   25.0821 C.3     1  UNL1        0.1149
     13 C           4.2719   -1.4274   23.9237 C.3     1  UNL1        0.1124
     14 N           4.2627   -0.8927   22.5223 N.pl3   1  UNL1       -0.3017
     15 C           4.0382    0.5704   22.2793 C.3     1  UNL1        0.1124
     16 C           3.8229    1.4987   23.4376 C.3     1  UNL1        0.1149
     17 C           4.4781   -1.8210   21.3639 C.ar    1  UNL1        0.0824
     18 C           3.3779   -2.0472   20.3696 C.ar    1  UNL1        0.0176
     19 C           3.5932   -2.9754   19.2112 C.ar    1  UNL1        0.0015
     20 C           4.9085   -3.6774   19.0470 C.ar    1  UNL1        0.0032
     21 C           6.0087   -3.4512   20.0412 C.ar    1  UNL1        0.0382
     22 C           5.7934   -2.5230   21.1997 C.ar    1  UNL1        0.1518
     23 O           6.8936   -2.2967   22.1940 O.3     1  UNL1       -0.4715
     24 C           7.5959   -3.4677   22.8148 C.3     1  UNL1        0.2374
     25 C           6.8860   -4.3177   23.8267 C.3     1  UNL1        0.1894
     26 O           6.5699   -3.7619   25.1836 O.3     1  UNL1       -0.3471
     27 C           7.3882   -2.6355   25.7418 C.3     1  UNL1        0.1743
     28 C           4.4190   -0.0129   32.3478 C.ar    1  UNL1        0.0766
     29 C           4.1457    1.0595   33.3604 C.ar    1  UNL1        0.1033
     30 N           4.9668    1.1345   34.6136 N.ar    1  UNL1       -0.2422
     31 C           6.0611    0.1373   34.8541 C.ar    1  UNL1        0.0988
     32 C           6.3344   -0.9351   33.8415 C.ar    1  UNL1        0.0247
     33 C           5.5134   -1.0102   32.5884 C.ar    1  UNL1        0.0788
     34 C           5.7867   -2.0826   31.5758 C.3     1  UNL1        0.4188
     35 F           6.0600   -3.1550   30.5633 F       1  UNL1       -0.1659
     36 F           6.7602   -1.1778   30.8804 F       1  UNL1       -0.1659
     37 F           4.8132   -2.9874   32.2713 F       1  UNL1       -0.1659
     38 C           1.9561   -0.2382   28.5885 C.3     1  UNL1        0.0499
     39 C          -0.6199   -0.2973   28.9212 C.2     1  UNL1       -0.0049
     40 C           0.7309    0.2135   29.3266 C.2     1  UNL1       -0.0243
     41 O           2.3773    0.7079   26.8803 O.3     1  UNL1       -0.4723
     42 C           1.1721    1.5435   26.5656 C.ar    1  UNL1        0.1390
     43 C           0.8689    2.7617   27.3867 C.ar    1  UNL1        0.0369
     44 C          -0.3364    3.5973   27.0720 C.ar    1  UNL1        0.0070
     45 C          -1.2384    3.2149   25.9362 C.ar    1  UNL1        0.0716
     46 C          -0.9352    1.9967   25.1151 C.ar    1  UNL1        0.0070
     47 C           0.2701    1.1610   25.4298 C.ar    1  UNL1        0.0369
     48 C          -2.4436    4.0505   25.6214 C.3     1  UNL1        0.4186
     49 F          -3.6489    4.8860   25.3065 F       1  UNL1       -0.1659
     50 F          -2.0924    4.9804   26.7447 F       1  UNL1       -0.1659
     51 F          -2.7948    3.1205   24.4981 F       1  UNL1       -0.1659
@<TRIPOS>BOND
     1    39    40    2
     2    40    38    1
     3     1    38    1
     4     1     2    1
     5     2     3   am
     6     3     4    2
     7     3    28    1
     8    28    29   ar
     9    29    30   ar
    10    30    31   ar
    11    31    32   ar
    12    32    33   ar
    13    33    34    1
    14    34    35    1
    15    34    36    1
    16    34    37    1
    17     2     5    1
    18     5     6    1
    19     6     7    1
    20     7     8    1
    21     8    41    1
    22    41    42    1
    23    42    43   ar
    24    43    44   ar
    25    44    45   ar
    26    45    48    1
    27    48    49    1
    28    48    50    1
    29    48    51    1
    30    45    46   ar
    31    46    47   ar
    32     8     9    1
    33     9    10    2
    34     9    11   am
    35    11    12    1
    36    12    13    1
    37    13    14    1
    38    14    17    1
    39    17    18   ar
    40    18    19   ar
    41    19    20   ar
    42    20    21   ar
    43    21    22   ar
    44    22    23    1
    45    23    24    1
    46    24    25    1
    47    25    26    1
    48    26    27    1
    49    14    15    1
    50    15    16    1
    51     8     1    1
    52    47    42   ar
    53    16    11    1
    54    33    28   ar
    55    22    17   ar
@<TRIPOS>MOLECULE
*****
 51 55 0 0 0
SMALL
GASTEIGER

@<TRIPOS>ATOM
      1 C           3.0809    1.7374   29.8265 C.3     1  UNL1        0.1248
      2 N           2.4051    2.9167   29.1923 N.am    1  UNL1       -0.2734
      3 C           0.9147    3.0633   29.2791 C.2     1  UNL1        0.2506
      4 O           0.1003    2.0305   30.0002 O.2     1  UNL1       -0.2699
      5 C           3.2195    3.9496   28.4712 C.3     1  UNL1        0.0939
      6 C           4.7098    3.8030   28.3843 C.3     1  UNL1        0.0257
      7 C           5.3856    2.6237   29.0186 C.3     1  UNL1        0.0525
      8 C           4.5712    1.5908   29.7397 C.3     1  UNL1        0.2173
      9 C           5.9442    1.0163   29.9257 C.2     1  UNL1        0.2636
     10 O           6.6547    1.2597   30.3954 O.2     1  UNL1       -0.2711
     11 N           6.3308   -0.2477   29.2166 N.am    1  UNL1       -0.2732
     12 C           5.3442   -0.9373   28.3215 C.3     1  UNL1        0.1149
     13 C           5.7307   -2.2013   27.6124 C.3     1  UNL1        0.1124
     14 N           7.1038   -2.7758   27.7984 N.pl3   1  UNL1       -0.3017
     15 C           8.0904   -2.0862   28.6935 C.3     1  UNL1        0.1124
     16 C           7.7039   -0.8222   29.4026 C.3     1  UNL1        0.1149
     17 C           7.4904   -4.0398   27.0893 C.ar    1  UNL1        0.0824
     18 C           8.2861   -3.9741   25.8194 C.ar    1  UNL1        0.0176
     19 C           8.6727   -5.2380   25.1103 C.ar    1  UNL1        0.0015
     20 C           8.2636   -6.5678   25.6710 C.ar    1  UNL1        0.0032
     21 C           7.4679   -6.6335   26.9409 C.ar    1  UNL1        0.0382
     22 C           7.0813   -5.3696   27.6500 C.ar    1  UNL1        0.1518
     23 O           6.2856   -5.4353   28.9199 O.3     1  UNL1       -0.4715
     24 C           6.9672   -5.7603   30.2160 C.3     1  UNL1        0.2374
     25 C           7.7758   -4.7122   30.9216 C.3     1  UNL1        0.1894
     26 O           7.1318   -3.8395   31.9578 O.3     1  UNL1       -0.3471
     27 C           7.8839   -2.6745   32.5296 C.3     1  UNL1        0.1743
     28 C           0.2389    4.2427   28.6449 C.ar    1  UNL1        0.0766
     29 C           0.2004    5.5599   29.3615 C.ar    1  UNL1        0.1033
     30 N          -0.4755    6.7393   28.7272 N.ar    1  UNL1       -0.2422
     31 C          -1.1128    6.6014   27.3764 C.ar    1  UNL1        0.0988
     32 C          -1.0743    5.2842   26.6598 C.ar    1  UNL1        0.0247
     33 C          -0.3985    4.1049   27.2940 C.ar    1  UNL1        0.0788
     34 C          -0.3600    2.7877   26.5774 C.3     1  UNL1        0.4188
     35 F          -0.3215    1.4705   25.8609 F       1  UNL1       -0.1659
     36 F           0.9548    3.1619   25.9601 F       1  UNL1       -0.1659
     37 F          -1.6749    2.4134   27.1948 F       1  UNL1       -0.1659
     38 C           2.2665    0.7046   30.5476 C.3     1  UNL1        0.0499
     39 C           1.6852   -0.4636   28.3010 C.2     1  UNL1       -0.0049
     40 C           1.7209   -0.4762   29.8005 C.2     1  UNL1       -0.0243
     41 O           4.2337    0.3585   30.5254 O.3     1  UNL1       -0.4723
     42 C           4.3467    0.3681   32.0211 C.ar    1  UNL1        0.1390
     43 C           4.4870   -0.9234   32.7710 C.ar    1  UNL1        0.0369
     44 C           4.6000   -0.9137   34.2667 C.ar    1  UNL1        0.0070
     45 C           4.5727    0.3875   35.0125 C.ar    1  UNL1        0.0716
     46 C           4.4324    1.6790   34.2626 C.ar    1  UNL1        0.0070
     47 C           4.3194    1.6693   32.7669 C.ar    1  UNL1        0.0369
     48 C           4.6857    0.3972   36.5081 C.3     1  UNL1        0.4186
     49 F           4.7986    0.4071   38.0039 F       1  UNL1       -0.1659
     50 F           5.7742   -0.6321   36.4327 F       1  UNL1       -0.1659
     51 F           3.5972    1.4266   36.5836 F       1  UNL1       -0.1659
@<TRIPOS>BOND
     1    39    40    2
     2    40    38    1
     3     1    38    1
     4     1     2    1
     5     2     3   am
     6     3     4    2
     7     3    28    1
     8    28    29   ar
     9    29    30   ar
    10    30    31   ar
    11    31    32   ar
    12    32    33   ar
    13    33    34    1
    14    34    35    1
    15    34    36    1
    16    34    37    1
    17     2     5    1
    18     5     6    1
    19     6     7    1
    20     7     8    1
    21     8    41    1
    22    41    42    1
    23    42    43   ar
    24    43    44   ar
    25    44    45   ar
    26    45    48    1
    27    48    49    1
    28    48    50    1
    29    48    51    1
    30    45    46   ar
    31    46    47   ar
    32     8     9    1
    33     9    10    2
    34     9    11   am
    35    11    12    1
    36    12    13    1
    37    13    14    1
    38    14    17    1
    39    17    18   ar
    40    18    19   ar
    41    19    20   ar
    42    20    21   ar
    43    21    22   ar
    44    22    23    1
    45    23    24    1
    46    24    25    1
    47    25    26    1
    48    26    27    1
    49    14    15    1
    50    15    16    1
    51     8     1    1
    52    47    42   ar
    53    16    11    1
    54    33    28   ar
    55    22    17   ar
