@<TRIPOS>MOLECULE
*****
 31 34 0 0 0
SMALL
GASTEIGER

@<TRIPOS>ATOM
      1 C          -5.2982  -18.6122   22.0650 C.3     1  UNL1        0.1296
      2 C          -4.1334  -19.1022   21.2568 C.2     1  UNL1        0.0239
      3 C          -4.6494  -20.0872   20.2500 C.2     1  UNL1       -0.0350
      4 O          -3.8262  -20.8240   19.2354 O.co2   1  UNL1       -0.8701
      5 C          -6.1331  -20.2059   20.4360 C.2     1  UNL1        0.2375
      6 O          -7.0541  -21.0823   19.6400 O.2     1  UNL1       -0.2709
      7 N          -6.5340  -19.2943   21.5577 N.am    1  UNL1       -0.2499
      8 C          -6.1841  -16.4516   23.2038 C.ar    1  UNL1        0.1366
      9 C          -6.1237  -15.4545   24.3228 C.ar    1  UNL1        0.0366
     10 C          -5.1169  -15.6210   25.4220 C.ar    1  UNL1        0.0031
     11 C          -4.1705  -16.7846   25.4024 C.ar    1  UNL1       -0.0001
     12 C          -4.2309  -17.7816   24.2834 C.ar    1  UNL1        0.0007
     13 C          -5.2377  -17.6151   23.1841 C.ar    1  UNL1        0.0343
     14 C          -8.2004  -15.1777   22.1732 C.3     1  UNL1        0.2525
     15 O          -7.1910  -16.2851   22.1044 O.3     1  UNL1       -0.4717
     16 C          -7.9264  -19.0992   22.0803 C.ar    1  UNL1        0.0546
     17 C          -9.0103  -18.6135   21.1642 C.ar    1  UNL1        0.0149
     18 C         -10.4026  -18.4184   21.6868 C.ar    1  UNL1        0.0013
     19 C         -10.7112  -18.7088   23.1257 C.ar    1  UNL1        0.0006
     20 C          -9.6273  -19.1945   24.0420 C.ar    1  UNL1        0.0013
     21 C          -8.2350  -19.3896   23.5193 C.ar    1  UNL1        0.0149
     22 C         -12.1036  -18.5136   23.6484 C.ar    1  UNL1        0.0070
     23 C         -13.2568  -17.9290   22.8880 C.ar    1  UNL1        0.0075
     24 C         -14.4532  -17.9229   23.7928 C.ar    1  UNL1        0.0355
     25 S         -14.0393  -18.5037   25.1125 S.2     1  UNL1       -0.0859
     26 C         -12.5871  -18.8688   25.0231 C.ar    1  UNL1        0.0354
     27 C          -2.7036  -18.6812   21.4257 C.2     1  UNL1        0.1695
     28 O          -1.6339  -19.2219   22.0470 O.2     1  UNL1       -0.2917
     29 C          -2.2238  -17.3954   20.8205 C.3     1  UNL1        0.0617
     30 C          -1.9329  -17.3207   19.3509 C.3     1  UNL1        0.0081
     31 C          -2.0349  -16.1841   21.6849 C.3     1  UNL1        0.0081
@<TRIPOS>UNITY_ATOM_ATTR
4 1
charge -1
@<TRIPOS>BOND
     1    14    15    1
     2    15     8    1
     3     8     9   ar
     4     9    10   ar
     5    10    11   ar
     6    11    12   ar
     7    12    13   ar
     8     1    13    1
     9     1     2    1
    10     2    27    1
    11    27    28    2
    12    27    29    1
    13    29    30    1
    14    29    31    1
    15     2     3    2
    16     3     4    1
    17     3     5    1
    18     5     6    2
    19     5     7   am
    20     7    16    1
    21    16    17   ar
    22    17    18   ar
    23    18    19   ar
    24    19    22    1
    25    22    23   ar
    26    23    24   ar
    27    24    25   ar
    28    25    26   ar
    29    19    20   ar
    30    20    21   ar
    31    13     8   ar
    32     7     1    1
    33    21    16   ar
    34    26    22   ar
@<TRIPOS>MOLECULE
*****
 31 34 0 0 0
SMALL
GASTEIGER

@<TRIPOS>ATOM
      1 C           5.1993   -0.9213   20.3669 C.3     1  UNL1        0.1296
      2 C           6.0685   -2.0298   19.8516 C.2     1  UNL1        0.0239
      3 C           5.7761   -3.2608   20.6574 C.2     1  UNL1       -0.0350
      4 O           6.4206   -4.6038   20.4809 O.co2   1  UNL1       -0.8701
      5 C           4.7262   -2.9130   21.6707 C.2     1  UNL1        0.2375
      6 O           4.1363   -3.8471   22.6853 O.2     1  UNL1       -0.2709
      7 N           4.3697   -1.4671   21.4911 N.am    1  UNL1       -0.2499
      8 C           4.2496    0.8469   18.7172 C.ar    1  UNL1        0.1366
      9 C           4.2158    2.2542   18.1992 C.ar    1  UNL1        0.0366
     10 C           5.0980    3.3006   18.8129 C.ar    1  UNL1        0.0031
     11 C           6.0139    2.9398   19.9446 C.ar    1  UNL1       -0.0001
     12 C           6.0477    1.5325   20.4626 C.ar    1  UNL1        0.0007
     13 C           5.1655    0.4861   19.8489 C.ar    1  UNL1        0.0343
     14 C           3.7661   -0.8546   16.8143 C.3     1  UNL1        0.2525
     15 O           3.3674   -0.1996   18.1034 O.3     1  UNL1       -0.4717
     16 C           3.3607   -0.7015   22.2947 C.ar    1  UNL1        0.0546
     17 C           3.5291   -0.5683   23.7792 C.ar    1  UNL1        0.0149
     18 C           2.5201    0.1974   24.5828 C.ar    1  UNL1        0.0013
     19 C           1.3427    0.8298   23.9019 C.ar    1  UNL1        0.0006
     20 C           1.1743    0.6967   22.4172 C.ar    1  UNL1        0.0013
     21 C           2.1833   -0.0690   21.6138 C.ar    1  UNL1        0.0149
     22 C           0.3338    1.5955   24.7055 C.ar    1  UNL1        0.0070
     23 C          -0.0383    1.3324   26.1346 C.ar    1  UNL1        0.0075
     24 C          -1.0823    2.3329   26.5334 C.ar    1  UNL1        0.0355
     25 S          -1.3554    3.2144   25.3508 S.2     1  UNL1       -0.0859
     26 C          -0.4802    2.7585   24.2211 C.ar    1  UNL1        0.0354
     27 C           7.0566   -1.9258   18.7279 C.2     1  UNL1        0.1695
     28 O           6.9641   -2.0295   17.3850 O.2     1  UNL1       -0.2917
     29 C           8.5009   -1.6479   19.0224 C.3     1  UNL1        0.0617
     30 C           9.4526   -2.7850   19.2484 C.3     1  UNL1        0.0081
     31 C           8.9936   -0.2327   19.0909 C.3     1  UNL1        0.0081
@<TRIPOS>UNITY_ATOM_ATTR
4 1
charge -1
@<TRIPOS>BOND
     1    14    15    1
     2    15     8    1
     3     8     9   ar
     4     9    10   ar
     5    10    11   ar
     6    11    12   ar
     7    12    13   ar
     8     1    13    1
     9     1     2    1
    10     2    27    1
    11    27    28    2
    12    27    29    1
    13    29    30    1
    14    29    31    1
    15     2     3    2
    16     3     4    1
    17     3     5    1
    18     5     6    2
    19     5     7   am
    20     7    16    1
    21    16    17   ar
    22    17    18   ar
    23    18    19   ar
    24    19    22    1
    25    22    23   ar
    26    23    24   ar
    27    24    25   ar
    28    25    26   ar
    29    19    20   ar
    30    20    21   ar
    31    13     8   ar
    32     7     1    1
    33    21    16   ar
    34    26    22   ar
@<TRIPOS>MOLECULE
*****
 31 34 0 0 0
SMALL
GASTEIGER

@<TRIPOS>ATOM
      1 C           4.9505   -0.5164   20.0371 C.3     1  UNL1        0.1296
      2 C           5.7432   -0.5267   18.7637 C.2     1  UNL1        0.0239
      3 C           5.2838    0.6271   17.9224 C.2     1  UNL1       -0.0350
      4 O           5.8089    0.9932   16.5658 O.co2   1  UNL1       -0.8701
      5 C           4.2071    1.3504   18.6759 C.2     1  UNL1        0.2375
      6 O           3.4665    2.5669   18.2050 O.2     1  UNL1       -0.2709
      7 N           4.0011    0.6437   19.9828 N.am    1  UNL1       -0.2499
      8 C           4.4560   -2.8528   21.0603 C.ar    1  UNL1        0.1366
      9 C           4.5892   -3.8310   22.1896 C.ar    1  UNL1        0.0366
     10 C           5.3500   -3.4509   23.4252 C.ar    1  UNL1        0.0031
     11 C           5.9776   -2.0926   23.5314 C.ar    1  UNL1       -0.0001
     12 C           5.8445   -1.1145   22.4021 C.ar    1  UNL1        0.0007
     13 C           5.0837   -1.4946   21.1665 C.ar    1  UNL1        0.0343
     14 C           4.2182   -4.3126   18.9242 C.3     1  UNL1        0.2525
     15 O           3.6952   -3.2329   19.8247 O.3     1  UNL1       -0.4717
     16 C           3.0184    1.0293   21.0483 C.ar    1  UNL1        0.0546
     17 C           1.5753    0.6430   20.9131 C.ar    1  UNL1        0.0149
     18 C           0.5926    1.0287   21.9786 C.ar    1  UNL1        0.0013
     19 C           1.0528    1.8007   23.1795 C.ar    1  UNL1        0.0006
     20 C           2.4960    2.1871   23.3148 C.ar    1  UNL1        0.0013
     21 C           3.4786    1.8014   22.2492 C.ar    1  UNL1        0.0149
     22 C           0.0701    2.1864   24.2450 C.ar    1  UNL1        0.0070
     23 C          -0.0276    1.5825   25.6146 C.ar    1  UNL1        0.0075
     24 C          -1.1456    2.2665   26.3441 C.ar    1  UNL1        0.0355
     25 S          -1.7389    3.2932   25.4254 S.2     1  UNL1       -0.0859
     26 C          -0.9875    3.2436   24.1281 C.ar    1  UNL1        0.0354
     27 C           6.8083   -1.5168   18.3961 C.2     1  UNL1        0.1695
     28 O           6.9816   -2.3673   17.3620 O.2     1  UNL1       -0.2917
     29 C           7.9998   -1.7025   19.2880 C.3     1  UNL1        0.0617
     30 C           8.2128   -3.0093   19.9929 C.3     1  UNL1        0.0081
     31 C           8.9786   -0.5813   19.4751 C.3     1  UNL1        0.0081
@<TRIPOS>UNITY_ATOM_ATTR
4 1
charge -1
@<TRIPOS>BOND
     1    14    15    1
     2    15     8    1
     3     8     9   ar
     4     9    10   ar
     5    10    11   ar
     6    11    12   ar
     7    12    13   ar
     8     1    13    1
     9     1     2    1
    10     2    27    1
    11    27    28    2
    12    27    29    1
    13    29    30    1
    14    29    31    1
    15     2     3    2
    16     3     4    1
    17     3     5    1
    18     5     6    2
    19     5     7   am
    20     7    16    1
    21    16    17   ar
    22    17    18   ar
    23    18    19   ar
    24    19    22    1
    25    22    23   ar
    26    23    24   ar
    27    24    25   ar
    28    25    26   ar
    29    19    20   ar
    30    20    21   ar
    31    13     8   ar
    32     7     1    1
    33    21    16   ar
    34    26    22   ar
@<TRIPOS>MOLECULE
*****
 31 34 0 0 0
SMALL
GASTEIGER

@<TRIPOS>ATOM
      1 C           4.2241   -0.9660   20.1467 C.3     1  UNL1        0.1296
      2 C           4.5913   -1.4555   18.7772 C.2     1  UNL1        0.0239
      3 C           3.6942   -0.7754   17.7859 C.2     1  UNL1       -0.0350
      4 O           3.7150   -0.9708   16.2988 O.co2   1  UNL1       -0.8701
      5 C           2.7725    0.1345   18.5427 C.2     1  UNL1        0.2375
      6 O           1.7099    1.0086   17.9454 O.2     1  UNL1       -0.2709
      7 N           3.1000    0.0166   20.0018 N.am    1  UNL1       -0.2499
      8 C           6.1793   -0.7857   21.8481 C.ar    1  UNL1        0.1366
      9 C           6.8231   -1.2051   23.1363 C.ar    1  UNL1        0.0366
     10 C           6.1556   -2.2243   24.0113 C.ar    1  UNL1        0.0031
     11 C           4.8443   -2.8241   23.5982 C.ar    1  UNL1       -0.0001
     12 C           4.2004   -2.4046   22.3100 C.ar    1  UNL1        0.0007
     13 C           4.8679   -1.3855   21.4349 C.ar    1  UNL1        0.0343
     14 C           8.0393   -0.1515   20.1487 C.3     1  UNL1        0.2525
     15 O           6.8468    0.2335   20.9730 O.3     1  UNL1       -0.4717
     16 C           2.4225    0.7523   21.1197 C.ar    1  UNL1        0.0546
     17 C           0.9439    0.6065   21.3258 C.ar    1  UNL1        0.0149
     18 C           0.2664    1.3422   22.4437 C.ar    1  UNL1        0.0013
     19 C           1.0674    2.2237   23.3555 C.ar    1  UNL1        0.0006
     20 C           2.5460    2.3695   23.1494 C.ar    1  UNL1        0.0013
     21 C           3.2235    1.6338   22.0314 C.ar    1  UNL1        0.0149
     22 C           0.3898    2.9593   24.4734 C.ar    1  UNL1        0.0070
     23 C          -0.6982    2.4184   25.3529 C.ar    1  UNL1        0.0075
     24 C          -1.0792    3.4898   26.3311 C.ar    1  UNL1        0.0355
     25 S          -0.2266    4.6930   26.0562 S.2     1  UNL1       -0.0859
     26 C           0.6813    4.3650   24.9080 C.ar    1  UNL1        0.0354
     27 C           5.6667   -2.4504   18.4554 C.2     1  UNL1        0.1695
     28 O           6.7225   -2.4510   17.6139 O.2     1  UNL1       -0.2917
     29 C           5.6918   -3.7791   19.1509 C.3     1  UNL1        0.0617
     30 C           6.7602   -4.0771   20.1607 C.3     1  UNL1        0.0081
     31 C           4.6484   -4.8099   18.8366 C.3     1  UNL1        0.0081
@<TRIPOS>UNITY_ATOM_ATTR
4 1
charge -1
@<TRIPOS>BOND
     1    14    15    1
     2    15     8    1
     3     8     9   ar
     4     9    10   ar
     5    10    11   ar
     6    11    12   ar
     7    12    13   ar
     8     1    13    1
     9     1     2    1
    10     2    27    1
    11    27    28    2
    12    27    29    1
    13    29    30    1
    14    29    31    1
    15     2     3    2
    16     3     4    1
    17     3     5    1
    18     5     6    2
    19     5     7   am
    20     7    16    1
    21    16    17   ar
    22    17    18   ar
    23    18    19   ar
    24    19    22    1
    25    22    23   ar
    26    23    24   ar
    27    24    25   ar
    28    25    26   ar
    29    19    20   ar
    30    20    21   ar
    31    13     8   ar
    32     7     1    1
    33    21    16   ar
    34    26    22   ar
@<TRIPOS>MOLECULE
*****
 31 34 0 0 0
SMALL
GASTEIGER

@<TRIPOS>ATOM
      1 C           3.8698   -0.2492   20.3845 C.3     1  UNL1        0.1296
      2 C           3.2826   -0.0595   19.0173 C.2     1  UNL1        0.0239
      3 C           1.8237    0.2501   19.1783 C.2     1  UNL1       -0.0350
      4 O           0.8502    0.5120   18.0676 O.co2   1  UNL1       -0.8701
      5 C           1.5093    0.2517   20.6450 C.2     1  UNL1        0.2375
      6 O           0.1662    0.5156   21.2586 O.2     1  UNL1       -0.2709
      7 N           2.7738   -0.0569   21.3905 N.am    1  UNL1       -0.2499
      8 C           5.8143   -1.9692   20.4887 C.ar    1  UNL1        0.1366
      9 C           7.2460   -2.2942   20.7959 C.ar    1  UNL1        0.0366
     10 C           8.1650   -1.2243   21.3063 C.ar    1  UNL1        0.0031
     11 C           7.6524    0.1707   21.5095 C.ar    1  UNL1       -0.0001
     12 C           6.2206    0.4957   21.2022 C.ar    1  UNL1        0.0007
     13 C           5.3016   -0.5742   20.6918 C.ar    1  UNL1        0.0343
     14 C           5.0927   -3.6041   18.6028 C.3     1  UNL1        0.2525
     15 O           4.8951   -3.0391   19.9782 O.3     1  UNL1       -0.4717
     16 C           2.9173   -0.1558   22.8803 C.ar    1  UNL1        0.0546
     17 C           2.3196    0.8994   23.7630 C.ar    1  UNL1        0.0149
     18 C           2.4630    0.8005   25.2529 C.ar    1  UNL1        0.0013
     19 C           3.2042   -0.3536   25.8600 C.ar    1  UNL1        0.0006
     20 C           3.8019   -1.4090   24.9773 C.ar    1  UNL1        0.0013
     21 C           3.6584   -1.3100   23.4875 C.ar    1  UNL1        0.0149
     22 C           3.3476   -0.4525   27.3499 C.ar    1  UNL1        0.0070
     23 C           4.6271   -0.6790   28.0993 C.ar    1  UNL1        0.0075
     24 C           4.3070   -0.7087   29.5644 C.ar    1  UNL1        0.0355
     25 S           2.8296   -0.5007   29.7205 S.2     1  UNL1       -0.0859
     26 C           2.2368   -0.3423   28.3518 C.ar    1  UNL1        0.0354
     27 C           4.0240   -0.1615   17.7174 C.2     1  UNL1        0.1695
     28 O           3.8224   -0.8510   16.5743 O.2     1  UNL1       -0.2917
     29 C           5.2844    0.6245   17.5091 C.3     1  UNL1        0.0617
     30 C           5.2686    2.1180   17.6476 C.3     1  UNL1        0.0081
     31 C           6.5608   -0.0830   17.1622 C.3     1  UNL1        0.0081
@<TRIPOS>UNITY_ATOM_ATTR
4 1
charge -1
@<TRIPOS>BOND
     1    14    15    1
     2    15     8    1
     3     8     9   ar
     4     9    10   ar
     5    10    11   ar
     6    11    12   ar
     7    12    13   ar
     8     1    13    1
     9     1     2    1
    10     2    27    1
    11    27    28    2
    12    27    29    1
    13    29    30    1
    14    29    31    1
    15     2     3    2
    16     3     4    1
    17     3     5    1
    18     5     6    2
    19     5     7   am
    20     7    16    1
    21    16    17   ar
    22    17    18   ar
    23    18    19   ar
    24    19    22    1
    25    22    23   ar
    26    23    24   ar
    27    24    25   ar
    28    25    26   ar
    29    19    20   ar
    30    20    21   ar
    31    13     8   ar
    32     7     1    1
    33    21    16   ar
    34    26    22   ar
@<TRIPOS>MOLECULE
*****
 31 34 0 0 0
SMALL
GASTEIGER

@<TRIPOS>ATOM
      1 C           3.9944   -0.5568   20.0760 C.3     1  UNL1        0.1296
      2 C           3.4881   -0.1247   18.7318 C.2     1  UNL1        0.0239
      3 C           4.0353   -1.0706   17.7043 C.2     1  UNL1       -0.0350
      4 O           3.7823   -1.0104   16.2270 O.co2   1  UNL1       -0.8701
      5 C           4.8799   -2.0874   18.4134 C.2     1  UNL1        0.2375
      6 O           5.6198   -3.2224   17.7698 O.2     1  UNL1       -0.2709
      7 N           4.8546   -1.7698   19.8792 N.am    1  UNL1       -0.2499
      8 C           4.6219    1.1540   21.9279 C.ar    1  UNL1        0.1366
      9 C           4.3210    1.8183   23.2386 C.ar    1  UNL1        0.0366
     10 C           3.0917    1.4360   24.0084 C.ar    1  UNL1        0.0031
     11 C           2.1632    0.3895   23.4673 C.ar    1  UNL1       -0.0001
     12 C           2.4641   -0.2748   22.1565 C.ar    1  UNL1        0.0007
     13 C           3.6935    0.1075   21.3868 C.ar    1  UNL1        0.0343
     14 C           7.1883    0.9868   21.5589 C.3     1  UNL1        0.2525
     15 O           5.8513    1.5363   21.1581 O.3     1  UNL1       -0.4717
     16 C           5.5648   -2.5316   20.9587 C.ar    1  UNL1        0.0546
     17 C           4.7861   -3.1218   22.0968 C.ar    1  UNL1        0.0149
     18 C           5.4963   -3.8835   23.1763 C.ar    1  UNL1        0.0013
     19 C           6.9854   -4.0551   23.1177 C.ar    1  UNL1        0.0006
     20 C           7.7642   -3.4648   21.9796 C.ar    1  UNL1        0.0013
     21 C           7.0538   -2.7031   20.9002 C.ar    1  UNL1        0.0149
     22 C           7.6956   -4.8168   24.1972 C.ar    1  UNL1        0.0070
     23 C           7.9917   -6.2872   24.1899 C.ar    1  UNL1        0.0075
     24 C           8.7135   -6.6211   25.4617 C.ar    1  UNL1        0.0355
     25 S           8.8635   -5.3569   26.2551 S.2     1  UNL1       -0.0859
     26 C           8.2343   -4.2418   25.4735 C.ar    1  UNL1        0.0354
     27 C           2.5919    1.0476   18.4623 C.2     1  UNL1        0.1695
     28 O           1.2818    1.1772   18.1627 O.2     1  UNL1       -0.2917
     29 C           3.1464    2.4407   18.5030 C.3     1  UNL1        0.0617
     30 C           4.5619    2.6973   18.0782 C.3     1  UNL1        0.0081
     31 C           2.2853    3.5773   18.9685 C.3     1  UNL1        0.0081
@<TRIPOS>UNITY_ATOM_ATTR
4 1
charge -1
@<TRIPOS>BOND
     1    14    15    1
     2    15     8    1
     3     8     9   ar
     4     9    10   ar
     5    10    11   ar
     6    11    12   ar
     7    12    13   ar
     8     1    13    1
     9     1     2    1
    10     2    27    1
    11    27    28    2
    12    27    29    1
    13    29    30    1
    14    29    31    1
    15     2     3    2
    16     3     4    1
    17     3     5    1
    18     5     6    2
    19     5     7   am
    20     7    16    1
    21    16    17   ar
    22    17    18   ar
    23    18    19   ar
    24    19    22    1
    25    22    23   ar
    26    23    24   ar
    27    24    25   ar
    28    25    26   ar
    29    19    20   ar
    30    20    21   ar
    31    13     8   ar
    32     7     1    1
    33    21    16   ar
    34    26    22   ar
@<TRIPOS>MOLECULE
*****
 31 34 0 0 0
SMALL
GASTEIGER

@<TRIPOS>ATOM
      1 C           4.2794    0.4793   33.4906 C.3     1  UNL1        0.1296
      2 C           3.1399    1.4516   33.5688 C.2     1  UNL1        0.0239
      3 C           2.2135    1.1731   32.4224 C.2     1  UNL1       -0.0350
      4 O           0.9432    1.9097   32.1163 O.co2   1  UNL1       -0.8701
      5 C           2.7805    0.0286   31.6357 C.2     1  UNL1        0.2375
      6 O           2.1767   -0.5801   30.4049 O.2     1  UNL1       -0.2709
      7 N           4.0573   -0.4001   32.2959 N.am    1  UNL1       -0.2499
      8 C           6.7878    0.9013   34.0202 C.ar    1  UNL1        0.1366
      9 C           7.9461    0.8223   34.9699 C.ar    1  UNL1        0.0366
     10 C           7.7544    0.2423   36.3399 C.ar    1  UNL1        0.0031
     11 C           6.4044   -0.2587   36.7601 C.ar    1  UNL1       -0.0001
     12 C           5.2461   -0.1797   35.8104 C.ar    1  UNL1        0.0007
     13 C           5.4378    0.4003   34.4404 C.ar    1  UNL1        0.0343
     14 C           6.8648    2.9621   32.4399 C.3     1  UNL1        0.2525
     15 O           6.9794    1.4813   32.6502 O.3     1  UNL1       -0.4717
     16 C           4.9545   -1.5129   31.8413 C.ar    1  UNL1        0.0546
     17 C           5.5368   -1.4898   30.4591 C.ar    1  UNL1        0.0149
     18 C           6.4339   -2.6026   30.0045 C.ar    1  UNL1        0.0013
     19 C           6.7488   -3.7387   30.9320 C.ar    1  UNL1        0.0006
     20 C           6.1665   -3.7618   32.3143 C.ar    1  UNL1        0.0013
     21 C           5.2694   -2.6490   32.7688 C.ar    1  UNL1        0.0149
     22 C           7.6460   -4.8515   30.4774 C.ar    1  UNL1        0.0070
     23 C           8.9874   -5.1942   31.0546 C.ar    1  UNL1        0.0075
     24 C           9.5297   -6.3715   30.2997 C.ar    1  UNL1        0.0355
     25 S           8.5235   -6.7564   29.2559 S.2     1  UNL1       -0.0859
     26 C           7.3593   -5.8169   29.3658 C.ar    1  UNL1        0.0354
     27 C           2.9586    2.5156   34.6104 C.2     1  UNL1        0.1695
     28 O           2.0844    2.6975   35.6230 O.2     1  UNL1       -0.2917
     29 C           3.8855    3.6943   34.6479 C.3     1  UNL1        0.0617
     30 C           4.9380    3.7872   35.7126 C.3     1  UNL1        0.0081
     31 C           3.7600    4.7802   33.6207 C.3     1  UNL1        0.0081
@<TRIPOS>UNITY_ATOM_ATTR
4 1
charge -1
@<TRIPOS>BOND
     1    14    15    1
     2    15     8    1
     3     8     9   ar
     4     9    10   ar
     5    10    11   ar
     6    11    12   ar
     7    12    13   ar
     8     1    13    1
     9     1     2    1
    10     2    27    1
    11    27    28    2
    12    27    29    1
    13    29    30    1
    14    29    31    1
    15     2     3    2
    16     3     4    1
    17     3     5    1
    18     5     6    2
    19     5     7   am
    20     7    16    1
    21    16    17   ar
    22    17    18   ar
    23    18    19   ar
    24    19    22    1
    25    22    23   ar
    26    23    24   ar
    27    24    25   ar
    28    25    26   ar
    29    19    20   ar
    30    20    21   ar
    31    13     8   ar
    32     7     1    1
    33    21    16   ar
    34    26    22   ar
@<TRIPOS>MOLECULE
*****
 31 34 0 0 0
SMALL
GASTEIGER

@<TRIPOS>ATOM
      1 C           3.3901   -0.9955   21.3812 C.3     1  UNL1        0.1296
      2 C           2.2925   -0.0203   21.0744 C.2     1  UNL1        0.0239
      3 C           1.8054    0.5528   22.3722 C.2     1  UNL1       -0.0350
      4 O           0.7135    1.5686   22.5329 O.co2   1  UNL1       -0.8701
      5 C           2.6019   -0.0684   23.4812 C.2     1  UNL1        0.2375
      6 O           2.4464    0.2172   24.9455 O.2     1  UNL1       -0.2709
      7 N           3.5813   -1.0253   22.8687 N.am    1  UNL1       -0.2499
      8 C           5.5361   -1.3652   19.9641 C.ar    1  UNL1        0.1366
      9 C           6.3071   -2.1694   18.9599 C.ar    1  UNL1        0.0366
     10 C           5.7031   -3.4085   18.3684 C.ar    1  UNL1        0.0031
     11 C           4.3281   -3.8433   18.7811 C.ar    1  UNL1       -0.0001
     12 C           3.5571   -3.0390   19.7854 C.ar    1  UNL1        0.0007
     13 C           4.1611   -1.7999   20.3769 C.ar    1  UNL1        0.0343
     14 C           7.2132   -0.2386   21.5976 C.3     1  UNL1        0.2525
     15 O           6.1401   -0.1260   20.5557 O.3     1  UNL1       -0.4717
     16 C           4.5771   -1.8646   23.6130 C.ar    1  UNL1        0.0546
     17 C           4.9320   -3.2317   23.1081 C.ar    1  UNL1        0.0149
     18 C           5.9278   -4.0710   23.8524 C.ar    1  UNL1        0.0013
     19 C           6.5686   -3.5432   25.1017 C.ar    1  UNL1        0.0006
     20 C           6.2137   -2.1760   25.6067 C.ar    1  UNL1        0.0013
     21 C           5.2179   -1.3368   24.8623 C.ar    1  UNL1        0.0149
     22 C           7.5644   -4.3825   25.8460 C.ar    1  UNL1        0.0070
     23 C           7.8353   -5.8399   25.6169 C.ar    1  UNL1        0.0075
     24 C           8.9024   -6.2699   26.5794 C.ar    1  UNL1        0.0355
     25 S           9.2910   -5.0782   27.4034 S.2     1  UNL1       -0.0859
     26 C           8.4640   -3.9118   26.9501 C.ar    1  UNL1        0.0354
     27 C           1.7732    0.3220   19.7094 C.2     1  UNL1        0.1695
     28 O           0.5527    0.2838   19.1335 O.2     1  UNL1       -0.2917
     29 C           2.7117    0.8304   18.6556 C.3     1  UNL1        0.0617
     30 C           3.1382   -0.0692   17.5337 C.3     1  UNL1        0.0081
     31 C           3.2237    2.2388   18.7236 C.3     1  UNL1        0.0081
@<TRIPOS>UNITY_ATOM_ATTR
4 1
charge -1
@<TRIPOS>BOND
     1    14    15    1
     2    15     8    1
     3     8     9   ar
     4     9    10   ar
     5    10    11   ar
     6    11    12   ar
     7    12    13   ar
     8     1    13    1
     9     1     2    1
    10     2    27    1
    11    27    28    2
    12    27    29    1
    13    29    30    1
    14    29    31    1
    15     2     3    2
    16     3     4    1
    17     3     5    1
    18     5     6    2
    19     5     7   am
    20     7    16    1
    21    16    17   ar
    22    17    18   ar
    23    18    19   ar
    24    19    22    1
    25    22    23   ar
    26    23    24   ar
    27    24    25   ar
    28    25    26   ar
    29    19    20   ar
    30    20    21   ar
    31    13     8   ar
    32     7     1    1
    33    21    16   ar
    34    26    22   ar
@<TRIPOS>MOLECULE
*****
 31 34 0 0 0
SMALL
GASTEIGER

@<TRIPOS>ATOM
      1 C          -9.3829  -17.7913   22.2927 C.3     1  UNL1        0.1296
      2 C         -10.8373  -18.0826   22.0697 C.2     1  UNL1        0.0239
      3 C         -10.9469  -19.0456   20.9248 C.2     1  UNL1       -0.0350
      4 O         -12.2198  -19.6063   20.3631 O.co2   1  UNL1       -0.8701
      5 C          -9.5602  -19.3494   20.4403 C.2     1  UNL1        0.2375
      6 O          -9.2028  -20.2672   19.3089 O.2     1  UNL1       -0.2709
      7 N          -8.5936  -18.5742   21.2857 N.am    1  UNL1       -0.2499
      8 C          -8.0767  -15.6382   22.9317 C.ar    1  UNL1        0.1366
      9 C          -7.5109  -14.7244   23.9780 C.ar    1  UNL1        0.0366
     10 C          -7.6855  -15.0499   25.4317 C.ar    1  UNL1        0.0031
     11 C          -8.4259  -16.2891   25.8392 C.ar    1  UNL1       -0.0001
     12 C          -8.9917  -17.2029   24.7929 C.ar    1  UNL1        0.0007
     13 C          -8.8171  -16.8775   23.3391 C.ar    1  UNL1        0.0343
     14 C          -8.8864  -14.4166   20.7864 C.3     1  UNL1        0.2525
     15 O          -7.9021  -15.3128   21.4778 O.3     1  UNL1       -0.4717
     16 C          -7.0999  -18.5807   21.1482 C.ar    1  UNL1        0.0546
     17 C          -6.4705  -18.8664   19.8171 C.ar    1  UNL1        0.0149
     18 C          -4.9768  -18.8729   19.6796 C.ar    1  UNL1        0.0013
     19 C          -4.1125  -18.5938   20.8734 C.ar    1  UNL1        0.0006
     20 C          -4.7420  -18.3081   22.2047 C.ar    1  UNL1        0.0013
     21 C          -6.2357  -18.3016   22.3420 C.ar    1  UNL1        0.0149
     22 C          -2.6189  -18.6003   20.7359 C.ar    1  UNL1        0.0070
     23 C          -1.6332  -18.8520   21.8382 C.ar    1  UNL1        0.0075
     24 C          -0.2538  -18.7636   21.2556 C.ar    1  UNL1        0.0355
     25 S          -0.3870  -18.4572   19.7932 S.2     1  UNL1       -0.0859
     26 C          -1.8487  -18.3563   19.4722 C.ar    1  UNL1        0.0354
     27 C         -11.9814  -17.5114   22.8538 C.2     1  UNL1        0.1695
     28 O         -12.6771  -16.3561   22.7911 O.2     1  UNL1       -0.2917
     29 C         -12.5796  -18.2932   23.9855 C.3     1  UNL1        0.0617
     30 C         -11.7240  -19.2318   24.7835 C.3     1  UNL1        0.0081
     31 C         -14.0337  -18.1364   24.3192 C.3     1  UNL1        0.0081
@<TRIPOS>UNITY_ATOM_ATTR
4 1
charge -1
@<TRIPOS>BOND
     1    14    15    1
     2    15     8    1
     3     8     9   ar
     4     9    10   ar
     5    10    11   ar
     6    11    12   ar
     7    12    13   ar
     8     1    13    1
     9     1     2    1
    10     2    27    1
    11    27    28    2
    12    27    29    1
    13    29    30    1
    14    29    31    1
    15     2     3    2
    16     3     4    1
    17     3     5    1
    18     5     6    2
    19     5     7   am
    20     7    16    1
    21    16    17   ar
    22    17    18   ar
    23    18    19   ar
    24    19    22    1
    25    22    23   ar
    26    23    24   ar
    27    24    25   ar
    28    25    26   ar
    29    19    20   ar
    30    20    21   ar
    31    13     8   ar
    32     7     1    1
    33    21    16   ar
    34    26    22   ar
