@<TRIPOS>MOLECULE
*****
 29 31 0 0 0
SMALL
GASTEIGER

@<TRIPOS>ATOM
      1 C          -9.7107  -19.2611   21.4926 C.ar    1  UNL1        0.0555
      2 C          -8.2946  -18.7684   21.4488 C.ar    1  UNL1        0.0168
      3 C          -7.4810  -18.9348   20.1997 C.ar    1  UNL1        0.0505
      4 C          -8.0834  -19.5939   18.9945 C.ar    1  UNL1        0.0170
      5 C          -9.4995  -20.0866   19.0383 C.ar    1  UNL1        0.0307
      6 C         -10.3131  -19.9202   20.2874 C.ar    1  UNL1        0.1402
      7 F         -11.7293  -20.4129   20.3312 F       1  UNL1       -0.2044
      8 C          -9.4609  -20.0249   23.2456 C.3     1  UNL1        0.0638
      9 C         -10.5244  -19.0947   22.7418 C.3     1  UNL1        0.2513
     10 N         -11.3053  -18.2223   21.8041 N.2     1  UNL1       -0.0663
     11 C         -12.5305  -17.5066   22.2906 C.2     1  UNL1        0.3195
     12 N         -13.3113  -16.6342   21.3528 N.pl3   1  UNL1       -0.2480
     13 C         -12.9748  -17.6633   23.7147 C.3     1  UNL1        0.2611
     14 O         -12.1940  -18.5357   24.6523 O.3     1  UNL1       -0.3108
     15 C         -10.9688  -19.2514   24.1659 C.3     1  UNL1        0.3281
     16 F         -10.1878  -20.1238   25.1035 F       1  UNL1       -0.1989
     17 H         -13.0197  -16.5314   20.4182 H       1  UNL1        0.2882
     18 H         -14.1155  -16.1645   21.6721 H       1  UNL1        0.2882
     19 N          -6.0648  -18.4420   20.1559 N.am    1  UNL1       -0.2791
     20 C          -4.9285  -19.4157   20.2595 C.2     1  UNL1        0.2672
     21 O          -5.2083  -20.8820   20.4070 O.2     1  UNL1       -0.2682
     22 H          -5.8813  -17.4797   20.0591 H       1  UNL1        0.1552
     23 C          -3.5124  -18.9230   20.2156 C.ar    1  UNL1        0.1348
     24 C          -2.9809  -18.2780   18.9701 C.ar    1  UNL1        0.0246
     25 C          -1.5648  -17.7854   18.9263 C.ar    1  UNL1        0.0147
     26 C          -0.6802  -17.9377   20.1280 C.ar    1  UNL1        0.0768
     27 CL          0.7359  -17.4451   20.0841 Cl      1  UNL1       -0.0806
     28 C          -1.2116  -18.5827   21.3736 C.ar    1  UNL1        0.1103
     29 N          -2.6277  -19.0754   21.4174 N.ar    1  UNL1       -0.2384
@<TRIPOS>BOND
     1     9     8    1
     2     9     1    1
     3     1     2   ar
     4     2     3   ar
     5     3    19    1
     6    19    20   am
     7    20    21    2
     8    20    23    1
     9    23    24   ar
    10    24    25   ar
    11    25    26   ar
    12    26    27    1
    13    26    28   ar
    14    28    29   ar
    15     3     4   ar
    16     4     5   ar
    17     5     6   ar
    18     6     7    1
    19     9    10    1
    20    10    11    2
    21    11    12    1
    22    11    13    1
    23    13    14    1
    24    14    15    1
    25    15    16    1
    26    15     9    1
    27     6     1   ar
    28    29    23   ar
    29    19    22    1
    30    12    17    1
    31    12    18    1
@<TRIPOS>MOLECULE
*****
 29 31 0 0 0
SMALL
GASTEIGER

@<TRIPOS>ATOM
      1 C          -9.9322  -18.8104   21.1369 C.ar    1  UNL1        0.0555
      2 C          -8.4984  -18.3703   21.1136 C.ar    1  UNL1        0.0168
      3 C          -7.5884  -18.8372   20.0165 C.ar    1  UNL1        0.0505
      4 C          -8.1121  -19.7442   18.9427 C.ar    1  UNL1        0.0170
      5 C          -9.5459  -20.1843   18.9660 C.ar    1  UNL1        0.0307
      6 C         -10.4559  -19.7174   20.0631 C.ar    1  UNL1        0.1402
      7 F         -11.8898  -20.1575   20.0864 F       1  UNL1       -0.2044
      8 C         -11.1630  -17.3265   21.1792 C.3     1  UNL1        0.0638
      9 C         -10.8423  -18.3435   22.2341 C.3     1  UNL1        0.2513
     10 N         -10.2056  -19.5227   22.9080 N.2     1  UNL1       -0.0663
     11 C         -10.5904  -19.8818   24.3126 C.2     1  UNL1        0.3195
     12 N          -9.9536  -21.0610   24.9865 N.pl3   1  UNL1       -0.2480
     13 C         -11.6119  -19.0616   25.0434 C.3     1  UNL1        0.2611
     14 O         -12.2486  -17.8825   24.3695 O.3     1  UNL1       -0.3108
     15 C         -11.8638  -17.5234   22.9649 C.3     1  UNL1        0.3281
     16 F         -12.5005  -16.3442   22.2909 F       1  UNL1       -0.1989
     17 H          -9.2832  -21.5992   24.5068 H       1  UNL1        0.2882
     18 H         -10.2061  -21.2967   25.9084 H       1  UNL1        0.2882
     19 N          -6.1545  -18.3972   19.9931 N.am    1  UNL1       -0.2791
     20 C          -5.0598  -19.3950   20.2298 C.2     1  UNL1        0.2672
     21 O          -5.3990  -20.8329   20.4898 O.2     1  UNL1       -0.2682
     22 H          -5.9320  -17.4535   19.8225 H       1  UNL1        0.1552
     23 C          -3.6260  -18.9550   20.2065 C.ar    1  UNL1        0.1348
     24 C          -2.7356  -19.2376   21.3800 C.ar    1  UNL1        0.0246
     25 C          -1.3017  -18.7975   21.3566 C.ar    1  UNL1        0.0147
     26 C          -0.7584  -18.0749   20.1597 C.ar    1  UNL1        0.0768
     27 CL          0.6754  -17.6349   20.1364 Cl      1  UNL1       -0.0806
     28 C          -1.6488  -17.7924   18.9862 C.ar    1  UNL1        0.1103
     29 N          -3.0826  -18.2324   19.0095 N.ar    1  UNL1       -0.2384
@<TRIPOS>BOND
     1     9     8    1
     2     9     1    1
     3     1     2   ar
     4     2     3   ar
     5     3    19    1
     6    19    20   am
     7    20    21    2
     8    20    23    1
     9    23    24   ar
    10    24    25   ar
    11    25    26   ar
    12    26    27    1
    13    26    28   ar
    14    28    29   ar
    15     3     4   ar
    16     4     5   ar
    17     5     6   ar
    18     6     7    1
    19     9    10    1
    20    10    11    2
    21    11    12    1
    22    11    13    1
    23    13    14    1
    24    14    15    1
    25    15    16    1
    26    15     9    1
    27     6     1   ar
    28    29    23   ar
    29    19    22    1
    30    12    17    1
    31    12    18    1
@<TRIPOS>MOLECULE
*****
 29 31 0 0 0
SMALL
GASTEIGER

@<TRIPOS>ATOM
      1 C           3.5710   -1.6804   19.4743 C.ar    1  UNL1        0.0555
      2 C           2.6289   -1.1866   20.5319 C.ar    1  UNL1        0.0168
      3 C           1.7571    0.0040   20.2631 C.ar    1  UNL1        0.0505
      4 C           1.8273    0.7008   18.9367 C.ar    1  UNL1        0.0170
      5 C           2.7693    0.2070   17.8790 C.ar    1  UNL1        0.0307
      6 C           3.6412   -0.9836   18.1478 C.ar    1  UNL1        0.1402
      7 F           4.5833   -1.4774   17.0901 F       1  UNL1       -0.2044
      8 C           3.2348   -3.5556   19.1757 C.3     1  UNL1        0.0638
      9 C           4.4429   -2.8711   19.7431 C.3     1  UNL1        0.2513
     10 N           5.3481   -1.7730   20.2171 N.2     1  UNL1       -0.0663
     11 C           6.7057   -2.1033   20.7629 C.2     1  UNL1        0.3195
     12 N           7.6110   -1.0052   21.2369 N.pl3   1  UNL1       -0.2480
     13 C           7.1580   -3.5318   20.8346 C.3     1  UNL1        0.2611
     14 O           6.2527   -4.6298   20.3605 O.3     1  UNL1       -0.3108
     15 C           4.8952   -4.2995   19.8148 C.3     1  UNL1        0.3281
     16 F           3.9898   -5.3975   19.3407 F       1  UNL1       -0.1989
     17 H           7.3141   -0.0677   21.1898 H       1  UNL1        0.2882
     18 H           8.5020   -1.2220   21.5951 H       1  UNL1        0.2882
     19 N           0.8150    0.4979   21.3208 N.am    1  UNL1       -0.2791
     20 C           1.3182    1.3919   22.4152 C.2     1  UNL1        0.2672
     21 O           2.7634    1.7920   22.4519 O.2     1  UNL1       -0.2682
     22 H          -0.1335    0.2353   21.2967 H       1  UNL1        0.1552
     23 C           0.3762    1.8857   23.4729 C.ar    1  UNL1        0.1348
     24 C           0.3916    1.2670   24.8392 C.ar    1  UNL1        0.0246
     25 C          -0.5505    1.7609   25.8969 C.ar    1  UNL1        0.0147
     26 C          -1.5079    2.8735   25.5882 C.ar    1  UNL1        0.0768
     27 CL         -2.4499    3.3674   26.6458 Cl      1  UNL1       -0.0806
     28 C          -1.5234    3.4923   24.2218 C.ar    1  UNL1        0.1103
     29 N          -0.5814    2.9984   23.1642 N.ar    1  UNL1       -0.2384
@<TRIPOS>BOND
     1     9     8    1
     2     9     1    1
     3     1     2   ar
     4     2     3   ar
     5     3    19    1
     6    19    20   am
     7    20    21    2
     8    20    23    1
     9    23    24   ar
    10    24    25   ar
    11    25    26   ar
    12    26    27    1
    13    26    28   ar
    14    28    29   ar
    15     3     4   ar
    16     4     5   ar
    17     5     6   ar
    18     6     7    1
    19     9    10    1
    20    10    11    2
    21    11    12    1
    22    11    13    1
    23    13    14    1
    24    14    15    1
    25    15    16    1
    26    15     9    1
    27     6     1   ar
    28    29    23   ar
    29    19    22    1
    30    12    17    1
    31    12    18    1
@<TRIPOS>MOLECULE
*****
 29 31 0 0 0
SMALL
GASTEIGER

@<TRIPOS>ATOM
      1 C           3.2548   -1.5248   19.6961 C.ar    1  UNL1        0.0555
      2 C           2.0237   -0.9469   20.3288 C.ar    1  UNL1        0.0168
      3 C           1.3112    0.1990   19.6736 C.ar    1  UNL1        0.0505
      4 C           1.8298    0.7670   18.3859 C.ar    1  UNL1        0.0170
      5 C           3.0610    0.1891   17.7532 C.ar    1  UNL1        0.0307
      6 C           3.7735   -0.9568   18.4084 C.ar    1  UNL1        0.1402
      7 F           5.0047   -1.5348   17.7757 F       1  UNL1       -0.2044
      8 C           3.1617   -3.4155   19.3284 C.3     1  UNL1        0.0638
      9 C           3.9674   -2.6707   20.3513 C.3     1  UNL1        0.2513
     10 N           4.5255   -1.5280   21.1466 N.2     1  UNL1       -0.0663
     11 C           5.5165   -1.7898   22.2418 C.2     1  UNL1        0.3195
     12 N           6.0746   -0.6470   23.0372 N.pl3   1  UNL1       -0.2480
     13 C           5.9492   -3.1944   22.5417 C.3     1  UNL1        0.2611
     14 O           5.3910   -4.3371   21.7464 O.3     1  UNL1       -0.3108
     15 C           4.4001   -4.0753   20.6512 C.3     1  UNL1        0.3281
     16 F           3.8419   -5.2180   19.8558 F       1  UNL1       -0.1989
     17 H           5.7906    0.2748   22.8404 H       1  UNL1        0.2882
     18 H           6.7250   -0.8189   23.7560 H       1  UNL1        0.2882
     19 N           0.0800    0.7770   20.3063 N.am    1  UNL1       -0.2791
     20 C           0.1093    2.1654   20.8733 C.2     1  UNL1        0.2672
     21 O           1.3699    2.9758   20.8076 O.2     1  UNL1       -0.2682
     22 H          -0.7473    0.2450   20.3494 H       1  UNL1        0.1552
     23 C          -1.1218    2.7434   21.5059 C.ar    1  UNL1        0.1348
     24 C          -1.0708    3.2568   22.9144 C.ar    1  UNL1        0.0246
     25 C          -2.3020    3.8348   23.5470 C.ar    1  UNL1        0.0147
     26 C          -3.5841    3.8993   22.7711 C.ar    1  UNL1        0.0768
     27 CL         -4.8152    4.4773   23.4037 Cl      1  UNL1       -0.0806
     28 C          -3.6351    3.3859   21.3626 C.ar    1  UNL1        0.1103
     29 N          -2.4040    2.8079   20.7300 N.ar    1  UNL1       -0.2384
@<TRIPOS>BOND
     1     9     8    1
     2     9     1    1
     3     1     2   ar
     4     2     3   ar
     5     3    19    1
     6    19    20   am
     7    20    21    2
     8    20    23    1
     9    23    24   ar
    10    24    25   ar
    11    25    26   ar
    12    26    27    1
    13    26    28   ar
    14    28    29   ar
    15     3     4   ar
    16     4     5   ar
    17     5     6   ar
    18     6     7    1
    19     9    10    1
    20    10    11    2
    21    11    12    1
    22    11    13    1
    23    13    14    1
    24    14    15    1
    25    15    16    1
    26    15     9    1
    27     6     1   ar
    28    29    23   ar
    29    19    22    1
    30    12    17    1
    31    12    18    1
@<TRIPOS>MOLECULE
*****
 29 31 0 0 0
SMALL
GASTEIGER

@<TRIPOS>ATOM
      1 C         -11.5905   -4.3450   18.0291 C.ar    1  UNL1        0.0555
      2 C         -12.7834   -5.1746   17.6568 C.ar    1  UNL1        0.0168
      3 C         -12.7936   -6.6462   17.9471 C.ar    1  UNL1        0.0505
      4 C         -11.6109   -7.2882   18.6096 C.ar    1  UNL1        0.0170
      5 C         -10.4179   -6.4586   18.9819 C.ar    1  UNL1        0.0307
      6 C         -10.4078   -4.9870   18.6916 C.ar    1  UNL1        0.1402
      7 F          -9.2148   -4.1573   19.0639 F       1  UNL1       -0.2044
      8 C         -10.3914   -3.3060   16.9330 C.3     1  UNL1        0.0638
      9 C         -11.5803   -2.8733   17.7389 C.3     1  UNL1        0.2513
     10 N         -12.7727   -2.9517   18.6454 N.2     1  UNL1       -0.0663
     11 C         -13.5420   -1.7088   18.9820 C.2     1  UNL1        0.3195
     12 N         -14.7344   -1.7872   19.8886 N.pl3   1  UNL1       -0.2480
     13 C         -13.1188   -0.3874   18.4119 C.3     1  UNL1        0.2611
     14 O         -11.9264   -0.3090   17.5053 O.3     1  UNL1       -0.3108
     15 C         -11.1571   -1.5520   17.1687 C.3     1  UNL1        0.3281
     16 F          -9.9647   -1.4737   16.2622 F       1  UNL1       -0.1989
     17 H         -15.0121   -2.6544   20.2628 H       1  UNL1        0.2882
     18 H         -15.2394   -0.9714   20.1095 H       1  UNL1        0.2882
     19 N         -13.9866   -7.4758   17.5748 N.am    1  UNL1       -0.2791
     20 C         -15.1930   -7.4971   18.4660 C.2     1  UNL1        0.2672
     21 O         -15.2064   -6.6886   19.7294 O.2     1  UNL1       -0.2682
     22 H         -13.9778   -8.0064   16.7455 H       1  UNL1        0.1552
     23 C         -16.3859   -8.3267   18.0937 C.ar    1  UNL1        0.1348
     24 C         -16.5112   -9.7315   18.6042 C.ar    1  UNL1        0.0246
     25 C         -17.7043  -10.5612   18.2319 C.ar    1  UNL1        0.0147
     26 C         -18.7719   -9.9859   17.3492 C.ar    1  UNL1        0.0768
     27 CL        -19.9648  -10.8155   16.9770 Cl      1  UNL1       -0.0806
     28 C         -18.6465   -8.5810   16.8387 C.ar    1  UNL1        0.1103
     29 N         -17.4536   -7.7514   17.2110 N.ar    1  UNL1       -0.2384
@<TRIPOS>BOND
     1     9     8    1
     2     9     1    1
     3     1     2   ar
     4     2     3   ar
     5     3    19    1
     6    19    20   am
     7    20    21    2
     8    20    23    1
     9    23    24   ar
    10    24    25   ar
    11    25    26   ar
    12    26    27    1
    13    26    28   ar
    14    28    29   ar
    15     3     4   ar
    16     4     5   ar
    17     5     6   ar
    18     6     7    1
    19     9    10    1
    20    10    11    2
    21    11    12    1
    22    11    13    1
    23    13    14    1
    24    14    15    1
    25    15    16    1
    26    15     9    1
    27     6     1   ar
    28    29    23   ar
    29    19    22    1
    30    12    17    1
    31    12    18    1
@<TRIPOS>MOLECULE
*****
 29 31 0 0 0
SMALL
GASTEIGER

@<TRIPOS>ATOM
      1 C          -9.1378  -19.1304   22.1692 C.ar    1  UNL1        0.0555
      2 C          -7.7304  -18.8247   21.7500 C.ar    1  UNL1        0.0168
      3 C          -7.3320  -18.9540   20.3097 C.ar    1  UNL1        0.0505
      4 C          -8.3410  -19.3891   19.2886 C.ar    1  UNL1        0.0170
      5 C          -9.7484  -19.6948   19.7078 C.ar    1  UNL1        0.0307
      6 C         -10.1468  -19.5655   21.1481 C.ar    1  UNL1        0.1402
      7 F         -11.5543  -19.8712   21.5674 F       1  UNL1       -0.2044
      8 C          -9.9590  -20.4165   23.3484 C.3     1  UNL1        0.0638
      9 C          -9.5362  -19.0012   23.6096 C.3     1  UNL1        0.2513
     10 N          -8.9752  -17.6308   23.3706 N.2     1  UNL1       -0.0663
     11 C          -8.9593  -16.6226   24.4811 C.2     1  UNL1        0.3195
     12 N          -8.3982  -15.2522   24.2420 N.pl3   1  UNL1       -0.2480
     13 C          -9.5046  -16.9849   25.8308 C.3     1  UNL1        0.2611
     14 O         -10.0657  -18.3553   26.0698 O.3     1  UNL1       -0.3108
     15 C         -10.0815  -19.3634   24.9593 C.3     1  UNL1        0.3281
     16 F         -10.6426  -20.7339   25.1982 F       1  UNL1       -0.1989
     17 H          -8.0404  -15.0144   23.3562 H       1  UNL1        0.2882
     18 H          -8.3878  -14.5905   24.9709 H       1  UNL1        0.2882
     19 N          -5.9246  -18.6483   19.8905 N.am    1  UNL1       -0.2791
     20 C          -4.7912  -18.8754   20.8464 C.2     1  UNL1        0.2672
     21 O          -5.0652  -19.4083   22.2216 O.2     1  UNL1       -0.2682
     22 H          -5.7448  -18.2986   18.9879 H       1  UNL1        0.1552
     23 C          -3.3838  -18.5698   20.4272 C.ar    1  UNL1        0.1348
     24 C          -2.2341  -19.0027   21.2879 C.ar    1  UNL1        0.0246
     25 C          -0.8266  -18.6970   20.8686 C.ar    1  UNL1        0.0147
     26 C          -0.5690  -17.9584   19.5888 C.ar    1  UNL1        0.0768
     27 CL          0.8384  -17.6527   19.1696 Cl      1  UNL1       -0.0806
     28 C          -1.7187  -17.5254   18.7281 C.ar    1  UNL1        0.1103
     29 N          -3.1261  -17.8311   19.1473 N.ar    1  UNL1       -0.2384
@<TRIPOS>BOND
     1     9     8    1
     2     9     1    1
     3     1     2   ar
     4     2     3   ar
     5     3    19    1
     6    19    20   am
     7    20    21    2
     8    20    23    1
     9    23    24   ar
    10    24    25   ar
    11    25    26   ar
    12    26    27    1
    13    26    28   ar
    14    28    29   ar
    15     3     4   ar
    16     4     5   ar
    17     5     6   ar
    18     6     7    1
    19     9    10    1
    20    10    11    2
    21    11    12    1
    22    11    13    1
    23    13    14    1
    24    14    15    1
    25    15    16    1
    26    15     9    1
    27     6     1   ar
    28    29    23   ar
    29    19    22    1
    30    12    17    1
    31    12    18    1
@<TRIPOS>MOLECULE
*****
 29 31 0 0 0
SMALL
GASTEIGER

@<TRIPOS>ATOM
      1 C           3.2819   -0.9729   20.3833 C.ar    1  UNL1        0.0555
      2 C           1.9947   -0.3404   19.9441 C.ar    1  UNL1        0.0168
      3 C           1.0901    0.2991   20.9554 C.ar    1  UNL1        0.0505
      4 C           1.4727    0.3061   22.4057 C.ar    1  UNL1        0.0170
      5 C           2.7599   -0.3264   22.8449 C.ar    1  UNL1        0.0307
      6 C           3.6645   -0.9660   21.8337 C.ar    1  UNL1        0.1402
      7 F           4.9518   -1.5985   22.2728 F       1  UNL1       -0.2044
      8 C           3.3107   -2.7813   19.7141 C.3     1  UNL1        0.0638
      9 C           4.1866   -1.6125   19.3720 C.3     1  UNL1        0.2513
     10 N           4.7483   -0.2217   19.3812 N.2     1  UNL1       -0.0663
     11 C           5.9104    0.1236   18.4980 C.2     1  UNL1        0.3195
     12 N           6.4721    1.5145   18.5072 N.pl3   1  UNL1       -0.2480
     13 C           6.5109   -0.9219   17.6056 C.3     1  UNL1        0.2611
     14 O           5.9492   -2.3127   17.5964 O.3     1  UNL1       -0.3108
     15 C           4.7871   -2.6580   18.4796 C.3     1  UNL1        0.3281
     16 F           4.2253   -4.0488   18.4705 F       1  UNL1       -0.1989
     17 H           6.0780    2.2007   19.0930 H       1  UNL1        0.2882
     18 H           7.2349    1.7412   17.9275 H       1  UNL1        0.2882
     19 N          -0.1973    0.9317   20.5162 N.am    1  UNL1       -0.2791
     20 C          -0.3269    2.4258   20.4868 C.2     1  UNL1        0.2672
     21 O           0.8307    3.2873   20.8964 O.2     1  UNL1       -0.2682
     22 H          -0.9570    0.3663   20.2474 H       1  UNL1        0.1552
     23 C          -1.6141    3.0584   20.0477 C.ar    1  UNL1        0.1348
     24 C          -1.6414    3.9381   18.8330 C.ar    1  UNL1        0.0246
     25 C          -2.9288    4.5707   18.3939 C.ar    1  UNL1        0.0147
     26 C          -4.1887    4.3236   19.1695 C.ar    1  UNL1        0.0768
     27 CL         -5.4759    4.9562   18.7304 Cl      1  UNL1       -0.0806
     28 C          -4.1613    3.4439   20.3841 C.ar    1  UNL1        0.1103
     29 N          -2.8741    2.8113   20.8232 N.ar    1  UNL1       -0.2384
@<TRIPOS>BOND
     1     9     8    1
     2     9     1    1
     3     1     2   ar
     4     2     3   ar
     5     3    19    1
     6    19    20   am
     7    20    21    2
     8    20    23    1
     9    23    24   ar
    10    24    25   ar
    11    25    26   ar
    12    26    27    1
    13    26    28   ar
    14    28    29   ar
    15     3     4   ar
    16     4     5   ar
    17     5     6   ar
    18     6     7    1
    19     9    10    1
    20    10    11    2
    21    11    12    1
    22    11    13    1
    23    13    14    1
    24    14    15    1
    25    15    16    1
    26    15     9    1
    27     6     1   ar
    28    29    23   ar
    29    19    22    1
    30    12    17    1
    31    12    18    1
@<TRIPOS>MOLECULE
*****
 29 31 0 0 0
SMALL
GASTEIGER

@<TRIPOS>ATOM
      1 C           4.2269    1.6900   37.2330 C.ar    1  UNL1        0.0555
      2 C           4.3052    0.7204   36.0913 C.ar    1  UNL1        0.0168
      3 C           5.6141    0.0755   35.7434 C.ar    1  UNL1        0.0505
      4 C           6.8446    0.4003   36.5373 C.ar    1  UNL1        0.0170
      5 C           6.7663    1.3699   37.6790 C.ar    1  UNL1        0.0307
      6 C           5.4575    2.0148   38.0269 C.ar    1  UNL1        0.1402
      7 F           5.3791    2.9844   39.1687 F       1  UNL1       -0.2044
      8 C           3.5184    3.4098   36.7240 C.3     1  UNL1        0.0638
      9 C           2.9180    2.3349   37.5809 C.3     1  UNL1        0.2513
     10 N           2.7722    1.0361   38.3170 N.2     1  UNL1       -0.0663
     11 C           1.5261    0.7554   39.1033 C.2     1  UNL1        0.3195
     12 N           1.3804   -0.5434   39.8394 N.pl3   1  UNL1       -0.2480
     13 C           0.4258    1.7737   39.1536 C.3     1  UNL1        0.2611
     14 O           0.5715    3.0724   38.4176 O.3     1  UNL1       -0.3108
     15 C           1.8177    3.3531   37.6312 C.3     1  UNL1        0.3281
     16 F           1.9635    4.6519   36.8951 F       1  UNL1       -0.1989
     17 H           2.1026   -1.2117   39.8064 H       1  UNL1        0.2882
     18 H           0.5625   -0.7277   40.3556 H       1  UNL1        0.2882
     19 N           5.6924   -0.8941   34.6016 N.am    1  UNL1       -0.2791
     20 C           6.2573   -0.4559   33.2829 C.2     1  UNL1        0.2672
     21 O           6.7438    0.9520   33.1060 O.2     1  UNL1       -0.2682
     22 H           5.3731   -1.8182   34.7177 H       1  UNL1        0.1552
     23 C           6.3356   -1.4255   32.1411 C.ar    1  UNL1        0.1348
     24 C           6.5823   -2.8807   32.4085 C.ar    1  UNL1        0.0246
     25 C           6.6607   -3.8503   31.2666 C.ar    1  UNL1        0.0147
     26 C           6.4924   -3.3647   29.8575 C.ar    1  UNL1        0.0768
     27 CL          6.5708   -4.3343   28.7157 Cl      1  UNL1       -0.0806
     28 C           6.2457   -1.9095   29.5901 C.ar    1  UNL1        0.1103
     29 N           6.1674   -0.9399   30.7319 N.ar    1  UNL1       -0.2384
@<TRIPOS>BOND
     1     9     8    1
     2     9     1    1
     3     1     2   ar
     4     2     3   ar
     5     3    19    1
     6    19    20   am
     7    20    21    2
     8    20    23    1
     9    23    24   ar
    10    24    25   ar
    11    25    26   ar
    12    26    27    1
    13    26    28   ar
    14    28    29   ar
    15     3     4   ar
    16     4     5   ar
    17     5     6   ar
    18     6     7    1
    19     9    10    1
    20    10    11    2
    21    11    12    1
    22    11    13    1
    23    13    14    1
    24    14    15    1
    25    15    16    1
    26    15     9    1
    27     6     1   ar
    28    29    23   ar
    29    19    22    1
    30    12    17    1
    31    12    18    1
@<TRIPOS>MOLECULE
*****
 29 31 0 0 0
SMALL
GASTEIGER

@<TRIPOS>ATOM
      1 C           5.9054   -3.2964   21.1991 C.ar    1  UNL1        0.0555
      2 C           5.8175   -3.7756   22.6177 C.ar    1  UNL1        0.0168
      3 C           7.0243   -4.3637   23.2867 C.ar    1  UNL1        0.0505
      4 C           8.3191   -4.4725   22.5372 C.ar    1  UNL1        0.0170
      5 C           8.4070   -3.9933   21.1185 C.ar    1  UNL1        0.0307
      6 C           7.2001   -3.4052   20.4495 C.ar    1  UNL1        0.1402
      7 F           7.2880   -2.9259   19.0308 F       1  UNL1       -0.2044
      8 C           4.4952   -4.1587   20.2058 C.3     1  UNL1        0.0638
      9 C           4.6985   -2.7083   20.5299 C.3     1  UNL1        0.2513
     10 N           5.3209   -1.4621   21.0864 N.2     1  UNL1       -0.0663
     11 C           4.6659   -0.1316   20.8612 C.2     1  UNL1        0.3195
     12 N           5.2884    1.1145   21.4177 N.pl3   1  UNL1       -0.2480
     13 C           3.3885   -0.0473   20.0795 C.3     1  UNL1        0.2611
     14 O           2.7661   -1.2934   19.5230 O.3     1  UNL1       -0.3108
     15 C           3.4211   -2.6239   19.7482 C.3     1  UNL1        0.3281
     16 F           2.7987   -3.8701   19.1917 F       1  UNL1       -0.1989
     17 H           6.1268    1.0591   21.9308 H       1  UNL1        0.2882
     18 H           4.8585    1.9878   21.2699 H       1  UNL1        0.2882
     19 N           6.9365   -4.8429   24.7055 N.am    1  UNL1       -0.2791
     20 C           7.3563   -3.9419   25.8288 C.2     1  UNL1        0.2672
     21 O           7.8640   -2.5616   25.5335 O.2     1  UNL1       -0.2682
     22 H           6.6033   -5.7488   24.8993 H       1  UNL1        0.1552
     23 C           7.2685   -4.4211   27.2475 C.ar    1  UNL1        0.1348
     24 C           6.7205   -3.5173   28.3118 C.ar    1  UNL1        0.0246
     25 C           6.6327   -3.9966   29.7305 C.ar    1  UNL1        0.0147
     26 C           7.0928   -5.3796   30.0848 C.ar    1  UNL1        0.0768
     27 CL          7.0050   -5.8588   31.5035 Cl      1  UNL1       -0.0806
     28 C           7.6408   -6.2834   29.0204 C.ar    1  UNL1        0.1103
     29 N           7.7286   -5.8042   27.6018 N.ar    1  UNL1       -0.2384
@<TRIPOS>BOND
     1     9     8    1
     2     9     1    1
     3     1     2   ar
     4     2     3   ar
     5     3    19    1
     6    19    20   am
     7    20    21    2
     8    20    23    1
     9    23    24   ar
    10    24    25   ar
    11    25    26   ar
    12    26    27    1
    13    26    28   ar
    14    28    29   ar
    15     3     4   ar
    16     4     5   ar
    17     5     6   ar
    18     6     7    1
    19     9    10    1
    20    10    11    2
    21    11    12    1
    22    11    13    1
    23    13    14    1
    24    14    15    1
    25    15    16    1
    26    15     9    1
    27     6     1   ar
    28    29    23   ar
    29    19    22    1
    30    12    17    1
    31    12    18    1
