@<TRIPOS>MOLECULE
*****
 27 29 0 0 0
SMALL
GASTEIGER

@<TRIPOS>ATOM
      1 N          -7.3732  -19.0663   21.3944 N.am    1  UNL1       -0.3011
      2 C          -7.9587  -17.8049   21.9568 C.2     1  UNL1        0.2650
      3 O          -7.0660  -16.6454   22.2857 O.2     1  UNL1       -0.2684
      4 H          -7.9592  -19.8275   21.1785 H       1  UNL1        0.1497
      5 C          -9.4370  -17.7033   22.1902 C.ar    1  UNL1        0.1517
      6 N         -10.1845  -18.2613   23.3648 N.ar    1  UNL1       -0.2260
      7 C         -11.6367  -17.9287   23.1905 C.ar    1  UNL1        0.1239
      8 N         -11.7867  -17.1650   21.9081 N.ar    1  UNL1       -0.2921
      9 C         -12.9856  -16.5785   21.2236 C.ar    1  UNL1        0.0811
     10 C         -12.8249  -15.8527   19.9208 C.ar    1  UNL1        0.0191
     11 C         -11.4653  -15.7134   19.3025 C.ar    1  UNL1        0.0031
     12 C         -10.2665  -16.2999   19.9871 C.ar    1  UNL1        0.0193
     13 C         -10.4272  -17.0257   21.2899 C.ar    1  UNL1        0.0872
     14 C         -12.7446  -18.2952   24.1330 C.3     1  UNL1        0.0573
     15 C         -14.1659  -17.9666   23.7839 C.3     1  UNL1        0.0079
     16 C         -12.4312  -18.9904   25.4246 C.3     1  UNL1        0.0079
     17 N          -2.9386  -19.3713   20.6941 N.3     1  UNL1       -0.2725
     18 C          -3.4858  -19.4632   22.0876 C.3     1  UNL1        0.0738
     19 C          -4.9641  -19.3616   22.3211 C.3     1  UNL1        0.0369
     20 C          -5.8950  -19.1680   21.1609 C.3     1  UNL1        0.0747
     21 C          -5.3478  -19.0760   19.7674 C.3     1  UNL1        0.0369
     22 C          -3.8695  -19.1777   19.5340 C.3     1  UNL1        0.0738
     23 C          -1.4603  -19.4729   20.4606 C.3     1  UNL1        0.0747
     24 C          -0.7299  -18.3534   19.7801 C.3     1  UNL1        0.0494
     25 C          -0.8049  -16.9620   20.3354 C.3     1  UNL1        0.1437
     26 C          -2.4703  -16.0602   22.1140 C.3     1  UNL1        0.1741
     27 O          -2.1358  -16.3643   20.6837 O.3     1  UNL1       -0.3511
@<TRIPOS>BOND
     1    26    27    1
     2    27    25    1
     3    25    24    1
     4    24    23    1
     5    23    17    1
     6    17    18    1
     7    18    19    1
     8    19    20    1
     9    20     1    1
    10     1     2   am
    11     2     3    2
    12     2     5    1
    13     5     6   ar
    14     6     7   ar
    15     7    14    1
    16    14    15    1
    17    14    16    1
    18     7     8   ar
    19     8     9   ar
    20     9    10   ar
    21    10    11   ar
    22    11    12   ar
    23    12    13   ar
    24    20    21    1
    25    21    22    1
    26    22    17    1
    27    13     5   ar
    28    13     8   ar
    29     1     4    1
@<TRIPOS>MOLECULE
*****
 27 29 0 0 0
SMALL
GASTEIGER

@<TRIPOS>ATOM
      1 N          -5.9578  -18.1026   22.5018 N.am    1  UNL1       -0.3011
      2 C          -6.9817  -18.1768   21.4081 C.2     1  UNL1        0.2650
      3 O          -6.5525  -18.4438   19.9959 O.2     1  UNL1       -0.2684
      4 H          -6.2395  -17.9273   23.4287 H       1  UNL1        0.1497
      5 C          -8.4348  -17.9841   21.7267 C.ar    1  UNL1        0.1517
      6 N          -9.3416  -16.9549   21.1196 N.ar    1  UNL1       -0.2260
      7 C         -10.7033  -17.1215   21.7261 C.ar    1  UNL1        0.1239
      8 N         -10.6382  -18.2536   22.7079 N.ar    1  UNL1       -0.2921
      9 C         -11.6744  -18.8678   23.6017 C.ar    1  UNL1        0.0811
     10 C         -11.3086  -20.0152   24.4959 C.ar    1  UNL1        0.0191
     11 C          -9.9065  -20.5484   24.4963 C.ar    1  UNL1        0.0031
     12 C          -8.8703  -19.9341   23.6025 C.ar    1  UNL1        0.0193
     13 C          -9.2361  -18.7867   22.7083 C.ar    1  UNL1        0.0872
     14 C         -11.9172  -16.3001   21.4067 C.3     1  UNL1        0.0573
     15 C         -12.2980  -16.0488   19.9777 C.3     1  UNL1        0.0079
     16 C         -12.7502  -15.7301   22.5162 C.3     1  UNL1        0.0079
     17 N          -1.5987  -18.6808   21.5460 N.3     1  UNL1       -0.2725
     18 C          -2.0601  -17.4161   22.2073 C.3     1  UNL1        0.0738
     19 C          -3.5131  -17.2233   22.5260 C.3     1  UNL1        0.0369
     20 C          -4.5047  -18.2953   22.1832 C.3     1  UNL1        0.0747
     21 C          -4.0434  -19.5601   21.5218 C.3     1  UNL1        0.0369
     22 C          -2.5904  -19.7528   21.2032 C.3     1  UNL1        0.0738
     23 C          -0.1457  -18.8737   21.2273 C.3     1  UNL1        0.0747
     24 C           0.4483  -18.2242   20.0127 C.3     1  UNL1        0.0494
     25 C          -0.3995  -17.3449   19.1421 C.3     1  UNL1        0.1437
     26 C          -2.8998  -17.3560   18.4360 C.3     1  UNL1        0.1741
     27 O          -1.5208  -17.9387   18.3420 O.3     1  UNL1       -0.3511
@<TRIPOS>BOND
     1    26    27    1
     2    27    25    1
     3    25    24    1
     4    24    23    1
     5    23    17    1
     6    17    18    1
     7    18    19    1
     8    19    20    1
     9    20     1    1
    10     1     2   am
    11     2     3    2
    12     2     5    1
    13     5     6   ar
    14     6     7   ar
    15     7    14    1
    16    14    15    1
    17    14    16    1
    18     7     8   ar
    19     8     9   ar
    20     9    10   ar
    21    10    11   ar
    22    11    12   ar
    23    12    13   ar
    24    20    21    1
    25    21    22    1
    26    22    17    1
    27    13     5   ar
    28    13     8   ar
    29     1     4    1
@<TRIPOS>MOLECULE
*****
 27 29 0 0 0
SMALL
GASTEIGER

@<TRIPOS>ATOM
      1 N           4.9711   -3.5263   23.7422 N.am    1  UNL1       -0.3011
      2 C           6.4523   -3.4702   23.9728 C.2     1  UNL1        0.2650
      3 O           7.3237   -2.6626   23.0572 O.2     1  UNL1       -0.2684
      4 H           4.3991   -4.0564   24.3431 H       1  UNL1        0.1497
      5 C           7.0619   -4.2217   25.1189 C.ar    1  UNL1        0.1517
      6 N           6.9860   -3.8355   26.5664 N.ar    1  UNL1       -0.2260
      7 C           7.7316   -4.8665   27.3608 C.ar    1  UNL1        0.1239
      8 N           8.2683   -5.8898   26.4044 N.ar    1  UNL1       -0.2921
      9 C           9.0805   -7.1330   26.6162 C.ar    1  UNL1        0.0811
     10 C           9.4787   -7.9776   25.4423 C.ar    1  UNL1        0.0191
     11 C           9.0648   -7.5791   24.0568 C.ar    1  UNL1        0.0031
     12 C           8.2526   -6.3359   23.8450 C.ar    1  UNL1        0.0193
     13 C           7.8544   -5.4913   25.0188 C.ar    1  UNL1        0.0872
     14 C           7.9093   -4.8730   28.8503 C.3     1  UNL1        0.0573
     15 C           9.1001   -4.2002   29.4665 C.3     1  UNL1        0.0079
     16 C           6.8964   -5.5522   29.7235 C.3     1  UNL1        0.0079
     17 N           3.1423   -1.2718   20.3038 N.3     1  UNL1       -0.2725
     18 C           3.7587   -2.6198   20.0736 C.3     1  UNL1        0.0738
     19 C           4.3682   -3.3713   21.2198 C.3     1  UNL1        0.0369
     20 C           4.3615   -2.7748   22.5960 C.3     1  UNL1        0.0747
     21 C           3.7452   -1.4268   22.8262 C.3     1  UNL1        0.0369
     22 C           3.1356   -0.6753   21.6801 C.3     1  UNL1        0.0738
     23 C           2.5327   -0.5203   19.1577 C.3     1  UNL1        0.0747
     24 C           3.4141    0.1055   18.1177 C.3     1  UNL1        0.0494
     25 C           3.8961   -0.7092   16.9542 C.3     1  UNL1        0.1437
     26 C           6.3652   -0.9080   17.7379 C.3     1  UNL1        0.1741
     27 O           5.1625   -1.5049   17.0691 O.3     1  UNL1       -0.3511
@<TRIPOS>BOND
     1    26    27    1
     2    27    25    1
     3    25    24    1
     4    24    23    1
     5    23    17    1
     6    17    18    1
     7    18    19    1
     8    19    20    1
     9    20     1    1
    10     1     2   am
    11     2     3    2
    12     2     5    1
    13     5     6   ar
    14     6     7   ar
    15     7    14    1
    16    14    15    1
    17    14    16    1
    18     7     8   ar
    19     8     9   ar
    20     9    10   ar
    21    10    11   ar
    22    11    12   ar
    23    12    13   ar
    24    20    21    1
    25    21    22    1
    26    22    17    1
    27    13     5   ar
    28    13     8   ar
    29     1     4    1
@<TRIPOS>MOLECULE
*****
 27 29 0 0 0
SMALL
GASTEIGER

@<TRIPOS>ATOM
      1 N           6.1589   -4.1256   25.4930 N.am    1  UNL1       -0.3011
      2 C           6.6108   -4.2938   24.0725 C.2     1  UNL1        0.2650
      3 O           7.9068   -4.9877   23.7750 O.2     1  UNL1       -0.2684
      4 H           5.3082   -3.6701   25.6883 H       1  UNL1        0.1497
      5 C           5.7665   -3.7680   22.9496 C.ar    1  UNL1        0.1517
      6 N           5.7413   -4.2932   21.5448 N.ar    1  UNL1       -0.2260
      7 C           4.7585   -3.4744   20.7615 C.ar    1  UNL1        0.1239
      8 N           4.1762   -2.4432   21.6821 N.ar    1  UNL1       -0.2921
      9 C           3.1592   -1.3625   21.4638 C.ar    1  UNL1        0.0811
     10 C           2.7653   -0.4632   22.5978 C.ar    1  UNL1        0.0191
     11 C           3.3883   -0.6446   23.9501 C.ar    1  UNL1        0.0031
     12 C           4.4053   -1.7253   24.1685 C.ar    1  UNL1        0.0193
     13 C           4.7992   -2.6247   23.0345 C.ar    1  UNL1        0.0872
     14 C           4.4176   -3.6552   19.3119 C.3     1  UNL1        0.0573
     15 C           3.1887   -4.4210   18.9202 C.3     1  UNL1        0.0079
     16 C           5.3056   -3.0701   18.2541 C.3     1  UNL1        0.0079
     17 N           8.6916   -5.7029   28.8615 N.3     1  UNL1       -0.2725
     18 C           7.8191   -6.6380   28.0778 C.3     1  UNL1        0.0738
     19 C           6.9748   -6.1123   26.9550 C.3     1  UNL1        0.0369
     20 C           7.0031   -4.6514   26.6158 C.3     1  UNL1        0.0747
     21 C           7.8757   -3.7162   27.3995 C.3     1  UNL1        0.0369
     22 C           8.7199   -4.2420   28.5223 C.3     1  UNL1        0.0738
     23 C           9.5359   -6.2286   29.9843 C.3     1  UNL1        0.0747
     24 C           9.0150   -6.2012   31.3907 C.3     1  UNL1        0.0494
     25 C           7.5436   -6.0547   31.6427 C.3     1  UNL1        0.1437
     26 C           7.6457   -3.4885   32.0358 C.3     1  UNL1        0.1741
     27 O           6.9003   -4.7019   31.5645 O.3     1  UNL1       -0.3511
@<TRIPOS>BOND
     1    26    27    1
     2    27    25    1
     3    25    24    1
     4    24    23    1
     5    23    17    1
     6    17    18    1
     7    18    19    1
     8    19    20    1
     9    20     1    1
    10     1     2   am
    11     2     3    2
    12     2     5    1
    13     5     6   ar
    14     6     7   ar
    15     7    14    1
    16    14    15    1
    17    14    16    1
    18     7     8   ar
    19     8     9   ar
    20     9    10   ar
    21    10    11   ar
    22    11    12   ar
    23    12    13   ar
    24    20    21    1
    25    21    22    1
    26    22    17    1
    27    13     5   ar
    28    13     8   ar
    29     1     4    1
@<TRIPOS>MOLECULE
*****
 27 29 0 0 0
SMALL
GASTEIGER

@<TRIPOS>ATOM
      1 N           5.0027   -3.5938   23.5167 N.am    1  UNL1       -0.3011
      2 C           6.4326   -3.4949   23.9590 C.2     1  UNL1        0.2650
      3 O           7.4222   -2.7291   23.1319 O.2     1  UNL1       -0.2684
      4 H           4.3531   -4.0965   24.0595 H       1  UNL1        0.1497
      5 C           6.8729   -4.1619   25.2284 C.ar    1  UNL1        0.1517
      6 N           6.6983   -3.6192   26.6159 N.ar    1  UNL1       -0.2260
      7 C           7.2825   -4.6105   27.5782 C.ar    1  UNL1        0.1239
      8 N           7.8181   -5.7658   26.7854 N.ar    1  UNL1       -0.2921
      9 C           8.5036   -7.0345   27.1983 C.ar    1  UNL1        0.0811
     10 C           8.9360   -8.0258   26.1590 C.ar    1  UNL1        0.0191
     11 C           8.6828   -7.7485   24.7068 C.ar    1  UNL1        0.0031
     12 C           7.9973   -6.4799   24.2939 C.ar    1  UNL1        0.0193
     13 C           7.5649   -5.4885   25.3332 C.ar    1  UNL1        0.0872
     14 C           7.3239   -4.4711   29.0711 C.3     1  UNL1        0.0573
     15 C           7.8931   -3.2303   29.6930 C.3     1  UNL1        0.0079
     16 C           6.7961   -5.5722   29.9422 C.3     1  UNL1        0.0079
     17 N           3.6820   -1.5931   19.7085 N.3     1  UNL1       -0.2725
     18 C           3.4419   -0.9241   21.0294 C.3     1  UNL1        0.0738
     19 C           3.8821   -1.5911   22.2988 C.3     1  UNL1        0.0369
     20 C           4.5624   -2.9269   22.2473 C.3     1  UNL1        0.0747
     21 C           4.8026   -3.5959   20.9264 C.3     1  UNL1        0.0369
     22 C           4.3623   -2.9290   19.6570 C.3     1  UNL1        0.0738
     23 C           3.2418   -0.9262   18.4390 C.3     1  UNL1        0.0747
     24 C           3.2430    0.5704   18.3387 C.3     1  UNL1        0.0494
     25 C           1.9553    1.3309   18.4543 C.3     1  UNL1        0.1437
     26 C           0.1880    0.6259   20.2235 C.3     1  UNL1        0.1741
     27 O           0.6883    0.6107   18.8095 O.3     1  UNL1       -0.3511
@<TRIPOS>BOND
     1    26    27    1
     2    27    25    1
     3    25    24    1
     4    24    23    1
     5    23    17    1
     6    17    18    1
     7    18    19    1
     8    19    20    1
     9    20     1    1
    10     1     2   am
    11     2     3    2
    12     2     5    1
    13     5     6   ar
    14     6     7   ar
    15     7    14    1
    16    14    15    1
    17    14    16    1
    18     7     8   ar
    19     8     9   ar
    20     9    10   ar
    21    10    11   ar
    22    11    12   ar
    23    12    13   ar
    24    20    21    1
    25    21    22    1
    26    22    17    1
    27    13     5   ar
    28    13     8   ar
    29     1     4    1
@<TRIPOS>MOLECULE
*****
 27 29 0 0 0
SMALL
GASTEIGER

@<TRIPOS>ATOM
      1 N          -0.4692    1.1917   20.5729 N.am    1  UNL1       -0.3011
      2 C          -0.3122    2.5051   21.2803 C.2     1  UNL1        0.2650
      3 O           1.0354    3.1593   21.3569 O.2     1  UNL1       -0.2684
      4 H          -1.3537    0.7622   20.5227 H       1  UNL1        0.1497
      5 C          -1.5029    3.1642   21.9112 C.ar    1  UNL1        0.1517
      6 N          -1.6470    3.5234   23.3604 N.ar    1  UNL1       -0.2260
      7 C          -2.9917    4.1610   23.5483 C.ar    1  UNL1        0.1239
      8 N          -3.6786    4.1960   22.2153 N.ar    1  UNL1       -0.2921
      9 C          -5.0230    4.7091   21.7921 C.ar    1  UNL1        0.0811
     10 C          -5.4472    4.6063   20.3571 C.ar    1  UNL1        0.0191
     11 C          -4.5271    3.9902   19.3452 C.ar    1  UNL1        0.0031
     12 C          -3.1827    3.4771   19.7684 C.ar    1  UNL1        0.0193
     13 C          -2.7584    3.5799   21.2034 C.ar    1  UNL1        0.0872
     14 C          -3.5512    4.6737   24.8422 C.3     1  UNL1        0.0573
     15 C          -4.5251    3.8398   25.6209 C.3     1  UNL1        0.0079
     16 C          -3.1371    6.0201   25.3573 C.3     1  UNL1        0.0079
     17 N           3.1027   -0.7856   18.6805 N.3     1  UNL1       -0.2725
     18 C           2.5832   -1.2787   19.9984 C.3     1  UNL1        0.0738
     19 C           1.3926   -0.6196   20.6292 C.3     1  UNL1        0.0369
     20 C           0.7215    0.5326   19.9421 C.3     1  UNL1        0.0747
     21 C           1.2410    1.0257   18.6242 C.3     1  UNL1        0.0369
     22 C           2.4317    0.3666   17.9934 C.3     1  UNL1        0.0738
     23 C           4.2934   -1.4446   18.0496 C.3     1  UNL1        0.0747
     24 C           5.4435   -1.8906   18.9030 C.3     1  UNL1        0.0494
     25 C           5.6804   -3.3530   19.1380 C.3     1  UNL1        0.1437
     26 C           3.5897   -4.8663   19.4363 C.3     1  UNL1        0.1741
     27 O           4.7208   -4.3661   18.5876 O.3     1  UNL1       -0.3511
@<TRIPOS>BOND
     1    26    27    1
     2    27    25    1
     3    25    24    1
     4    24    23    1
     5    23    17    1
     6    17    18    1
     7    18    19    1
     8    19    20    1
     9    20     1    1
    10     1     2   am
    11     2     3    2
    12     2     5    1
    13     5     6   ar
    14     6     7   ar
    15     7    14    1
    16    14    15    1
    17    14    16    1
    18     7     8   ar
    19     8     9   ar
    20     9    10   ar
    21    10    11   ar
    22    11    12   ar
    23    12    13   ar
    24    20    21    1
    25    21    22    1
    26    22    17    1
    27    13     5   ar
    28    13     8   ar
    29     1     4    1
@<TRIPOS>MOLECULE
*****
 27 29 0 0 0
SMALL
GASTEIGER

@<TRIPOS>ATOM
      1 N           1.7756    1.6268   19.9135 N.am    1  UNL1       -0.3011
      2 C           1.3329    0.3072   20.4730 C.2     1  UNL1        0.2650
      3 O          -0.1232    0.0500   20.7248 O.2     1  UNL1       -0.2684
      4 H           2.7313    1.7956   19.7481 H       1  UNL1        0.1497
      5 C           2.3463   -0.7550   20.7805 C.ar    1  UNL1        0.1517
      6 N           2.9101   -1.7447   19.8045 N.ar    1  UNL1       -0.2260
      7 C           3.8861   -2.6154   20.5388 C.ar    1  UNL1        0.1239
      8 N           3.9256   -2.1638   21.9687 N.ar    1  UNL1       -0.2921
      9 C           4.7052   -2.6510   23.1540 C.ar    1  UNL1        0.0811
     10 C           4.5330   -1.9883   24.4886 C.ar    1  UNL1        0.0191
     11 C           3.5814   -0.8385   24.6379 C.ar    1  UNL1        0.0031
     12 C           2.8018   -0.3514   23.4527 C.ar    1  UNL1        0.0193
     13 C           2.9740   -1.0140   22.1180 C.ar    1  UNL1        0.0872
     14 C           4.6829   -3.7402   19.9472 C.3     1  UNL1        0.0573
     15 C           3.9841   -4.8628   19.2388 C.3     1  UNL1        0.0079
     16 C           6.1782   -3.7426   20.0639 C.3     1  UNL1        0.0079
     17 N          -1.2647    4.8134   18.9909 N.3     1  UNL1       -0.2725
     18 C          -0.7360    4.6629   20.3865 C.3     1  UNL1        0.0738
     19 C           0.2775    3.6007   20.6940 C.3     1  UNL1        0.0369
     20 C           0.7621    2.6890   19.6060 C.3     1  UNL1        0.0747
     21 C           0.2334    2.8395   18.2104 C.3     1  UNL1        0.0369
     22 C          -0.7801    3.9017   17.9028 C.3     1  UNL1        0.0738
     23 C          -2.2782    5.8756   18.6833 C.3     1  UNL1        0.0747
     24 C          -3.5588    5.5125   17.9917 C.3     1  UNL1        0.0494
     25 C          -4.6154    4.7417   18.7261 C.3     1  UNL1        0.1437
     26 C          -4.2487    3.2894   20.8489 C.3     1  UNL1        0.1741
     27 O          -4.2800    3.4219   19.3551 O.3     1  UNL1       -0.3511
@<TRIPOS>BOND
     1    26    27    1
     2    27    25    1
     3    25    24    1
     4    24    23    1
     5    23    17    1
     6    17    18    1
     7    18    19    1
     8    19    20    1
     9    20     1    1
    10     1     2   am
    11     2     3    2
    12     2     5    1
    13     5     6   ar
    14     6     7   ar
    15     7    14    1
    16    14    15    1
    17    14    16    1
    18     7     8   ar
    19     8     9   ar
    20     9    10   ar
    21    10    11   ar
    22    11    12   ar
    23    12    13   ar
    24    20    21    1
    25    21    22    1
    26    22    17    1
    27    13     5   ar
    28    13     8   ar
    29     1     4    1
@<TRIPOS>MOLECULE
*****
 27 29 0 0 0
SMALL
GASTEIGER

@<TRIPOS>ATOM
      1 N          -0.4544    1.0531   20.0984 N.am    1  UNL1       -0.3011
      2 C          -0.5010    2.4515   20.6395 C.2     1  UNL1        0.2650
      3 O           0.7742    3.1870   20.9273 O.2     1  UNL1       -0.2684
      4 H          -1.2914    0.5703   19.9095 H       1  UNL1        0.1497
      5 C          -1.8226    3.1141   20.8926 C.ar    1  UNL1        0.1517
      6 N          -2.8700    3.4146   19.8617 N.ar    1  UNL1       -0.2260
      7 C          -4.0237    4.0788   20.5531 C.ar    1  UNL1        0.1239
      8 N          -3.6893    4.1889   22.0112 N.ar    1  UNL1       -0.2921
      9 C          -4.4477    4.7550   23.1749 C.ar    1  UNL1        0.0811
     10 C          -3.8457    4.7248   24.5485 C.ar    1  UNL1        0.0191
     11 C          -2.4854    4.1286   24.7583 C.ar    1  UNL1        0.0031
     12 C          -1.7270    3.5626   23.5946 C.ar    1  UNL1        0.0193
     13 C          -2.3289    3.5927   22.2210 C.ar    1  UNL1        0.0872
     14 C          -5.2895    4.5502   19.9008 C.3     1  UNL1        0.0573
     15 C          -5.6435    6.0078   19.9165 C.3     1  UNL1        0.0079
     16 C          -6.2014    3.5642   19.2329 C.3     1  UNL1        0.0079
     17 N           3.5105   -0.9348   19.3391 N.3     1  UNL1       -0.2725
     18 C           2.8152   -1.1264   20.6543 C.3     1  UNL1        0.0738
     19 C           1.4935   -0.4638   20.9074 C.3     1  UNL1        0.0369
     20 C           0.8673    0.3905   19.8453 C.3     1  UNL1        0.0747
     21 C           1.5626    0.5821   18.5302 C.3     1  UNL1        0.0369
     22 C           2.8843   -0.0805   18.2771 C.3     1  UNL1        0.0738
     23 C           4.8323   -1.5974   19.0859 C.3     1  UNL1        0.0747
     24 C           4.8809   -2.9554   18.4509 C.3     1  UNL1        0.0494
     25 C           4.8701   -4.1856   19.3091 C.3     1  UNL1        0.1437
     26 C           4.7228   -3.8991   21.8872 C.3     1  UNL1        0.1741
     27 O           5.5338   -4.1675   20.6542 O.3     1  UNL1       -0.3511
@<TRIPOS>BOND
     1    26    27    1
     2    27    25    1
     3    25    24    1
     4    24    23    1
     5    23    17    1
     6    17    18    1
     7    18    19    1
     8    19    20    1
     9    20     1    1
    10     1     2   am
    11     2     3    2
    12     2     5    1
    13     5     6   ar
    14     6     7   ar
    15     7    14    1
    16    14    15    1
    17    14    16    1
    18     7     8   ar
    19     8     9   ar
    20     9    10   ar
    21    10    11   ar
    22    11    12   ar
    23    12    13   ar
    24    20    21    1
    25    21    22    1
    26    22    17    1
    27    13     5   ar
    28    13     8   ar
    29     1     4    1
@<TRIPOS>MOLECULE
*****
 27 29 0 0 0
SMALL
GASTEIGER

@<TRIPOS>ATOM
      1 N           3.7722   -1.9066   25.6193 N.am    1  UNL1       -0.3011
      2 C           3.9712   -0.8672   24.5562 C.2     1  UNL1        0.2650
      3 O           4.4545    0.5031   24.9284 O.2     1  UNL1       -0.2684
      4 H           3.4550   -2.8061   25.3750 H       1  UNL1        0.1497
      5 C           3.6870   -1.1982   23.1210 C.ar    1  UNL1        0.1517
      6 N           4.4179   -2.2089   22.2879 N.ar    1  UNL1       -0.2260
      7 C           3.8046   -2.2119   20.9190 C.ar    1  UNL1        0.1239
      8 N           2.6947   -1.2030   20.9062 N.ar    1  UNL1       -0.2921
      9 C           1.7408   -0.7739   19.8310 C.ar    1  UNL1        0.0811
     10 C           0.7143    0.2818   20.1169 C.ar    1  UNL1        0.0191
     11 C           0.6416    0.9083   21.4778 C.ar    1  UNL1        0.0031
     12 C           1.5955    0.4792   22.5529 C.ar    1  UNL1        0.0193
     13 C           2.6220   -0.5765   22.2671 C.ar    1  UNL1        0.0872
     14 C           4.2271   -3.0727   19.7655 C.3     1  UNL1        0.0573
     15 C           5.4057   -2.6766   18.9263 C.3     1  UNL1        0.0079
     16 C           3.4711   -4.3294   19.4511 C.3     1  UNL1        0.0079
     17 N           4.6248   -0.9137   29.9247 N.3     1  UNL1       -0.2725
     18 C           3.3197   -0.5089   29.3060 C.3     1  UNL1        0.0738
     19 C           3.0355   -0.8399   27.8708 C.3     1  UNL1        0.0369
     20 C           4.0564   -1.5756   27.0544 C.3     1  UNL1        0.0747
     21 C           5.3615   -1.9804   27.6731 C.3     1  UNL1        0.0369
     22 C           5.6457   -1.6494   29.1083 C.3     1  UNL1        0.0738
     23 C           4.9091   -0.5827   31.3599 C.3     1  UNL1        0.0747
     24 C           3.9544   -1.0159   32.4327 C.3     1  UNL1        0.0494
     25 C           4.4527   -1.8087   33.6046 C.3     1  UNL1        0.1437
     26 C           4.5243    0.3321   35.0748 C.3     1  UNL1        0.1741
     27 O           4.8943   -1.1045   34.8532 O.3     1  UNL1       -0.3511
@<TRIPOS>BOND
     1    26    27    1
     2    27    25    1
     3    25    24    1
     4    24    23    1
     5    23    17    1
     6    17    18    1
     7    18    19    1
     8    19    20    1
     9    20     1    1
    10     1     2   am
    11     2     3    2
    12     2     5    1
    13     5     6   ar
    14     6     7   ar
    15     7    14    1
    16    14    15    1
    17    14    16    1
    18     7     8   ar
    19     8     9   ar
    20     9    10   ar
    21    10    11   ar
    22    11    12   ar
    23    12    13   ar
    24    20    21    1
    25    21    22    1
    26    22    17    1
    27    13     5   ar
    28    13     8   ar
    29     1     4    1
