@<TRIPOS>MOLECULE
*****
 34 37 0 0 0
SMALL
GASTEIGER

@<TRIPOS>ATOM
      1 N           6.3852   -2.1336   22.6456 N.am    1  UNL1       -0.2438
      2 C           5.6876   -0.8463   22.3198 C.3     1  UNL1        0.1009
      3 C           4.6093   -0.8205   21.2773 C.3     1  UNL1        0.0662
      4 C           4.2287   -2.0820   20.5607 C.3     1  UNL1        0.1600
      5 O           4.9263   -3.3694   20.8865 O.3     1  UNL1       -0.4374
      6 C           6.0045   -3.3952   21.9289 C.2     1  UNL1        0.4051
      7 O           6.7021   -4.6825   22.2547 O.2     1  UNL1       -0.2262
      8 C           3.2850   -1.1163   19.9072 C.ar    1  UNL1        0.0138
      9 C           3.7704   -0.2242   18.8033 C.ar    1  UNL1       -0.0010
     10 C           2.8267    0.7415   18.1498 C.ar    1  UNL1       -0.0002
     11 C           1.3978    0.8150   18.6002 C.ar    1  UNL1       -0.0000
     12 C           0.9125   -0.0772   19.7040 C.ar    1  UNL1       -0.0002
     13 C           1.8561   -1.0429   20.3576 C.ar    1  UNL1       -0.0010
     14 C           8.9055   -2.1674   23.2754 C.3     1  UNL1        0.0265
     15 C           7.4635   -2.1594   23.6880 C.3     1  UNL1        0.1011
     16 C           7.0996   -2.1771   25.1431 C.ar    1  UNL1       -0.0042
     17 C           6.9210   -0.8871   25.8874 C.ar    1  UNL1       -0.0026
     18 C           6.5571   -0.9049   27.3424 C.ar    1  UNL1        0.0012
     19 C           6.3719   -2.2127   28.0533 C.ar    1  UNL1        0.0176
     20 C           6.5505   -3.5028   27.3090 C.ar    1  UNL1        0.0012
     21 C           6.9144   -3.4849   25.8540 C.ar    1  UNL1       -0.0026
     22 C           6.0080   -2.2305   29.5084 C.ar    1  UNL1        0.0815
     23 C           6.5958   -3.2703   30.4158 C.ar    1  UNL1        0.0215
     24 C           6.2319   -3.2880   31.8710 C.ar    1  UNL1        0.0328
     25 C           5.2803   -2.2660   32.4186 C.ar    1  UNL1        0.1592
     26 F           4.9164   -2.2837   33.8736 F       1  UNL1       -0.2025
     27 C           4.6925   -1.2262   31.5111 C.ar    1  UNL1        0.1283
     28 N           5.0564   -1.2085   30.0560 N.ar    1  UNL1       -0.2415
     29 C           3.5203   -3.0082   19.6171 C.3     1  UNL1        0.0714
     30 C           4.2326   -4.2088   19.0685 C.3     1  UNL1        0.0922
     31 C           3.2920   -5.1080   19.8148 C.3     1  UNL1        0.0294
     32 C           5.1732   -3.3098   18.3222 C.3     1  UNL1        0.0294
     33 O           4.9449   -5.4095   18.5199 O.3     1  UNL1       -0.3866
     34 H           4.5250   -6.2164   18.8567 H       1  UNL1        0.2102
@<TRIPOS>BOND
     1    15    14    1
     2    15    16    1
     3    16    17   ar
     4    17    18   ar
     5    18    19   ar
     6    19    22    1
     7    22    23   ar
     8    23    24   ar
     9    24    25   ar
    10    25    26    1
    11    25    27   ar
    12    27    28   ar
    13    19    20   ar
    14    20    21   ar
    15    15     1    1
    16     1     2    1
    17     2     3    1
    18     3     4    1
    19     4    29    1
    20    29    30    1
    21    30    31    1
    22    30    32    1
    23    30    33    1
    24     4     8    1
    25     8     9   ar
    26     9    10   ar
    27    10    11   ar
    28    11    12   ar
    29    12    13   ar
    30     4     5    1
    31     5     6    1
    32     6     7    2
    33    21    16   ar
    34     6     1   am
    35    28    22   ar
    36    13     8   ar
    37    33    34    1
@<TRIPOS>MOLECULE
*****
 34 37 0 0 0
SMALL
GASTEIGER

@<TRIPOS>ATOM
      1 N           6.9229   -2.0874   22.1300 N.am    1  UNL1       -0.2438
      2 C           6.1639   -0.8254   21.8455 C.3     1  UNL1        0.1009
      3 C           4.9336   -0.8670   20.9884 C.3     1  UNL1        0.0662
      4 C           4.4624   -2.1708   20.4156 C.3     1  UNL1        0.1600
      5 O           5.2215   -3.4330   20.7000 O.3     1  UNL1       -0.4374
      6 C           6.4517   -3.3913   21.5572 C.2     1  UNL1        0.4051
      7 O           7.2108   -4.6534   21.8416 O.2     1  UNL1       -0.2262
      8 C           3.4132   -1.2505   19.8659 C.ar    1  UNL1        0.0138
      9 C           3.7114   -0.4072   18.6618 C.ar    1  UNL1       -0.0010
     10 C           2.6621    0.5132   18.1122 C.ar    1  UNL1       -0.0002
     11 C           1.3147    0.5901   18.7667 C.ar    1  UNL1       -0.0000
     12 C           1.0164   -0.2531   19.9708 C.ar    1  UNL1       -0.0002
     13 C           2.0657   -1.1735   20.5205 C.ar    1  UNL1       -0.0010
     14 C           9.3758   -1.3198   22.5095 C.3     1  UNL1        0.0265
     15 C           8.1532   -2.0458   22.9871 C.3     1  UNL1        0.1011
     16 C           8.1607   -2.7301   24.3220 C.ar    1  UNL1       -0.0042
     17 C           7.1758   -2.3248   25.3782 C.ar    1  UNL1       -0.0026
     18 C           7.1834   -3.0091   26.7129 C.ar    1  UNL1        0.0012
     19 C           8.1759   -4.0987   26.9915 C.ar    1  UNL1        0.0176
     20 C           9.1609   -4.5040   25.9353 C.ar    1  UNL1        0.0012
     21 C           9.1533   -3.8197   24.6005 C.ar    1  UNL1       -0.0026
     22 C           8.1835   -4.7830   28.3263 C.ar    1  UNL1        0.0815
     23 C           6.9005   -4.9703   29.0804 C.ar    1  UNL1        0.0215
     24 C           6.9080   -5.6546   30.4152 C.ar    1  UNL1        0.0328
     25 C           8.1987   -6.1516   30.9959 C.ar    1  UNL1        0.1592
     26 F           8.2063   -6.8359   32.3307 F       1  UNL1       -0.2025
     27 C           9.4818   -5.9643   30.2418 C.ar    1  UNL1        0.1283
     28 N           9.4742   -5.2800   28.9070 N.ar    1  UNL1       -0.2415
     29 C           3.6268   -3.1550   19.6519 C.3     1  UNL1        0.0714
     30 C           4.2420   -4.4240   19.1410 C.3     1  UNL1        0.0922
     31 C           5.1444   -3.6265   18.2467 C.3     1  UNL1        0.0294
     32 C           3.3397   -5.2215   20.0353 C.3     1  UNL1        0.0294
     33 O           4.8573   -5.6929   18.6300 O.3     1  UNL1       -0.3866
     34 H           5.5400   -5.4802   17.9746 H       1  UNL1        0.2102
@<TRIPOS>BOND
     1    15    14    1
     2    15    16    1
     3    16    17   ar
     4    17    18   ar
     5    18    19   ar
     6    19    22    1
     7    22    23   ar
     8    23    24   ar
     9    24    25   ar
    10    25    26    1
    11    25    27   ar
    12    27    28   ar
    13    19    20   ar
    14    20    21   ar
    15    15     1    1
    16     1     2    1
    17     2     3    1
    18     3     4    1
    19     4    29    1
    20    29    30    1
    21    30    31    1
    22    30    32    1
    23    30    33    1
    24     4     8    1
    25     8     9   ar
    26     9    10   ar
    27    10    11   ar
    28    11    12   ar
    29    12    13   ar
    30     4     5    1
    31     5     6    1
    32     6     7    2
    33    21    16   ar
    34     6     1   am
    35    28    22   ar
    36    13     8   ar
    37    33    34    1
@<TRIPOS>MOLECULE
*****
 34 37 0 0 0
SMALL
GASTEIGER

@<TRIPOS>ATOM
      1 N           1.2004    1.5325   19.4123 N.am    1  UNL1       -0.2438
      2 C           0.9104    0.0904   19.7060 C.3     1  UNL1        0.1009
      3 C           2.0393   -0.8845   19.8645 C.3     1  UNL1        0.0662
      4 C           3.4582   -0.4173   19.7294 C.3     1  UNL1        0.1600
      5 O           3.7483    1.0249   19.4357 O.3     1  UNL1       -0.4374
      6 C           2.6194    1.9997   19.2772 C.2     1  UNL1        0.4051
      7 O           2.9094    3.4418   18.9835 O.2     1  UNL1       -0.2262
      8 C           3.6888   -1.8727   20.0100 C.ar    1  UNL1        0.0138
      9 C           4.2910   -2.2984   21.3162 C.ar    1  UNL1       -0.0010
     10 C           4.5216   -3.7538   21.5968 C.ar    1  UNL1       -0.0002
     11 C           4.1499   -4.7834   20.5712 C.ar    1  UNL1       -0.0000
     12 C           3.5477   -4.3576   19.2650 C.ar    1  UNL1       -0.0002
     13 C           3.3171   -2.9022   18.9844 C.ar    1  UNL1       -0.0010
     14 C          -0.2139    3.1126   17.9112 C.3     1  UNL1        0.0265
     15 C           0.0715    2.5074   19.2537 C.3     1  UNL1        0.1011
     16 C          -0.7721    2.8771   20.4377 C.ar    1  UNL1       -0.0042
     17 C          -2.2198    3.2213   20.2490 C.ar    1  UNL1       -0.0026
     18 C          -3.0633    3.5910   21.4329 C.ar    1  UNL1        0.0012
     19 C          -2.4591    3.6164   22.8056 C.ar    1  UNL1        0.0176
     20 C          -1.0114    3.2722   22.9944 C.ar    1  UNL1        0.0012
     21 C          -0.1679    2.9025   21.8104 C.ar    1  UNL1       -0.0026
     22 C          -3.3027    3.9861   23.9896 C.ar    1  UNL1        0.0815
     23 C          -2.8711    3.5909   25.3707 C.ar    1  UNL1        0.0215
     24 C          -3.7146    3.9606   26.5547 C.ar    1  UNL1        0.0328
     25 C          -4.9898    4.7255   26.3575 C.ar    1  UNL1        0.1592
     26 F          -5.8334    5.0952   27.5414 F       1  UNL1       -0.2025
     27 C          -5.4215    5.1206   24.9763 C.ar    1  UNL1        0.1283
     28 N          -4.5779    4.7509   23.7924 N.ar    1  UNL1       -0.2415
     29 C           4.9573   -0.4555   19.6917 C.3     1  UNL1        0.0714
     30 C           5.7105    0.5065   18.8216 C.3     1  UNL1        0.0922
     31 C           6.2419    1.1955   20.0435 C.3     1  UNL1        0.0294
     32 C           5.1790   -0.1825   17.5999 C.3     1  UNL1        0.0294
     33 O           6.4637    1.4686   17.9516 O.3     1  UNL1       -0.3866
     34 H           6.9500    2.0960   18.5090 H       1  UNL1        0.2102
@<TRIPOS>BOND
     1    15    14    1
     2    15    16    1
     3    16    17   ar
     4    17    18   ar
     5    18    19   ar
     6    19    22    1
     7    22    23   ar
     8    23    24   ar
     9    24    25   ar
    10    25    26    1
    11    25    27   ar
    12    27    28   ar
    13    19    20   ar
    14    20    21   ar
    15    15     1    1
    16     1     2    1
    17     2     3    1
    18     3     4    1
    19     4    29    1
    20    29    30    1
    21    30    31    1
    22    30    32    1
    23    30    33    1
    24     4     8    1
    25     8     9   ar
    26     9    10   ar
    27    10    11   ar
    28    11    12   ar
    29    12    13   ar
    30     4     5    1
    31     5     6    1
    32     6     7    2
    33    21    16   ar
    34     6     1   am
    35    28    22   ar
    36    13     8   ar
    37    33    34    1
@<TRIPOS>MOLECULE
*****
 34 37 0 0 0
SMALL
GASTEIGER

@<TRIPOS>ATOM
      1 N         -15.8932    0.4448   19.3008 N.am    1  UNL1       -0.2438
      2 C         -16.4528   -0.9081   19.6271 C.3     1  UNL1        0.1009
      3 C         -15.6166   -2.1358   19.4186 C.3     1  UNL1        0.0662
      4 C         -14.2208   -2.0107   18.8838 C.3     1  UNL1        0.1600
      5 O         -13.6611   -0.6578   18.5575 O.3     1  UNL1       -0.4374
      6 C         -14.4973    0.5700   18.7660 C.2     1  UNL1        0.4051
      7 O         -13.9377    1.9229   18.4397 O.2     1  UNL1       -0.2262
      8 C         -14.3059   -3.4997   19.0437 C.ar    1  UNL1        0.0138
      9 C         -15.5267   -4.2356   18.5765 C.ar    1  UNL1       -0.0010
     10 C         -15.6118   -5.7247   18.7364 C.ar    1  UNL1       -0.0002
     11 C         -14.4762   -6.4777   19.3634 C.ar    1  UNL1       -0.0000
     12 C         -13.2555   -5.7419   19.8306 C.ar    1  UNL1       -0.0002
     13 C         -13.1703   -4.2528   19.6708 C.ar    1  UNL1       -0.0010
     14 C         -17.6264    2.1642   18.4123 C.3     1  UNL1        0.0265
     15 C         -16.7294    1.6725   19.5093 C.3     1  UNL1        0.1011
     16 C         -16.6685    2.4086   20.8149 C.ar    1  UNL1       -0.0042
     17 C         -15.8906    3.6868   20.9197 C.ar    1  UNL1       -0.0026
     18 C         -15.8297    4.4228   22.2252 C.ar    1  UNL1        0.0012
     19 C         -16.5467    3.8806   23.4260 C.ar    1  UNL1        0.0176
     20 C         -17.3246    2.6024   23.3213 C.ar    1  UNL1        0.0012
     21 C         -17.3855    1.8664   22.0157 C.ar    1  UNL1       -0.0026
     22 C         -16.4858    4.6167   24.7316 C.ar    1  UNL1        0.0815
     23 C         -15.1827    4.7370   25.4647 C.ar    1  UNL1        0.0215
     24 C         -15.1218    5.4731   26.7703 C.ar    1  UNL1        0.0328
     25 C         -16.3641    6.0889   27.3428 C.ar    1  UNL1        0.1592
     26 F         -16.3032    6.8249   28.6483 F       1  UNL1       -0.2025
     27 C         -17.6672    5.9685   26.6096 C.ar    1  UNL1        0.1283
     28 N         -17.7281    5.2325   25.3041 N.ar    1  UNL1       -0.2415
     29 C         -12.8545   -2.4027   18.4046 C.3     1  UNL1        0.0714
     30 C         -12.2393   -1.6962   17.2331 C.3     1  UNL1        0.0922
     31 C         -13.3382   -2.2061   16.3485 C.3     1  UNL1        0.0294
     32 C         -11.1405   -1.1863   18.1177 C.3     1  UNL1        0.0294
     33 O         -11.6242   -0.9897   16.0616 O.3     1  UNL1       -0.3866
     34 H         -12.1616   -1.1483   15.2698 H       1  UNL1        0.2102
@<TRIPOS>BOND
     1    15    14    1
     2    15    16    1
     3    16    17   ar
     4    17    18   ar
     5    18    19   ar
     6    19    22    1
     7    22    23   ar
     8    23    24   ar
     9    24    25   ar
    10    25    26    1
    11    25    27   ar
    12    27    28   ar
    13    19    20   ar
    14    20    21   ar
    15    15     1    1
    16     1     2    1
    17     2     3    1
    18     3     4    1
    19     4    29    1
    20    29    30    1
    21    30    31    1
    22    30    32    1
    23    30    33    1
    24     4     8    1
    25     8     9   ar
    26     9    10   ar
    27    10    11   ar
    28    11    12   ar
    29    12    13   ar
    30     4     5    1
    31     5     6    1
    32     6     7    2
    33    21    16   ar
    34     6     1   am
    35    28    22   ar
    36    13     8   ar
    37    33    34    1
@<TRIPOS>MOLECULE
*****
 34 37 0 0 0
SMALL
GASTEIGER

@<TRIPOS>ATOM
      1 N           3.2483    0.6321   23.3468 N.am    1  UNL1       -0.2438
      2 C           3.1610   -0.8584   23.2031 C.3     1  UNL1        0.1009
      3 C           3.6381   -1.5198   21.9441 C.3     1  UNL1        0.0662
      4 C           4.2027   -0.6906   20.8289 C.3     1  UNL1        0.1600
      5 O           4.2901    0.8000   20.9726 O.3     1  UNL1       -0.4374
      6 C           3.8129    1.4613   22.2316 C.2     1  UNL1        0.4051
      7 O           3.9003    2.9518   22.3753 O.2     1  UNL1       -0.2262
      8 C           4.3263   -2.0581   20.2250 C.ar    1  UNL1        0.0138
      9 C           3.1104   -2.7538   19.6885 C.ar    1  UNL1       -0.0010
     10 C           3.2340   -4.1213   19.0846 C.ar    1  UNL1       -0.0002
     11 C           4.5734   -4.7931   19.0173 C.ar    1  UNL1       -0.0000
     12 C           5.7893   -4.0975   19.5538 C.ar    1  UNL1       -0.0002
     13 C           5.6657   -2.7300   20.1577 C.ar    1  UNL1       -0.0010
     14 C           3.6947    1.4248   25.7804 C.3     1  UNL1        0.0265
     15 C           2.7712    1.2934   24.6058 C.3     1  UNL1        0.1011
     16 C           1.3704    1.8234   24.6900 C.ar    1  UNL1       -0.0042
     17 C           0.7603    2.5213   23.5108 C.ar    1  UNL1       -0.0026
     18 C          -0.6404    3.0512   23.5951 C.ar    1  UNL1        0.0012
     19 C          -1.4310    2.8832   24.8587 C.ar    1  UNL1        0.0176
     20 C          -0.8210    2.1853   26.0380 C.ar    1  UNL1        0.0012
     21 C           0.5797    1.6553   25.9536 C.ar    1  UNL1       -0.0026
     22 C          -2.8318    3.4131   24.9430 C.ar    1  UNL1        0.0815
     23 C          -3.3893    3.8522   26.2645 C.ar    1  UNL1        0.0215
     24 C          -4.7901    4.3822   26.3488 C.ar    1  UNL1        0.0328
     25 C          -5.6333    4.4730   25.1115 C.ar    1  UNL1        0.1592
     26 F          -7.0340    5.0029   25.1957 F       1  UNL1       -0.2025
     27 C          -5.0757    4.0339   23.7900 C.ar    1  UNL1        0.1283
     28 N          -3.6750    3.5039   23.7058 N.ar    1  UNL1       -0.2415
     29 C           4.8101   -0.3363   19.5039 C.3     1  UNL1        0.0714
     30 C           4.5116    0.9913   18.8729 C.3     1  UNL1        0.0922
     31 C           3.0953    0.5589   18.6332 C.3     1  UNL1        0.0294
     32 C           5.9277    1.4237   19.1126 C.3     1  UNL1        0.0294
     33 O           4.2129    2.3189   18.2419 O.3     1  UNL1       -0.3866
     34 H           3.2851    2.3414   17.9598 H       1  UNL1        0.2102
@<TRIPOS>BOND
     1    15    14    1
     2    15    16    1
     3    16    17   ar
     4    17    18   ar
     5    18    19   ar
     6    19    22    1
     7    22    23   ar
     8    23    24   ar
     9    24    25   ar
    10    25    26    1
    11    25    27   ar
    12    27    28   ar
    13    19    20   ar
    14    20    21   ar
    15    15     1    1
    16     1     2    1
    17     2     3    1
    18     3     4    1
    19     4    29    1
    20    29    30    1
    21    30    31    1
    22    30    32    1
    23    30    33    1
    24     4     8    1
    25     8     9   ar
    26     9    10   ar
    27    10    11   ar
    28    11    12   ar
    29    12    13   ar
    30     4     5    1
    31     5     6    1
    32     6     7    2
    33    21    16   ar
    34     6     1   am
    35    28    22   ar
    36    13     8   ar
    37    33    34    1
@<TRIPOS>MOLECULE
*****
 34 37 0 0 0
SMALL
GASTEIGER

@<TRIPOS>ATOM
      1 N         -13.9127   -1.6657   17.6405 N.am    1  UNL1       -0.2438
      2 C         -14.9052   -2.7467   17.3302 C.3     1  UNL1        0.1009
      3 C         -14.4920   -4.1870   17.4006 C.3     1  UNL1        0.0662
      4 C         -13.0863   -4.5462   17.7814 C.3     1  UNL1        0.1600
      5 O         -12.0938   -3.4651   18.0917 O.3     1  UNL1       -0.4374
      6 C         -12.5070   -2.0249   18.0213 C.2     1  UNL1        0.4051
      7 O         -11.5145   -0.9438   18.3316 O.2     1  UNL1       -0.2262
      8 C         -13.6598   -5.9174   17.5789 C.ar    1  UNL1        0.0138
      9 C         -14.3566   -6.2567   16.2946 C.ar    1  UNL1       -0.0010
     10 C         -14.9301   -7.6279   16.0921 C.ar    1  UNL1       -0.0002
     11 C         -14.8067   -8.6597   17.1739 C.ar    1  UNL1       -0.0000
     12 C         -14.1099   -8.3204   18.4581 C.ar    1  UNL1       -0.0002
     13 C         -13.5364   -6.9491   18.6606 C.ar    1  UNL1       -0.0010
     14 C         -13.9483    0.6058   16.3799 C.3     1  UNL1        0.0265
     15 C         -14.3259   -0.2254   17.5701 C.3     1  UNL1        0.1011
     16 C         -15.1167    0.3836   18.6898 C.ar    1  UNL1       -0.0042
     17 C         -15.9441   -0.4901   19.5854 C.ar    1  UNL1       -0.0026
     18 C         -16.7349    0.1189   20.7050 C.ar    1  UNL1        0.0012
     19 C         -16.6983    1.6016   20.9292 C.ar    1  UNL1        0.0176
     20 C         -15.8709    2.4753   20.0337 C.ar    1  UNL1        0.0012
     21 C         -15.0801    1.8663   18.9140 C.ar    1  UNL1       -0.0026
     22 C         -17.4891    2.2106   22.0490 C.ar    1  UNL1        0.0815
     23 C         -16.9422    3.3888   22.7991 C.ar    1  UNL1        0.0215
     24 C         -17.7330    3.9978   23.9189 C.ar    1  UNL1        0.0328
     25 C         -19.0707    3.4285   24.2884 C.ar    1  UNL1        0.1592
     26 F         -19.8615    4.0374   25.4081 F       1  UNL1       -0.2025
     27 C         -19.6176    2.2502   23.5382 C.ar    1  UNL1        0.1283
     28 N         -18.8267    1.6413   22.4185 N.ar    1  UNL1       -0.2415
     29 C         -11.8797   -5.3816   18.0918 C.3     1  UNL1        0.0714
     30 C         -10.5244   -4.9466   17.6188 C.3     1  UNL1        0.0922
     31 C         -10.9992   -5.0129   16.1974 C.3     1  UNL1        0.0294
     32 C         -10.0497   -4.8803   19.0401 C.3     1  UNL1        0.0294
     33 O          -9.1691   -4.5116   17.1457 O.3     1  UNL1       -0.3866
     34 H          -9.1665   -4.4583   16.1772 H       1  UNL1        0.2102
@<TRIPOS>BOND
     1    15    14    1
     2    15    16    1
     3    16    17   ar
     4    17    18   ar
     5    18    19   ar
     6    19    22    1
     7    22    23   ar
     8    23    24   ar
     9    24    25   ar
    10    25    26    1
    11    25    27   ar
    12    27    28   ar
    13    19    20   ar
    14    20    21   ar
    15    15     1    1
    16     1     2    1
    17     2     3    1
    18     3     4    1
    19     4    29    1
    20    29    30    1
    21    30    31    1
    22    30    32    1
    23    30    33    1
    24     4     8    1
    25     8     9   ar
    26     9    10   ar
    27    10    11   ar
    28    11    12   ar
    29    12    13   ar
    30     4     5    1
    31     5     6    1
    32     6     7    2
    33    21    16   ar
    34     6     1   am
    35    28    22   ar
    36    13     8   ar
    37    33    34    1
@<TRIPOS>MOLECULE
*****
 34 37 0 0 0
SMALL
GASTEIGER

@<TRIPOS>ATOM
      1 N           2.3549    1.8868   19.4781 N.am    1  UNL1       -0.2438
      2 C           2.2138    0.6227   18.6833 C.3     1  UNL1        0.1009
      3 C           3.0371   -0.5807   19.0355 C.3     1  UNL1        0.0662
      4 C           4.0016   -0.5198   20.1827 C.3     1  UNL1        0.1600
      5 O           4.1427    0.7444   20.9777 O.3     1  UNL1       -0.4374
      6 C           3.3194    1.9477   20.6254 C.2     1  UNL1        0.4051
      7 O           3.4605    3.2119   21.4203 O.2     1  UNL1       -0.2262
      8 C           4.2220   -1.9334   19.7318 C.ar    1  UNL1        0.0138
      9 C           5.6108   -2.4201   19.4416 C.ar    1  UNL1       -0.0010
     10 C           5.8312   -3.8337   18.9907 C.ar    1  UNL1       -0.0002
     11 C           4.6628   -4.7605   18.8301 C.ar    1  UNL1       -0.0000
     12 C           3.2739   -4.2738   19.1204 C.ar    1  UNL1       -0.0002
     13 C           3.0535   -2.8602   19.5712 C.ar    1  UNL1       -0.0010
     14 C           2.0776    4.1234   18.1855 C.3     1  UNL1        0.0265
     15 C           1.5316    3.0902   19.1259 C.3     1  UNL1        0.1011
     16 C           0.1621    3.2603   19.7140 C.ar    1  UNL1       -0.0042
     17 C          -0.9921    3.6332   18.8316 C.ar    1  UNL1       -0.0026
     18 C          -2.3614    3.8033   19.4197 C.ar    1  UNL1        0.0012
     19 C          -2.5765    3.6005   20.8903 C.ar    1  UNL1        0.0176
     20 C          -1.4223    3.2275   21.7727 C.ar    1  UNL1        0.0012
     21 C          -0.0530    3.0574   21.1846 C.ar    1  UNL1       -0.0026
     22 C          -3.9459    3.7706   21.4784 C.ar    1  UNL1        0.0815
     23 C          -4.1747    3.5020   22.9363 C.ar    1  UNL1        0.0215
     24 C          -5.5441    3.6721   23.5245 C.ar    1  UNL1        0.0328
     25 C          -6.6847    4.1108   22.6547 C.ar    1  UNL1        0.1592
     26 F          -8.0541    4.2809   23.2427 F       1  UNL1       -0.2025
     27 C          -6.4559    4.3794   21.1967 C.ar    1  UNL1        0.1283
     28 N          -5.0865    4.2093   20.6086 N.ar    1  UNL1       -0.2415
     29 C           5.0426   -0.9499   21.1734 C.3     1  UNL1        0.0714
     30 C           4.9502   -0.5002   22.6013 C.3     1  UNL1        0.0922
     31 C           6.2608    0.2157   22.4607 C.3     1  UNL1        0.0294
     32 C           3.6396   -1.2162   22.7420 C.3     1  UNL1        0.0294
     33 O           4.8579   -0.0505   24.0293 O.3     1  UNL1       -0.3866
     34 H           5.6370    0.4829   24.2514 H       1  UNL1        0.2102
@<TRIPOS>BOND
     1    15    14    1
     2    15    16    1
     3    16    17   ar
     4    17    18   ar
     5    18    19   ar
     6    19    22    1
     7    22    23   ar
     8    23    24   ar
     9    24    25   ar
    10    25    26    1
    11    25    27   ar
    12    27    28   ar
    13    19    20   ar
    14    20    21   ar
    15    15     1    1
    16     1     2    1
    17     2     3    1
    18     3     4    1
    19     4    29    1
    20    29    30    1
    21    30    31    1
    22    30    32    1
    23    30    33    1
    24     4     8    1
    25     8     9   ar
    26     9    10   ar
    27    10    11   ar
    28    11    12   ar
    29    12    13   ar
    30     4     5    1
    31     5     6    1
    32     6     7    2
    33    21    16   ar
    34     6     1   am
    35    28    22   ar
    36    13     8   ar
    37    33    34    1
@<TRIPOS>MOLECULE
*****
 34 37 0 0 0
SMALL
GASTEIGER

@<TRIPOS>ATOM
      1 N           3.0986   -1.1586   19.7436 N.am    1  UNL1       -0.2438
      2 C           1.6322   -0.9141   19.9435 C.3     1  UNL1        0.1009
      3 C           1.0555    0.4450   19.6788 C.3     1  UNL1        0.0662
      4 C           1.9452    1.5597   19.2141 C.3     1  UNL1        0.1600
      5 O           3.4116    1.3152   19.0142 O.3     1  UNL1       -0.4374
      6 C           3.9883   -0.0439   19.2789 C.2     1  UNL1        0.4051
      7 O           5.4546   -0.2884   19.0789 O.2     1  UNL1       -0.2262
      8 C           0.6290    2.2780   19.2580 C.ar    1  UNL1        0.0138
      9 C           0.1603    3.0581   18.0657 C.ar    1  UNL1       -0.0010
     10 C          -1.1559    3.7763   18.1095 C.ar    1  UNL1       -0.0002
     11 C          -2.0032    3.7144   19.3458 C.ar    1  UNL1       -0.0000
     12 C          -1.5344    2.9343   20.5381 C.ar    1  UNL1       -0.0002
     13 C          -0.2183    2.2161   20.4942 C.ar    1  UNL1       -0.0010
     14 C           3.5365   -3.6040   18.9832 C.3     1  UNL1        0.0265
     15 C           3.6752   -2.5178   20.0083 C.3     1  UNL1        0.1011
     16 C           4.3907   -2.7907   21.2982 C.ar    1  UNL1       -0.0042
     17 C           3.9235   -2.1413   22.5669 C.ar    1  UNL1       -0.0026
     18 C           4.6390   -2.4142   23.8567 C.ar    1  UNL1        0.0012
     19 C           5.8217   -3.3366   23.8777 C.ar    1  UNL1        0.0176
     20 C           6.2889   -3.9860   22.6089 C.ar    1  UNL1        0.0012
     21 C           5.5734   -3.7131   21.3191 C.ar    1  UNL1       -0.0026
     22 C           6.5372   -3.6095   25.1676 C.ar    1  UNL1        0.0815
     23 C           6.9112   -5.0149   25.5349 C.ar    1  UNL1        0.0215
     24 C           7.6267   -5.2878   26.8248 C.ar    1  UNL1        0.0328
     25 C           7.9681   -4.1553   27.7472 C.ar    1  UNL1        0.1592
     26 F           8.6836   -4.4281   29.0370 F       1  UNL1       -0.2025
     27 C           7.5941   -2.7498   27.3798 C.ar    1  UNL1        0.1283
     28 N           6.8786   -2.4770   26.0900 N.ar    1  UNL1       -0.2415
     29 C           2.3778    2.9239   18.7647 C.3     1  UNL1        0.0714
     30 C           3.6671    3.5045   19.2650 C.3     1  UNL1        0.0922
     31 C           4.1768    3.5864   17.8565 C.3     1  UNL1        0.0294
     32 C           3.1575    3.4227   20.6733 C.3     1  UNL1        0.0294
     33 O           4.9565    4.0852   19.7652 O.3     1  UNL1       -0.3866
     34 H           5.5451    4.2602   19.0143 H       1  UNL1        0.2102
@<TRIPOS>BOND
     1    15    14    1
     2    15    16    1
     3    16    17   ar
     4    17    18   ar
     5    18    19   ar
     6    19    22    1
     7    22    23   ar
     8    23    24   ar
     9    24    25   ar
    10    25    26    1
    11    25    27   ar
    12    27    28   ar
    13    19    20   ar
    14    20    21   ar
    15    15     1    1
    16     1     2    1
    17     2     3    1
    18     3     4    1
    19     4    29    1
    20    29    30    1
    21    30    31    1
    22    30    32    1
    23    30    33    1
    24     4     8    1
    25     8     9   ar
    26     9    10   ar
    27    10    11   ar
    28    11    12   ar
    29    12    13   ar
    30     4     5    1
    31     5     6    1
    32     6     7    2
    33    21    16   ar
    34     6     1   am
    35    28    22   ar
    36    13     8   ar
    37    33    34    1
@<TRIPOS>MOLECULE
*****
 34 37 0 0 0
SMALL
GASTEIGER

@<TRIPOS>ATOM
      1 N           4.0067   -0.0547   29.2069 N.am    1  UNL1       -0.2438
      2 C           4.1790    0.7842   27.9754 C.3     1  UNL1        0.1009
      3 C           2.9747    1.2748   27.2277 C.3     1  UNL1        0.0662
      4 C           1.5983    0.9266   27.7115 C.3     1  UNL1        0.1600
      5 O           1.4260    0.0877   28.9430 O.3     1  UNL1       -0.4374
      6 C           2.6302   -0.4030   29.6907 C.2     1  UNL1        0.4051
      7 O           2.4580   -1.2419   30.9222 O.2     1  UNL1       -0.2262
      8 C           1.2505    1.7431   26.5021 C.ar    1  UNL1        0.0138
      9 C           1.7947    3.1330   26.3537 C.ar    1  UNL1       -0.0010
     10 C           1.4470    3.9494   25.1443 C.ar    1  UNL1       -0.0002
     11 C           0.5550    3.3759   24.0834 C.ar    1  UNL1       -0.0000
     12 C           0.0109    1.9860   24.2318 C.ar    1  UNL1       -0.0002
     13 C           0.3586    1.1695   25.4412 C.ar    1  UNL1       -0.0010
     14 C           5.7992    0.2849   31.0566 C.3     1  UNL1        0.0265
     15 C           5.2110   -0.5454   29.9546 C.3     1  UNL1        0.1011
     16 C           5.8269   -1.8664   29.6002 C.ar    1  UNL1       -0.0042
     17 C           5.9071   -2.2957   28.1653 C.ar    1  UNL1       -0.0026
     18 C           6.5231   -3.6167   27.8110 C.ar    1  UNL1        0.0012
     19 C           7.0588   -4.5084   28.8917 C.ar    1  UNL1        0.0176
     20 C           6.9786   -4.0791   30.3267 C.ar    1  UNL1        0.0012
     21 C           6.3627   -2.7581   30.6809 C.ar    1  UNL1       -0.0026
     22 C           7.6748   -5.8295   28.5373 C.ar    1  UNL1        0.0815
     23 C           8.7307   -6.4256   29.4203 C.ar    1  UNL1        0.0215
     24 C           9.3466   -7.7466   29.0659 C.ar    1  UNL1        0.0328
     25 C           8.9066   -8.4715   27.8286 C.ar    1  UNL1        0.1592
     26 F           9.5225   -9.7925   27.4742 F       1  UNL1       -0.2025
     27 C           7.8507   -7.8753   26.9456 C.ar    1  UNL1        0.1283
     28 N           7.2348   -6.5543   27.3000 N.ar    1  UNL1       -0.2415
     29 C           0.1010    0.8619   27.7752 C.3     1  UNL1        0.0714
     30 C          -0.5912    0.8038   29.1046 C.3     1  UNL1        0.0922
     31 C           0.0391    2.1093   29.4900 C.3     1  UNL1        0.0294
     32 C          -1.2216   -0.5016   28.7193 C.3     1  UNL1        0.0294
     33 O          -1.2835    0.7457   30.4341 O.3     1  UNL1       -0.3866
     34 H          -1.0483    1.5291   30.9555 H       1  UNL1        0.2102
@<TRIPOS>BOND
     1    15    14    1
     2    15    16    1
     3    16    17   ar
     4    17    18   ar
     5    18    19   ar
     6    19    22    1
     7    22    23   ar
     8    23    24   ar
     9    24    25   ar
    10    25    26    1
    11    25    27   ar
    12    27    28   ar
    13    19    20   ar
    14    20    21   ar
    15    15     1    1
    16     1     2    1
    17     2     3    1
    18     3     4    1
    19     4    29    1
    20    29    30    1
    21    30    31    1
    22    30    32    1
    23    30    33    1
    24     4     8    1
    25     8     9   ar
    26     9    10   ar
    27    10    11   ar
    28    11    12   ar
    29    12    13   ar
    30     4     5    1
    31     5     6    1
    32     6     7    2
    33    21    16   ar
    34     6     1   am
    35    28    22   ar
    36    13     8   ar
    37    33    34    1
