@<TRIPOS>MOLECULE
*****
 34 39 0 0 0
SMALL
GASTEIGER

@<TRIPOS>ATOM
      1 N          -6.7972  -19.1471   22.2327 N.ar    1  UNL1       -0.2937
      2 C          -7.6261  -20.3972   22.2427 C.ar    1  UNL1        0.1798
      3 N          -8.8744  -20.1194   23.0265 N.ar    1  UNL1       -0.2195
      4 C          -8.8171  -18.6975   23.5010 C.ar    1  UNL1        0.1483
      5 C          -9.7680  -17.8724   24.3163 C.ar    1  UNL1        0.1518
      6 N          -9.4351  -16.4462   24.6411 N.ar    1  UNL1       -0.2003
      7 C          -8.1513  -15.8453   24.1505 C.ar    1  UNL1        0.2264
      8 CL         -7.8184  -14.4193   24.4753 Cl      1  UNL1       -0.0409
      9 N          -7.2003  -16.6706   23.3351 N.ar    1  UNL1       -0.1976
     10 C          -7.5333  -18.0966   23.0104 C.ar    1  UNL1        0.1680
     11 C          -3.0802  -18.7155   21.2018 C.3     1  UNL1        0.0977
     12 C          -2.6975  -18.7501   22.6517 C.3     1  UNL1        0.0136
     13 C          -4.1380  -18.8768   22.2530 C.3     1  UNL1        0.0344
     14 C          -5.4659  -18.9772   21.5627 C.3     1  UNL1        0.1180
     15 C          -5.2289  -18.8780   20.0849 C.3     1  UNL1        0.1582
     16 O          -6.2815  -18.9312   19.0176 O.3     1  UNL1       -0.3800
     17 C          -3.7544  -18.7162   19.8618 C.3     1  UNL1        0.1471
     18 O          -3.0737  -18.5792   18.5323 O.3     1  UNL1       -0.3814
     19 H          -5.8635  -18.8443   18.1466 H       1  UNL1        0.2105
     20 H          -3.7366  -18.6109   17.8248 H       1  UNL1        0.2105
     21 C           0.3593  -17.0259   20.1693 C.3     1  UNL1        0.1107
     22 N          -1.0352  -17.1949   20.6956 N.am    1  UNL1       -0.3026
     23 C          -1.6857  -18.5464   20.6755 C.2     1  UNL1        0.2240
     24 O          -0.9418  -19.7289   20.1292 O.2     1  UNL1       -0.2750
     25 H          -1.5235  -16.4189   21.0542 H       1  UNL1        0.1495
     26 N         -11.0518  -18.4733   24.8069 N.pl3   1  UNL1       -0.3184
     27 H         -11.0694  -18.9716   25.6558 H       1  UNL1        0.1482
     28 C         -12.3090  -18.3149   24.0041 C.3     1  UNL1        0.0703
     29 C         -13.6458  -18.4021   24.6789 C.3     1  UNL1        0.0179
     30 C         -15.1419  -18.4685   24.5941 C.3     1  UNL1        0.0017
     31 C         -14.4650  -18.4867   25.9325 C.3     1  UNL1        0.0017
     32 C         -12.2294  -18.0694   22.5265 C.3     1  UNL1        0.0179
     33 C         -11.7544  -18.4820   21.1648 C.3     1  UNL1        0.0017
     34 C         -12.5664  -17.2315   21.3288 C.3     1  UNL1        0.0017
@<TRIPOS>BOND
     1    21    22    1
     2    22    23   am
     3    23    24    2
     4    11    23    1
     5    11    12    1
     6    13    12    1
     7    13    14    1
     8    14     1    1
     9     1     2   ar
    10     2     3   ar
    11     3     4   ar
    12     4     5   ar
    13     5    26    1
    14    26    28    1
    15    28    29    1
    16    29    30    1
    17    30    31    1
    18    28    32    1
    19    32    33    1
    20    33    34    1
    21     5     6   ar
    22     6     7   ar
    23     7     8    1
    24     7     9   ar
    25     9    10   ar
    26    14    15    1
    27    15    16    1
    28    15    17    1
    29    17    18    1
    30    13    11    1
    31    10     1   ar
    32    17    11    1
    33    10     4   ar
    34    31    29    1
    35    34    32    1
    36    22    25    1
    37    26    27    1
    38    16    19    1
    39    18    20    1
@<TRIPOS>MOLECULE
*****
 34 39 0 0 0
SMALL
GASTEIGER

@<TRIPOS>ATOM
      1 N          -6.7755  -19.1386   22.2241 N.ar    1  UNL1       -0.2937
      2 C          -7.5961  -20.3941   22.2365 C.ar    1  UNL1        0.1798
      3 N          -8.8468  -20.1226   23.0189 N.ar    1  UNL1       -0.2195
      4 C          -8.7991  -18.6993   23.4900 C.ar    1  UNL1        0.1483
      5 C          -9.7559  -17.8785   24.3028 C.ar    1  UNL1        0.1518
      6 N          -9.4327  -16.4494   24.6244 N.ar    1  UNL1       -0.2003
      7 C          -8.1525  -15.8413   24.1331 C.ar    1  UNL1        0.2264
      8 CL         -7.8292  -14.4123   24.4547 Cl      1  UNL1       -0.0409
      9 N          -7.1956  -16.6621   23.3203 N.ar    1  UNL1       -0.1976
     10 C          -7.5189  -18.0911   22.9987 C.ar    1  UNL1        0.1680
     11 C          -3.0601  -18.6910   21.1940 C.3     1  UNL1        0.0977
     12 C          -2.6768  -18.7316   22.6436 C.3     1  UNL1        0.0136
     13 C          -4.1170  -18.8606   22.2448 C.3     1  UNL1        0.0344
     14 C          -5.4449  -18.9615   21.5545 C.3     1  UNL1        0.1180
     15 C          -5.2087  -18.8543   20.0771 C.3     1  UNL1        0.1582
     16 O          -6.2615  -18.9053   19.0099 O.3     1  UNL1       -0.3800
     17 C          -3.7347  -18.6871   19.8543 C.3     1  UNL1        0.1471
     18 O          -3.0549  -18.5416   18.5252 O.3     1  UNL1       -0.3814
     19 H          -5.8441  -18.8129   18.1392 H       1  UNL1        0.2105
     20 H          -3.7179  -18.5717   17.8179 H       1  UNL1        0.2105
     21 C           0.3734  -16.9860   20.1672 C.3     1  UNL1        0.1107
     22 N          -1.0204  -17.1617   20.6932 N.am    1  UNL1       -0.3026
     23 C          -1.6663  -18.5153   20.6681 C.2     1  UNL1        0.2240
     24 O          -0.9185  -19.6932   20.1173 O.2     1  UNL1       -0.2750
     25 H          -1.5112  -16.3886   21.0547 H       1  UNL1        0.1495
     26 N         -11.0361  -18.4867   24.7940 N.pl3   1  UNL1       -0.3184
     27 H         -11.0509  -18.9828   25.6443 H       1  UNL1        0.1482
     28 C         -12.2937  -18.3391   23.9897 C.3     1  UNL1        0.0703
     29 C         -12.2147  -18.1154   22.5086 C.3     1  UNL1        0.0179
     30 C         -11.7011  -18.5214   21.1591 C.3     1  UNL1        0.0017
     31 C         -12.5917  -17.3218   21.2928 C.3     1  UNL1        0.0017
     32 C         -13.6301  -18.4152   24.6666 C.3     1  UNL1        0.0179
     33 C         -15.1265  -18.4778   24.5837 C.3     1  UNL1        0.0017
     34 C         -14.4485  -18.4844   25.9217 C.3     1  UNL1        0.0017
@<TRIPOS>BOND
     1    21    22    1
     2    22    23   am
     3    23    24    2
     4    11    23    1
     5    11    12    1
     6    13    12    1
     7    13    14    1
     8    14     1    1
     9     1     2   ar
    10     2     3   ar
    11     3     4   ar
    12     4     5   ar
    13     5    26    1
    14    26    28    1
    15    28    29    1
    16    29    30    1
    17    30    31    1
    18    28    32    1
    19    32    33    1
    20    33    34    1
    21     5     6   ar
    22     6     7   ar
    23     7     8    1
    24     7     9   ar
    25     9    10   ar
    26    14    15    1
    27    15    16    1
    28    15    17    1
    29    17    18    1
    30    13    11    1
    31    10     1   ar
    32    17    11    1
    33    10     4   ar
    34    31    29    1
    35    34    32    1
    36    22    25    1
    37    26    27    1
    38    16    19    1
    39    18    20    1
@<TRIPOS>MOLECULE
*****
 34 39 0 0 0
SMALL
GASTEIGER

@<TRIPOS>ATOM
      1 N          -6.6052  -19.0797   22.3807 N.ar    1  UNL1       -0.2937
      2 C          -7.3729  -20.3639   22.2734 C.ar    1  UNL1        0.1798
      3 N          -8.7153  -20.1559   22.9096 N.ar    1  UNL1       -0.2195
      4 C          -8.7773  -18.7432   23.4100 C.ar    1  UNL1        0.1483
      5 C          -9.8527  -17.9766   24.1211 C.ar    1  UNL1        0.1518
      6 N          -9.6241  -16.5448   24.5054 N.ar    1  UNL1       -0.2003
      7 C          -8.3200  -15.8796   24.1786 C.ar    1  UNL1        0.2264
      8 CL         -8.0913  -14.4478   24.5628 Cl      1  UNL1       -0.0409
      9 N          -7.2445  -16.6463   23.4674 N.ar    1  UNL1       -0.1976
     10 C          -7.4732  -18.0781   23.0832 C.ar    1  UNL1        0.1680
     11 C          -3.2293  -18.8648   20.4776 C.3     1  UNL1        0.0977
     12 C          -3.8247  -19.6883   19.3743 C.3     1  UNL1        0.0136
     13 C          -4.6493  -19.3378   20.5773 C.3     1  UNL1        0.0344
     14 C          -5.2139  -18.8393   21.8745 C.3     1  UNL1        0.1180
     15 C          -4.1429  -18.0582   22.5765 C.3     1  UNL1        0.1582
     16 O          -4.2752  -17.3804   23.9081 O.3     1  UNL1       -0.3800
     17 C          -2.9162  -18.0740   21.7132 C.3     1  UNL1        0.1471
     18 O          -1.6067  -17.4147   22.0298 O.3     1  UNL1       -0.3814
     19 H          -3.4380  -16.9459   24.1343 H       1  UNL1        0.2105
     20 H          -1.6687  -16.9687   22.8890 H       1  UNL1        0.2105
     21 C          -0.2777  -17.4346   18.2431 C.3     1  UNL1        0.1107
     22 N          -1.6288  -17.5910   18.8757 N.am    1  UNL1       -0.3026
     23 C          -1.8782  -18.7084   19.8449 C.2     1  UNL1        0.2240
     24 O          -0.7766  -19.6693   20.1815 O.2     1  UNL1       -0.2750
     25 H          -2.3518  -16.9603   18.6549 H       1  UNL1        0.1495
     26 N         -11.1569  -18.6418   24.4480 N.pl3   1  UNL1       -0.3184
     27 H         -11.1757  -19.4165   25.0552 H       1  UNL1        0.1482
     28 C         -12.4323  -18.1265   23.8496 C.3     1  UNL1        0.0703
     29 C         -12.4077  -17.4158   22.5289 C.3     1  UNL1        0.0179
     30 C         -12.2034  -16.1613   21.7324 C.3     1  UNL1        0.0017
     31 C         -12.5692  -17.4395   21.0379 C.3     1  UNL1        0.0017
     32 C         -13.7322  -18.3219   24.5721 C.3     1  UNL1        0.0179
     33 C         -15.2213  -18.5001   24.5416 C.3     1  UNL1        0.0017
     34 C         -14.4948  -18.4822   25.8537 C.3     1  UNL1        0.0017
@<TRIPOS>BOND
     1    21    22    1
     2    22    23   am
     3    23    24    2
     4    11    23    1
     5    11    12    1
     6    13    12    1
     7    13    14    1
     8    14     1    1
     9     1     2   ar
    10     2     3   ar
    11     3     4   ar
    12     4     5   ar
    13     5    26    1
    14    26    28    1
    15    28    29    1
    16    29    30    1
    17    30    31    1
    18    28    32    1
    19    32    33    1
    20    33    34    1
    21     5     6   ar
    22     6     7   ar
    23     7     8    1
    24     7     9   ar
    25     9    10   ar
    26    14    15    1
    27    15    16    1
    28    15    17    1
    29    17    18    1
    30    13    11    1
    31    10     1   ar
    32    17    11    1
    33    10     4   ar
    34    31    29    1
    35    34    32    1
    36    22    25    1
    37    26    27    1
    38    16    19    1
    39    18    20    1
@<TRIPOS>MOLECULE
*****
 34 39 0 0 0
SMALL
GASTEIGER

@<TRIPOS>ATOM
      1 N          -6.2434  -18.8253   22.1179 N.ar    1  UNL1       -0.2937
      2 C          -6.9279  -20.1499   21.9537 C.ar    1  UNL1        0.1798
      3 N          -8.2866  -20.0503   22.5812 N.ar    1  UNL1       -0.2195
      4 C          -8.4419  -18.6643   23.1332 C.ar    1  UNL1        0.1483
      5 C          -9.5701  -17.9938   23.8596 C.ar    1  UNL1        0.1518
      6 N          -9.4354  -16.5661   24.2997 N.ar    1  UNL1       -0.2003
      7 C          -8.1726  -15.8089   24.0134 C.ar    1  UNL1        0.2264
      8 CL         -8.0379  -14.3813   24.4534 Cl      1  UNL1       -0.0409
      9 N          -7.0444  -16.4795   23.2869 N.ar    1  UNL1       -0.1976
     10 C          -7.1791  -17.9071   22.8469 C.ar    1  UNL1        0.1680
     11 C          -2.8134  -18.4452   20.3413 C.3     1  UNL1        0.0977
     12 C          -3.2355  -19.4905   19.3519 C.3     1  UNL1        0.0136
     13 C          -4.1671  -19.0815   20.4541 C.3     1  UNL1        0.0344
     14 C          -4.8651  -18.4795   21.6375 C.3     1  UNL1        0.1180
     15 C          -3.9429  -17.4711   22.2561 C.3     1  UNL1        0.1582
     16 O          -4.2370  -16.6314   23.4637 O.3     1  UNL1       -0.3800
     17 C          -2.6748  -17.4499   21.4550 C.3     1  UNL1        0.1471
     18 O          -1.4784  -16.5852   21.7209 O.3     1  UNL1       -0.3814
     19 H          -3.4751  -16.0625   23.6553 H       1  UNL1        0.2105
     20 H          -1.6461  -16.0318   22.4997 H       1  UNL1        0.2105
     21 C           1.1076  -17.9113   20.0399 C.3     1  UNL1        0.1107
     22 N          -0.2487  -18.1511   20.6341 N.am    1  UNL1       -0.3026
     23 C          -1.4571  -18.2053   19.7471 C.2     1  UNL1        0.2240
     24 O          -1.3094  -18.0197   18.2660 O.2     1  UNL1       -0.2750
     25 H          -0.3457  -18.2730   21.6062 H       1  UNL1        0.1495
     26 N         -10.8329  -18.7509   24.1460 N.pl3   1  UNL1       -0.3184
     27 H         -10.8132  -19.5330   24.7436 H       1  UNL1        0.1482
     28 C         -12.1258  -18.3164   23.5217 C.3     1  UNL1        0.0703
     29 C         -13.3991  -18.3802   24.3121 C.3     1  UNL1        0.0179
     30 C         -14.8981  -18.3696   24.3634 C.3     1  UNL1        0.0017
     31 C         -14.1053  -18.5014   25.6299 C.3     1  UNL1        0.0017
     32 C         -12.1455  -17.8180   22.1071 C.3     1  UNL1        0.0179
     33 C         -11.8122  -18.0104   20.6573 C.3     1  UNL1        0.0017
     34 C         -12.5127  -16.7625   21.1066 C.3     1  UNL1        0.0017
@<TRIPOS>BOND
     1    21    22    1
     2    22    23   am
     3    23    24    2
     4    11    23    1
     5    11    12    1
     6    13    12    1
     7    13    14    1
     8    14     1    1
     9     1     2   ar
    10     2     3   ar
    11     3     4   ar
    12     4     5   ar
    13     5    26    1
    14    26    28    1
    15    28    29    1
    16    29    30    1
    17    30    31    1
    18    28    32    1
    19    32    33    1
    20    33    34    1
    21     5     6   ar
    22     6     7   ar
    23     7     8    1
    24     7     9   ar
    25     9    10   ar
    26    14    15    1
    27    15    16    1
    28    15    17    1
    29    17    18    1
    30    13    11    1
    31    10     1   ar
    32    17    11    1
    33    10     4   ar
    34    31    29    1
    35    34    32    1
    36    22    25    1
    37    26    27    1
    38    16    19    1
    39    18    20    1
@<TRIPOS>MOLECULE
*****
 34 39 0 0 0
SMALL
GASTEIGER

@<TRIPOS>ATOM
      1 N          -7.0345  -18.6930   21.8917 N.ar    1  UNL1       -0.2937
      2 C          -7.8324  -18.1896   23.0578 C.ar    1  UNL1        0.1798
      3 N          -9.2823  -18.4486   22.7737 N.ar    1  UNL1       -0.2195
      4 C          -9.3804  -19.1121   21.4320 C.ar    1  UNL1        0.1483
      5 C         -10.5553  -19.5982   20.6362 C.ar    1  UNL1        0.1518
      6 N         -10.3410  -20.2354   19.2953 N.ar    1  UNL1       -0.2003
      7 C          -8.9517  -20.3865   18.7502 C.ar    1  UNL1        0.2264
      8 CL         -8.7373  -21.0237   17.4093 Cl      1  UNL1       -0.0409
      9 N          -7.7768  -19.9004   19.5460 N.ar    1  UNL1       -0.1976
     10 C          -7.9912  -19.2632   20.8869 C.ar    1  UNL1        0.1680
     11 C          -3.2897  -18.9306   20.8991 C.3     1  UNL1        0.0977
     12 C          -3.6875  -19.6887   19.6675 C.3     1  UNL1        0.0136
     13 C          -4.7369  -19.2203   20.6315 C.3     1  UNL1        0.0344
     14 C          -5.5418  -18.6363   21.7545 C.3     1  UNL1        0.1180
     15 C          -4.5921  -17.9856   22.7161 C.3     1  UNL1        0.1582
     16 O          -4.9682  -17.2775   23.9838 O.3     1  UNL1       -0.3800
     17 C          -3.2001  -18.1675   22.1874 C.3     1  UNL1        0.1471
     18 O          -1.9400  -17.6731   22.8336 O.3     1  UNL1       -0.3814
     19 H          -4.1670  -16.9482   24.4201 H       1  UNL1        0.2105
     20 H          -2.1591  -17.2105   23.6575 H       1  UNL1        0.2105
     21 C           0.3443  -17.7539   19.8218 C.3     1  UNL1        0.1107
     22 N          -1.1309  -17.7306   20.0930 N.am    1  UNL1       -0.3026
     23 C          -1.8145  -18.9539   20.6279 C.2     1  UNL1        0.2240
     24 O          -1.0231  -20.2005   20.8917 O.2     1  UNL1       -0.2750
     25 H          -1.6504  -16.9124   19.9199 H       1  UNL1        0.1495
     26 N         -11.9446  -19.4471   21.1813 N.pl3   1  UNL1       -0.3184
     27 H         -12.5853  -20.1910   21.1090 H       1  UNL1        0.1482
     28 C         -12.3575  -18.1625   21.8366 C.3     1  UNL1        0.0703
     29 C         -12.1456  -16.8573   21.1284 C.3     1  UNL1        0.0179
     30 C         -12.6101  -15.8204   20.1492 C.3     1  UNL1        0.0017
     31 C         -11.3140  -15.6338   20.8809 C.3     1  UNL1        0.0017
     32 C         -12.9824  -18.1831   23.2001 C.3     1  UNL1        0.0179
     33 C         -12.8924  -18.4891   24.6658 C.3     1  UNL1        0.0017
     34 C         -14.1546  -17.9129   24.0960 C.3     1  UNL1        0.0017
@<TRIPOS>BOND
     1    21    22    1
     2    22    23   am
     3    23    24    2
     4    11    23    1
     5    11    12    1
     6    13    12    1
     7    13    14    1
     8    14     1    1
     9     1     2   ar
    10     2     3   ar
    11     3     4   ar
    12     4     5   ar
    13     5    26    1
    14    26    28    1
    15    28    29    1
    16    29    30    1
    17    30    31    1
    18    28    32    1
    19    32    33    1
    20    33    34    1
    21     5     6   ar
    22     6     7   ar
    23     7     8    1
    24     7     9   ar
    25     9    10   ar
    26    14    15    1
    27    15    16    1
    28    15    17    1
    29    17    18    1
    30    13    11    1
    31    10     1   ar
    32    17    11    1
    33    10     4   ar
    34    31    29    1
    35    34    32    1
    36    22    25    1
    37    26    27    1
    38    16    19    1
    39    18    20    1
@<TRIPOS>MOLECULE
*****
 34 39 0 0 0
SMALL
GASTEIGER

@<TRIPOS>ATOM
      1 N          -6.1260  -18.3886   21.5138 N.ar    1  UNL1       -0.2937
      2 C          -7.0824  -19.2773   20.7752 C.ar    1  UNL1        0.1798
      3 N          -8.4711  -18.9497   21.2379 N.ar    1  UNL1       -0.2195
      4 C          -8.3730  -17.8585   22.2625 C.ar    1  UNL1        0.1483
      5 C          -9.4162  -17.1359   23.0622 C.ar    1  UNL1        0.1518
      6 N          -9.0100  -16.0665   24.0325 N.ar    1  UNL1       -0.2003
      7 C          -7.5606  -15.7197   24.2030 C.ar    1  UNL1        0.2264
      8 CL         -7.1544  -14.6504   25.1733 Cl      1  UNL1       -0.0409
      9 N          -6.5174  -16.4424   23.4033 N.ar    1  UNL1       -0.1976
     10 C          -6.9236  -17.5117   22.4330 C.ar    1  UNL1        0.1680
     11 C          -2.4149  -18.3170   20.3792 C.3     1  UNL1        0.0977
     12 C          -2.8757  -18.2293   18.9544 C.3     1  UNL1        0.0136
     13 C          -3.8815  -18.2983   20.0651 C.3     1  UNL1        0.0344
     14 C          -4.6339  -18.3785   21.3602 C.3     1  UNL1        0.1180
     15 C          -3.6324  -18.4468   22.4747 C.3     1  UNL1        0.1582
     16 O          -3.9470  -18.5373   23.9386 O.3     1  UNL1       -0.3800
     17 C          -2.2608  -18.4088   21.8684 C.3     1  UNL1        0.1471
     18 O          -0.9633  -18.4546   22.6195 O.3     1  UNL1       -0.3814
     19 H          -3.1207  -18.5682   24.4456 H       1  UNL1        0.2105
     20 H          -1.1424  -18.5134   23.5710 H       1  UNL1        0.2105
     21 C           1.2835  -16.9876   19.8264 C.3     1  UNL1        0.1107
     22 N          -0.1844  -17.0073   20.1349 N.am    1  UNL1       -0.3026
     23 C          -0.9470  -18.2974   20.0707 C.2     1  UNL1        0.2240
     24 O          -0.2418  -19.5678   19.6982 O.2     1  UNL1       -0.2750
     25 H          -0.6473  -16.1735   20.3794 H       1  UNL1        0.1495
     26 N         -10.8656  -17.4827   22.8917 N.pl3   1  UNL1       -0.3184
     27 H         -11.4049  -17.0220   22.2090 H       1  UNL1        0.1482
     28 C         -11.4932  -18.5315   23.7614 C.3     1  UNL1        0.0703
     29 C         -10.6940  -19.7257   24.1915 C.3     1  UNL1        0.0179
     30 C         -10.3005  -20.7127   25.2503 C.3     1  UNL1        0.0017
     31 C          -9.7032  -20.8073   23.8776 C.3     1  UNL1        0.0017
     32 C         -12.9199  -18.3859   24.2009 C.3     1  UNL1        0.0179
     33 C         -13.9617  -18.4620   25.2774 C.3     1  UNL1        0.0017
     34 C         -14.3492  -18.0577   23.8859 C.3     1  UNL1        0.0017
@<TRIPOS>BOND
     1    21    22    1
     2    22    23   am
     3    23    24    2
     4    11    23    1
     5    11    12    1
     6    13    12    1
     7    13    14    1
     8    14     1    1
     9     1     2   ar
    10     2     3   ar
    11     3     4   ar
    12     4     5   ar
    13     5    26    1
    14    26    28    1
    15    28    29    1
    16    29    30    1
    17    30    31    1
    18    28    32    1
    19    32    33    1
    20    33    34    1
    21     5     6   ar
    22     6     7   ar
    23     7     8    1
    24     7     9   ar
    25     9    10   ar
    26    14    15    1
    27    15    16    1
    28    15    17    1
    29    17    18    1
    30    13    11    1
    31    10     1   ar
    32    17    11    1
    33    10     4   ar
    34    31    29    1
    35    34    32    1
    36    22    25    1
    37    26    27    1
    38    16    19    1
    39    18    20    1
@<TRIPOS>MOLECULE
*****
 34 39 0 0 0
SMALL
GASTEIGER

@<TRIPOS>ATOM
      1 N          -6.9344  -18.9839   21.7346 N.ar    1  UNL1       -0.2937
      2 C          -7.6805  -18.4977   22.9417 C.ar    1  UNL1        0.1798
      3 N          -9.1473  -18.6725   22.6814 N.ar    1  UNL1       -0.2195
      4 C          -9.3078  -19.2667   21.3135 C.ar    1  UNL1        0.1483
      5 C         -10.5227  -19.6574   20.5251 C.ar    1  UNL1        0.1518
      6 N         -10.3698  -20.2405   19.1515 N.ar    1  UNL1       -0.2003
      7 C          -9.0021  -20.4330   18.5664 C.ar    1  UNL1        0.2264
      8 CL         -8.8493  -21.0161   17.1929 Cl      1  UNL1       -0.0409
      9 N          -7.7873  -20.0423   19.3548 N.ar    1  UNL1       -0.1976
     10 C          -7.9402  -19.4591   20.7283 C.ar    1  UNL1        0.1680
     11 C          -3.1056  -18.3512   21.6614 C.3     1  UNL1        0.0977
     12 C          -3.3267  -17.0657   22.4020 C.3     1  UNL1        0.0136
     13 C          -4.4948  -17.9369   22.0466 C.3     1  UNL1        0.0344
     14 C          -5.4442  -18.9931   21.5638 C.3     1  UNL1        0.1180
     15 C          -4.6417  -20.0602   20.8802 C.3     1  UNL1        0.1582
     16 O          -5.1886  -21.3054   20.2473 O.3     1  UNL1       -0.3800
     17 C          -3.1963  -19.6635   20.9405 C.3     1  UNL1        0.1471
     18 O          -2.0442  -20.4423   20.3786 O.3     1  UNL1       -0.3814
     19 H          -4.4595  -21.8264   19.8760 H       1  UNL1        0.2105
     20 H          -2.3746  -21.2542   19.9631 H       1  UNL1        0.2105
     21 C           0.5027  -17.4961   20.2475 C.3     1  UNL1        0.1107
     22 N          -0.9889  -17.6240   20.3420 N.am    1  UNL1       -0.3026
     23 C          -1.6140  -18.2233   21.5668 C.2     1  UNL1        0.2240
     24 O          -0.7477  -18.6946   22.6970 O.2     1  UNL1       -0.2750
     25 H          -1.5575  -17.3147   19.6003 H       1  UNL1        0.1495
     26 N         -11.8903  -19.4649   21.1103 N.pl3   1  UNL1       -0.3184
     27 H         -12.5539  -20.1905   21.0599 H       1  UNL1        0.1482
     28 C         -12.2470  -18.1670   21.7723 C.3     1  UNL1        0.0703
     29 C         -12.8655  -18.1672   23.1389 C.3     1  UNL1        0.0179
     30 C         -14.0196  -17.8487   24.0424 C.3     1  UNL1        0.0017
     31 C         -12.7825  -18.4861   24.6022 C.3     1  UNL1        0.0017
     32 C         -11.9853  -16.8689   21.0677 C.3     1  UNL1        0.0179
     33 C         -11.1866  -15.6075   20.9229 C.3     1  UNL1        0.0017
     34 C         -12.3305  -15.8820   19.9923 C.3     1  UNL1        0.0017
@<TRIPOS>BOND
     1    21    22    1
     2    22    23   am
     3    23    24    2
     4    11    23    1
     5    11    12    1
     6    13    12    1
     7    13    14    1
     8    14     1    1
     9     1     2   ar
    10     2     3   ar
    11     3     4   ar
    12     4     5   ar
    13     5    26    1
    14    26    28    1
    15    28    29    1
    16    29    30    1
    17    30    31    1
    18    28    32    1
    19    32    33    1
    20    33    34    1
    21     5     6   ar
    22     6     7   ar
    23     7     8    1
    24     7     9   ar
    25     9    10   ar
    26    14    15    1
    27    15    16    1
    28    15    17    1
    29    17    18    1
    30    13    11    1
    31    10     1   ar
    32    17    11    1
    33    10     4   ar
    34    31    29    1
    35    34    32    1
    36    22    25    1
    37    26    27    1
    38    16    19    1
    39    18    20    1
@<TRIPOS>MOLECULE
*****
 34 39 0 0 0
SMALL
GASTEIGER

@<TRIPOS>ATOM
      1 N           7.4243   -3.5853   22.1682 N.ar    1  UNL1       -0.2937
      2 C           8.4753   -2.5665   21.8403 C.ar    1  UNL1        0.1798
      3 N           8.1352   -1.9611   20.5108 N.ar    1  UNL1       -0.2195
      4 C           6.8740   -2.6056   20.0169 C.ar    1  UNL1        0.1483
      5 C           6.0690   -2.4082   18.7668 C.ar    1  UNL1        0.1518
      6 N           4.8244   -3.2146   18.5409 N.ar    1  UNL1       -0.2003
      7 C           4.3850   -4.2184   19.5653 C.ar    1  UNL1        0.2264
      8 CL          3.1405   -5.0248   19.3395 Cl      1  UNL1       -0.0409
      9 N           5.1902   -4.4158   20.8155 N.ar    1  UNL1       -0.1976
     10 C           6.4346   -3.6095   21.0412 C.ar    1  UNL1        0.1680
     11 C           7.7731   -6.2173   24.9994 C.3     1  UNL1        0.0977
     12 C           8.7258   -6.9882   24.1345 C.3     1  UNL1        0.0136
     13 C           8.1203   -5.7118   23.6305 C.3     1  UNL1        0.0344
     14 C           7.3720   -4.4313   23.4057 C.3     1  UNL1        0.1180
     15 C           6.5624   -4.1455   24.6356 C.3     1  UNL1        0.1582
     16 O           5.6628   -2.9634   24.8440 O.3     1  UNL1       -0.3800
     17 C           6.8102   -5.2493   25.6207 C.3     1  UNL1        0.1471
     18 O           6.2021   -5.3648   26.9869 O.3     1  UNL1       -0.3814
     19 H           5.2572   -3.0168   25.7235 H       1  UNL1        0.2105
     20 H           5.6148   -4.6090   27.1443 H       1  UNL1        0.2105
     21 C           8.8259   -7.8506   28.4598 C.3     1  UNL1        0.1107
     22 N           8.7772   -6.9080   27.2939 N.am    1  UNL1       -0.3026
     23 C           7.8218   -7.1599   26.1653 C.2     1  UNL1        0.2240
     24 O           6.9152   -8.3543   26.2024 O.2     1  UNL1       -0.2750
     25 H           9.3723   -6.1241   27.2695 H       1  UNL1        0.1495
     26 N           6.5083   -1.4044   17.7424 N.pl3   1  UNL1       -0.3184
     27 H           7.2858   -1.5943   17.1690 H       1  UNL1        0.1482
     28 C           5.7632   -0.1112   17.5918 C.3     1  UNL1        0.0703
     29 C           6.4054    1.0466   16.8868 C.3     1  UNL1        0.0179
     30 C           7.5160    1.6007   16.0445 C.3     1  UNL1        0.0017
     31 C           6.4069    2.4980   16.5079 C.3     1  UNL1        0.0017
     32 C           4.3760    0.0240   18.1461 C.3     1  UNL1        0.0179
     33 C           2.9019    0.1976   17.9298 C.3     1  UNL1        0.0017
     34 C           3.4474    0.0847   19.3225 C.3     1  UNL1        0.0017
@<TRIPOS>BOND
     1    21    22    1
     2    22    23   am
     3    23    24    2
     4    11    23    1
     5    11    12    1
     6    13    12    1
     7    13    14    1
     8    14     1    1
     9     1     2   ar
    10     2     3   ar
    11     3     4   ar
    12     4     5   ar
    13     5    26    1
    14    26    28    1
    15    28    29    1
    16    29    30    1
    17    30    31    1
    18    28    32    1
    19    32    33    1
    20    33    34    1
    21     5     6   ar
    22     6     7   ar
    23     7     8    1
    24     7     9   ar
    25     9    10   ar
    26    14    15    1
    27    15    16    1
    28    15    17    1
    29    17    18    1
    30    13    11    1
    31    10     1   ar
    32    17    11    1
    33    10     4   ar
    34    31    29    1
    35    34    32    1
    36    22    25    1
    37    26    27    1
    38    16    19    1
    39    18    20    1
@<TRIPOS>MOLECULE
*****
 34 39 0 0 0
SMALL
GASTEIGER

@<TRIPOS>ATOM
      1 N           2.6564    0.4420   25.4279 N.ar    1  UNL1       -0.2937
      2 C           2.0340    1.2690   24.3422 C.ar    1  UNL1        0.1798
      3 N           2.6515    0.8613   23.0374 N.ar    1  UNL1       -0.2195
      4 C           3.6555   -0.2176   23.3167 C.ar    1  UNL1        0.1483
      5 C           4.5673   -0.9975   22.4166 C.ar    1  UNL1        0.1518
      6 N           5.4822   -2.0367   22.9939 N.ar    1  UNL1       -0.2003
      7 C           5.4852   -2.2958   24.4714 C.ar    1  UNL1        0.2264
      8 CL          6.4000   -3.3349   25.0487 Cl      1  UNL1       -0.0409
      9 N           4.5733   -1.5158   25.3715 N.ar    1  UNL1       -0.1976
     10 C           3.6585   -0.4767   24.7942 C.ar    1  UNL1        0.1680
     11 C           1.6140    1.3513   29.0545 C.3     1  UNL1        0.0977
     12 C           1.2464    2.7260   28.5801 C.3     1  UNL1        0.0136
     13 C           1.7839    1.7165   27.6096 C.3     1  UNL1        0.0344
     14 C           2.3333    0.5201   26.8907 C.3     1  UNL1        0.1180
     15 C           2.5031   -0.5844   27.8912 C.3     1  UNL1        0.1582
     16 O           3.0256   -1.9610   27.6048 O.3     1  UNL1       -0.3800
     17 C           2.0585   -0.0708   29.2286 C.3     1  UNL1        0.1471
     18 O           2.0584   -0.8434   30.5142 O.3     1  UNL1       -0.3814
     19 H           3.0347   -2.4804   28.4240 H       1  UNL1        0.2105
     20 H           2.3934   -1.7393   30.3531 H       1  UNL1        0.2105
     21 C           1.9112    2.2970   32.8974 C.3     1  UNL1        0.1107
     22 N           2.2790    2.0707   31.4608 N.am    1  UNL1       -0.3026
     23 C           1.2463    1.5776   30.4911 C.2     1  UNL1        0.2240
     24 O          -0.1541    1.3107   30.9578 O.2     1  UNL1       -0.2750
     25 H           3.1980    2.2459   31.1544 H       1  UNL1        0.1495
     26 N           4.5643   -0.7384   20.9392 N.pl3   1  UNL1       -0.3184
     27 H           5.2400   -0.1422   20.5426 H       1  UNL1        0.1482
     28 C           3.5317   -1.3876   20.0659 C.3     1  UNL1        0.0703
     29 C           3.8002   -2.7337   19.4610 C.3     1  UNL1        0.0179
     30 C           4.6976   -3.6558   18.6901 C.3     1  UNL1        0.0017
     31 C           3.3678   -4.1431   19.1842 C.3     1  UNL1        0.0017
     32 C           2.2308   -0.6908   19.7977 C.3     1  UNL1        0.0179
     33 C           1.4024    0.2354   18.9576 C.3     1  UNL1        0.0017
     34 C           0.8061   -0.4099   20.1732 C.3     1  UNL1        0.0017
@<TRIPOS>BOND
     1    21    22    1
     2    22    23   am
     3    23    24    2
     4    11    23    1
     5    11    12    1
     6    13    12    1
     7    13    14    1
     8    14     1    1
     9     1     2   ar
    10     2     3   ar
    11     3     4   ar
    12     4     5   ar
    13     5    26    1
    14    26    28    1
    15    28    29    1
    16    29    30    1
    17    30    31    1
    18    28    32    1
    19    32    33    1
    20    33    34    1
    21     5     6   ar
    22     6     7   ar
    23     7     8    1
    24     7     9   ar
    25     9    10   ar
    26    14    15    1
    27    15    16    1
    28    15    17    1
    29    17    18    1
    30    13    11    1
    31    10     1   ar
    32    17    11    1
    33    10     4   ar
    34    31    29    1
    35    34    32    1
    36    22    25    1
    37    26    27    1
    38    16    19    1
    39    18    20    1
