@<TRIPOS>MOLECULE
*****
 38 42 0 0 0
SMALL
GASTEIGER

@<TRIPOS>ATOM
      1 C           7.6904   -6.4636   28.9184 C.ar    1  UNL1        0.2221
      2 N           9.0117   -6.7993   29.5439 N.ar    1  UNL1       -0.2119
      3 C           9.4958   -6.0262   30.7348 C.ar    1  UNL1        0.1050
      4 C           8.6586   -4.9173   31.2999 C.ar    1  UNL1        0.0596
      5 C           7.3373   -4.5815   30.6743 C.ar    1  UNL1        0.1683
      6 N           6.8531   -5.3546   29.4836 N.ar    1  UNL1       -0.1944
      7 N           6.5001   -3.4727   31.2395 N.ar    1  UNL1       -0.2096
      8 C           6.1478   -2.1913   30.5437 C.ar    1  UNL1        0.1175
      9 C           5.2981   -1.3772   31.4739 C.ar    1  UNL1        0.0796
     10 C           5.1253   -2.1554   32.7446 C.ar    1  UNL1        0.0939
     11 C           4.3464   -1.7157   33.9487 C.3     1  UNL1        0.0553
     12 N           5.8681   -3.4504   32.5997 N.ar    1  UNL1       -0.1668
     13 N           4.7224   -0.0227   31.1842 N.pl3   1  UNL1       -0.3285
     14 H           5.2609    0.7856   31.3448 H       1  UNL1        0.1470
     15 C           3.3262    0.1002   30.6500 C.3     1  UNL1        0.1194
     16 C           2.2080    0.8798   31.2760 C.3     1  UNL1        0.0912
     17 N           0.9937    0.7265   30.4089 N.3     1  UNL1       -0.2937
     18 C           1.3614   -0.1480   29.2469 C.3     1  UNL1        0.1061
     19 C           2.8029   -0.5351   29.3960 C.3     1  UNL1        0.1956
     20 F           3.5840   -1.4047   28.4560 F       1  UNL1       -0.2340
     21 H           0.6912    1.6405   30.0721 H       1  UNL1        0.1234
     22 N           7.2062   -7.2366   27.7276 N.pl3   1  UNL1       -0.2825
     23 H           6.7117   -8.0783   27.8551 H       1  UNL1        0.1551
     24 C           6.9338   -3.5572   23.8791 C.ar    1  UNL1        0.1554
     25 N           7.4644   -3.6140   22.4772 N.ar    1  UNL1       -0.1646
     26 N           8.1322   -4.9437   22.2879 N.ar    1  UNL1       -0.2487
     27 C           8.8006   -5.4241   21.0339 C.3     1  UNL1        0.1537
     28 C           8.0142   -5.7088   23.5728 C.ar    1  UNL1        0.0796
     29 C           8.4856   -7.0750   23.9743 C.ar    1  UNL1        0.0201
     30 C           8.2162   -7.5843   25.3592 C.ar    1  UNL1        0.0162
     31 C           7.4756   -6.7273   26.3426 C.ar    1  UNL1        0.0506
     32 C           7.0042   -5.3611   25.9411 C.ar    1  UNL1        0.0179
     33 C           7.2736   -4.8518   24.5562 C.ar    1  UNL1        0.0423
     34 C           3.9542   -1.2775   25.1735 C.3     1  UNL1        0.1110
     35 N           4.6947   -2.4271   24.5570 N.am    1  UNL1       -0.2979
     36 C           6.1934   -2.4076   24.4956 C.2     1  UNL1        0.2654
     37 O           6.9514   -1.2384   25.0509 O.2     1  UNL1       -0.2684
     38 H           4.1970   -3.1945   24.1926 H       1  UNL1        0.1498
@<TRIPOS>BOND
     1    34    35    1
     2    35    36   am
     3    36    37    2
     4    36    24    1
     5    24    25   ar
     6    25    26   ar
     7    26    27    1
     8    26    28   ar
     9    28    29   ar
    10    29    30   ar
    11    30    31   ar
    12    31    22    1
    13    22     1    1
    14     1     2   ar
    15     2     3   ar
    16     3     4   ar
    17     4     5   ar
    18     5     7    1
    19     7     8   ar
    20     8     9   ar
    21     9    13    1
    22    15    13    1
    23    15    16    1
    24    16    17    1
    25    17    18    1
    26    18    19    1
    27    19    20    1
    28     9    10   ar
    29    10    11    1
    30    10    12   ar
    31     5     6   ar
    32    31    32   ar
    33    32    33   ar
    34    33    24   ar
    35    33    28   ar
    36     6     1   ar
    37    12     7   ar
    38    19    15    1
    39    35    38    1
    40    22    23    1
    41    13    14    1
    42    17    21    1
@<TRIPOS>MOLECULE
*****
 38 42 0 0 0
SMALL
GASTEIGER

@<TRIPOS>ATOM
      1 C          -3.5973    3.1901   20.4279 C.ar    1  UNL1        0.2221
      2 N          -3.9257    4.1748   19.3450 N.ar    1  UNL1       -0.2119
      3 C          -2.8384    4.7032   18.4568 C.ar    1  UNL1        0.1050
      4 C          -1.4229    4.2469   18.6516 C.ar    1  UNL1        0.0596
      5 C          -1.0945    3.2623   19.7345 C.ar    1  UNL1        0.1683
      6 N          -2.1817    2.7339   20.6226 N.ar    1  UNL1       -0.1944
      7 N           0.3211    2.8060   19.9293 N.ar    1  UNL1       -0.2096
      8 C           1.2562    2.3476   18.8497 C.ar    1  UNL1        0.1175
      9 C           2.5631    1.9863   19.4910 C.ar    1  UNL1        0.0796
     10 C           2.4357    2.2215   20.9671 C.ar    1  UNL1        0.0939
     11 C           3.5062    1.9906   21.9922 C.3     1  UNL1        0.0553
     12 N           1.0501    2.7281   21.2379 N.ar    1  UNL1       -0.1668
     13 N           3.7832    1.4790   18.7811 N.pl3   1  UNL1       -0.3285
     14 H           4.5070    2.1014   18.5403 H       1  UNL1        0.1470
     15 C           3.9004    0.0236   18.4380 C.3     1  UNL1        0.1194
     16 C           4.3011   -0.5390   17.1065 C.3     1  UNL1        0.0912
     17 N           4.2859   -2.0352   17.2117 N.3     1  UNL1       -0.2937
     18 C           3.8757   -2.3974   18.6084 C.3     1  UNL1        0.1061
     19 C           3.6375   -1.1250   19.3662 C.3     1  UNL1        0.1956
     20 F           3.2112   -1.0198   20.8005 F       1  UNL1       -0.2340
     21 H           5.2162   -2.4054   17.0172 H       1  UNL1        0.1234
     22 N          -4.6845    2.6618   21.3160 N.pl3   1  UNL1       -0.2825
     23 H          -5.2042    1.8720   21.0413 H       1  UNL1        0.1551
     24 C          -3.4225    4.2091   26.2594 C.ar    1  UNL1        0.1554
     25 N          -4.2479    4.9751   27.2502 N.ar    1  UNL1       -0.1646
     26 N          -5.5756    5.2701   26.6176 N.ar    1  UNL1       -0.2487
     27 C          -6.7093    6.0176   27.2549 C.3     1  UNL1        0.1537
     28 C          -5.5707    4.6864   25.2359 C.ar    1  UNL1        0.0796
     29 C          -6.6061    4.6673   24.1507 C.ar    1  UNL1        0.0201
     30 C          -6.3107    3.9924   22.8441 C.ar    1  UNL1        0.0162
     31 C          -4.9799    3.3367   22.6227 C.ar    1  UNL1        0.0506
     32 C          -3.9445    3.3558   23.7079 C.ar    1  UNL1        0.0179
     33 C          -4.2400    4.0306   25.0144 C.ar    1  UNL1        0.0423
     34 C          -0.3949    1.9350   27.4482 C.3     1  UNL1        0.1110
     35 N          -1.7926    2.4349   27.2321 N.am    1  UNL1       -0.2979
     36 C          -2.0248    3.7092   26.4755 C.2     1  UNL1        0.2654
     37 O          -0.8594    4.4835   25.9352 O.2     1  UNL1       -0.2684
     38 H          -2.5575    1.9266   27.5867 H       1  UNL1        0.1498
@<TRIPOS>BOND
     1    34    35    1
     2    35    36   am
     3    36    37    2
     4    36    24    1
     5    24    25   ar
     6    25    26   ar
     7    26    27    1
     8    26    28   ar
     9    28    29   ar
    10    29    30   ar
    11    30    31   ar
    12    31    22    1
    13    22     1    1
    14     1     2   ar
    15     2     3   ar
    16     3     4   ar
    17     4     5   ar
    18     5     7    1
    19     7     8   ar
    20     8     9   ar
    21     9    13    1
    22    15    13    1
    23    15    16    1
    24    16    17    1
    25    17    18    1
    26    18    19    1
    27    19    20    1
    28     9    10   ar
    29    10    11    1
    30    10    12   ar
    31     5     6   ar
    32    31    32   ar
    33    32    33   ar
    34    33    24   ar
    35    33    28   ar
    36     6     1   ar
    37    12     7   ar
    38    19    15    1
    39    35    38    1
    40    22    23    1
    41    13    14    1
    42    17    21    1
@<TRIPOS>MOLECULE
*****
 38 42 0 0 0
SMALL
GASTEIGER

@<TRIPOS>ATOM
      1 C           4.7064   -2.5004   19.7598 C.ar    1  UNL1        0.2221
      2 N           5.5492   -1.8242   18.7194 N.ar    1  UNL1       -0.2119
      3 C           7.0417   -1.9712   18.7516 C.ar    1  UNL1        0.1050
      4 C           7.6913   -2.7944   19.8242 C.ar    1  UNL1        0.0596
      5 C           6.8485   -3.4706   20.8645 C.ar    1  UNL1        0.1683
      6 N           5.3561   -3.3236   20.8324 N.ar    1  UNL1       -0.1944
      7 N           7.4980   -4.2938   21.9371 N.ar    1  UNL1       -0.2096
      8 C           7.6502   -3.9037   23.3775 C.ar    1  UNL1        0.1175
      9 C           8.3557   -5.0204   24.0882 C.ar    1  UNL1        0.0796
     10 C           8.6396   -6.1008   23.0870 C.ar    1  UNL1        0.0939
     11 C           9.3320   -7.4018   23.3662 C.3     1  UNL1        0.0553
     12 N           8.1095   -5.6517   21.7576 N.ar    1  UNL1       -0.1668
     13 N           8.7144   -5.0514   25.5443 N.pl3   1  UNL1       -0.3285
     14 H           9.6599   -5.0595   25.8183 H       1  UNL1        0.1470
     15 C           7.6324   -5.0700   26.5830 C.3     1  UNL1        0.1194
     16 C           6.6080   -6.1496   26.7699 C.3     1  UNL1        0.0912
     17 N           5.7273   -5.7591   27.9196 N.3     1  UNL1       -0.2937
     18 C           6.2075   -4.4379   28.4433 C.3     1  UNL1        0.1061
     19 C           7.3849   -4.0121   27.6172 C.3     1  UNL1        0.1956
     20 F           8.1758   -2.7500   27.7943 F       1  UNL1       -0.2340
     21 H           5.7844   -6.4642   28.6544 H       1  UNL1        0.1234
     22 N           3.2140   -2.3534   19.7277 N.pl3   1  UNL1       -0.2825
     23 H           2.6715   -2.9598   19.1734 H       1  UNL1        0.1551
     24 C           2.5649    0.5415   24.1574 C.ar    1  UNL1        0.1554
     25 N           1.5873    1.6459   24.4305 N.ar    1  UNL1       -0.1646
     26 N           0.7539    1.8423   23.1989 N.ar    1  UNL1       -0.2487
     27 C          -0.3485    2.8456   23.0310 C.3     1  UNL1        0.1537
     28 C           1.2164    0.8593   22.1646 C.ar    1  UNL1        0.0796
     29 C           0.7630    0.5924   20.7599 C.ar    1  UNL1        0.0201
     30 C           1.4289   -0.4785   19.9476 C.ar    1  UNL1        0.0162
     31 C           2.5481   -1.2825   20.5400 C.ar    1  UNL1        0.0506
     32 C           3.0015   -1.0155   21.9447 C.ar    1  UNL1        0.0179
     33 C           2.3357    0.0553   22.7570 C.ar    1  UNL1        0.0423
     34 C           4.2076   -1.4423   27.1767 C.3     1  UNL1        0.1110
     35 N           3.1810   -0.9164   26.2178 N.am    1  UNL1       -0.2979
     36 C           3.5915    0.0156   25.1163 C.2     1  UNL1        0.2654
     37 O           5.0284    0.4214   24.9738 O.2     1  UNL1       -0.2684
     38 H           2.2379   -1.1828   26.3113 H       1  UNL1        0.1498
@<TRIPOS>BOND
     1    34    35    1
     2    35    36   am
     3    36    37    2
     4    36    24    1
     5    24    25   ar
     6    25    26   ar
     7    26    27    1
     8    26    28   ar
     9    28    29   ar
    10    29    30   ar
    11    30    31   ar
    12    31    22    1
    13    22     1    1
    14     1     2   ar
    15     2     3   ar
    16     3     4   ar
    17     4     5   ar
    18     5     7    1
    19     7     8   ar
    20     8     9   ar
    21     9    13    1
    22    15    13    1
    23    15    16    1
    24    16    17    1
    25    17    18    1
    26    18    19    1
    27    19    20    1
    28     9    10   ar
    29    10    11    1
    30    10    12   ar
    31     5     6   ar
    32    31    32   ar
    33    32    33   ar
    34    33    24   ar
    35    33    28   ar
    36     6     1   ar
    37    12     7   ar
    38    19    15    1
    39    35    38    1
    40    22    23    1
    41    13    14    1
    42    17    21    1
@<TRIPOS>MOLECULE
*****
 38 42 0 0 0
SMALL
GASTEIGER

@<TRIPOS>ATOM
      1 C           0.3253    2.0373   19.8787 C.ar    1  UNL1        0.2221
      2 N           1.1410    3.2706   19.6262 N.ar    1  UNL1       -0.2119
      3 C           0.6186    4.6136   20.0426 C.ar    1  UNL1        0.1050
      4 C          -0.7195    4.7234   20.7115 C.ar    1  UNL1        0.0596
      5 C          -1.5352    3.4902   20.9639 C.ar    1  UNL1        0.1683
      6 N          -1.0128    2.1472   20.5476 N.ar    1  UNL1       -0.1944
      7 N          -2.8733    3.5999   21.6328 N.ar    1  UNL1       -0.2096
      8 C          -3.1814    3.2327   23.0542 C.ar    1  UNL1        0.1175
      9 C          -4.6368    3.5020   23.2975 C.ar    1  UNL1        0.0796
     10 C          -5.2283    4.0357   22.0265 C.ar    1  UNL1        0.0939
     11 C          -6.6585    4.4382   21.8205 C.3     1  UNL1        0.0553
     12 N          -4.1384    4.0962   20.9977 N.ar    1  UNL1       -0.1668
     13 N          -5.3717    3.2771   24.5857 N.pl3   1  UNL1       -0.3285
     14 H          -5.9053    2.4594   24.7117 H       1  UNL1        0.1470
     15 C          -5.2936    4.2980   25.6818 C.3     1  UNL1        0.1194
     16 C          -4.3254    4.2894   26.8274 C.3     1  UNL1        0.0912
     17 N          -4.6034    5.4929   27.6785 N.3     1  UNL1       -0.2937
     18 C          -5.7436    6.2454   27.0588 C.3     1  UNL1        0.1061
     19 C          -6.1701    5.5069   25.8248 C.3     1  UNL1        0.1956
     20 F          -7.2785    5.9070   24.8968 F       1  UNL1       -0.2340
     21 H          -3.7761    6.0882   27.7170 H       1  UNL1        0.1234
     22 N           0.8477    0.6943   19.4624 N.pl3   1  UNL1       -0.2825
     23 H           0.6010    0.3204   18.5857 H       1  UNL1        0.1551
     24 C           3.0079   -0.3600   24.2212 C.ar    1  UNL1        0.1554
     25 N           4.0021   -1.4194   24.5946 N.ar    1  UNL1       -0.1646
     26 N           4.3325   -2.2014   23.3580 N.ar    1  UNL1       -0.2487
     27 C           5.2856   -3.3567   23.2738 C.3     1  UNL1        0.1537
     28 C           3.5426   -1.6255   22.2203 C.ar    1  UNL1        0.0796
     29 C           3.4630   -1.9903   20.7676 C.ar    1  UNL1        0.0201
     30 C           2.5647   -1.2170   19.8483 C.ar    1  UNL1        0.0162
     31 C           1.7460   -0.0789   20.3818 C.ar    1  UNL1        0.0506
     32 C           1.8256    0.2859   21.8345 C.ar    1  UNL1        0.0179
     33 C           2.7239   -0.4874   22.7538 C.ar    1  UNL1        0.0423
     34 C           0.3192    1.6643   26.3244 C.3     1  UNL1        0.1110
     35 N           0.9233    0.6548   25.3938 N.am    1  UNL1       -0.2979
     36 C           2.4038    0.6495   25.1517 C.2     1  UNL1        0.2654
     37 O           3.2798    1.6536   25.8402 O.2     1  UNL1       -0.2684
     38 H           0.3483   -0.0043   24.9420 H       1  UNL1        0.1498
@<TRIPOS>BOND
     1    34    35    1
     2    35    36   am
     3    36    37    2
     4    36    24    1
     5    24    25   ar
     6    25    26   ar
     7    26    27    1
     8    26    28   ar
     9    28    29   ar
    10    29    30   ar
    11    30    31   ar
    12    31    22    1
    13    22     1    1
    14     1     2   ar
    15     2     3   ar
    16     3     4   ar
    17     4     5   ar
    18     5     7    1
    19     7     8   ar
    20     8     9   ar
    21     9    13    1
    22    15    13    1
    23    15    16    1
    24    16    17    1
    25    17    18    1
    26    18    19    1
    27    19    20    1
    28     9    10   ar
    29    10    11    1
    30    10    12   ar
    31     5     6   ar
    32    31    32   ar
    33    32    33   ar
    34    33    24   ar
    35    33    28   ar
    36     6     1   ar
    37    12     7   ar
    38    19    15    1
    39    35    38    1
    40    22    23    1
    41    13    14    1
    42    17    21    1
@<TRIPOS>MOLECULE
*****
 38 42 0 0 0
SMALL
GASTEIGER

@<TRIPOS>ATOM
      1 C           8.6695   -6.0331   28.0271 C.ar    1  UNL1        0.2221
      2 N           8.3176   -5.5564   26.6491 N.ar    1  UNL1       -0.2119
      3 C           7.8686   -6.5383   25.6077 C.ar    1  UNL1        0.1050
      4 C           7.7716   -7.9967   25.9443 C.ar    1  UNL1        0.0596
      5 C           8.1235   -8.4735   27.3223 C.ar    1  UNL1        0.1683
      6 N           8.5725   -7.4917   28.3637 N.ar    1  UNL1       -0.1944
      7 N           8.0265   -9.9319   27.6589 N.ar    1  UNL1       -0.2096
      8 C           6.7654  -10.6842   27.9651 C.ar    1  UNL1        0.1175
      9 C           7.1330  -12.1114   28.2439 C.ar    1  UNL1        0.0796
     10 C           8.6214  -12.2413   28.1099 C.ar    1  UNL1        0.0939
     11 C           9.4178  -13.4976   28.3036 C.3     1  UNL1        0.0553
     12 N           9.1736  -10.8943   27.7484 N.ar    1  UNL1       -0.1668
     13 N           6.1797  -13.2150   28.5949 N.pl3   1  UNL1       -0.3285
     14 H           6.5018  -14.0069   29.0833 H       1  UNL1        0.1470
     15 C           4.7359  -13.1122   28.2019 C.3     1  UNL1        0.1194
     16 C           4.1200  -13.6702   26.9531 C.3     1  UNL1        0.0912
     17 N           2.6578  -13.3362   26.9681 N.3     1  UNL1       -0.2937
     18 C           2.3698  -12.5717   28.2262 C.3     1  UNL1        0.1061
     19 C           3.6542  -12.4333   28.9887 C.3     1  UNL1        0.1956
     20 F           3.8265  -11.7380   30.3066 F       1  UNL1       -0.2340
     21 H           2.1065  -14.1942   26.9506 H       1  UNL1        0.1234
     22 N           9.1185   -5.0513   29.0685 N.pl3   1  UNL1       -0.2825
     23 H          10.0793   -4.9108   29.2308 H       1  UNL1        0.1551
     24 C           5.1720   -1.5025   29.5734 C.ar    1  UNL1        0.1554
     25 N           4.4293   -1.0833   30.8074 N.ar    1  UNL1       -0.1646
     26 N           4.9866   -1.8534   31.9677 N.ar    1  UNL1       -0.2487
     27 C           4.5360   -1.7470   33.3945 C.3     1  UNL1        0.1537
     28 C           6.0737   -2.7484   31.4509 C.ar    1  UNL1        0.0796
     29 C           6.9740   -3.7329   32.1366 C.ar    1  UNL1        0.0201
     30 C           7.9889   -4.5005   31.3424 C.ar    1  UNL1        0.0162
     31 C           8.1035   -4.2837   29.8626 C.ar    1  UNL1        0.0506
     32 C           7.2032   -3.2992   29.1769 C.ar    1  UNL1        0.0179
     33 C           6.1883   -2.5316   29.9711 C.ar    1  UNL1        0.0423
     34 C           4.1079   -1.3596   25.7527 C.3     1  UNL1        0.1110
     35 N           4.3406   -1.8784   27.1407 N.am    1  UNL1       -0.2979
     36 C           4.9393   -0.9837   28.1853 C.2     1  UNL1        0.2654
     37 O           5.3052    0.4298   27.8418 O.2     1  UNL1       -0.2684
     38 H           4.1004   -2.8062   27.3662 H       1  UNL1        0.1498
@<TRIPOS>BOND
     1    34    35    1
     2    35    36   am
     3    36    37    2
     4    36    24    1
     5    24    25   ar
     6    25    26   ar
     7    26    27    1
     8    26    28   ar
     9    28    29   ar
    10    29    30   ar
    11    30    31   ar
    12    31    22    1
    13    22     1    1
    14     1     2   ar
    15     2     3   ar
    16     3     4   ar
    17     4     5   ar
    18     5     7    1
    19     7     8   ar
    20     8     9   ar
    21     9    13    1
    22    15    13    1
    23    15    16    1
    24    16    17    1
    25    17    18    1
    26    18    19    1
    27    19    20    1
    28     9    10   ar
    29    10    11    1
    30    10    12   ar
    31     5     6   ar
    32    31    32   ar
    33    32    33   ar
    34    33    24   ar
    35    33    28   ar
    36     6     1   ar
    37    12     7   ar
    38    19    15    1
    39    35    38    1
    40    22    23    1
    41    13    14    1
    42    17    21    1
@<TRIPOS>MOLECULE
*****
 38 42 0 0 0
SMALL
GASTEIGER

@<TRIPOS>ATOM
      1 C           6.4825   -3.8623   21.1043 C.ar    1  UNL1        0.2221
      2 N           7.6572   -3.2243   20.4238 N.ar    1  UNL1       -0.2119
      3 C           9.0172   -3.2939   21.0530 C.ar    1  UNL1        0.1050
      4 C           9.2023   -4.0014   22.3626 C.ar    1  UNL1        0.0596
      5 C           8.0276   -4.6394   23.0430 C.ar    1  UNL1        0.1683
      6 N           6.6678   -4.5699   22.4139 N.ar    1  UNL1       -0.1944
      7 N           8.2128   -5.3470   24.3526 N.ar    1  UNL1       -0.2096
      8 C           8.7275   -4.7337   25.6211 C.ar    1  UNL1        0.1175
      9 C           8.7486   -5.7997   26.6761 C.ar    1  UNL1        0.0796
     10 C           8.2470   -7.0719   26.0596 C.ar    1  UNL1        0.0939
     11 C           8.1020   -8.3921   26.7568 C.3     1  UNL1        0.0553
     12 N           7.9159   -6.7921   24.6236 N.ar    1  UNL1       -0.1668
     13 N           9.1933   -5.6244   28.0979 N.pl3   1  UNL1       -0.3285
     14 H          10.1338   -5.7820   28.3425 H       1  UNL1        0.1470
     15 C           8.2050   -5.2090   29.1470 C.3     1  UNL1        0.1194
     16 C           7.6927   -6.0678   30.2651 C.3     1  UNL1        0.0912
     17 N           6.7266   -5.2514   31.0713 N.3     1  UNL1       -0.2937
     18 C           6.6417   -3.8880   30.4516 C.3     1  UNL1        0.1061
     19 C           7.5555   -3.8619   29.2623 C.3     1  UNL1        0.1956
     20 F           7.7802   -2.6936   28.3486 F       1  UNL1       -0.2340
     21 H           7.0570   -5.1744   32.0333 H       1  UNL1        0.1234
     22 N           5.1226   -3.7927   20.4752 N.pl3   1  UNL1       -0.2825
     23 H           4.8484   -4.4735   19.8190 H       1  UNL1        0.1551
     24 C           3.0005   -0.3046   23.9036 C.ar    1  UNL1        0.1554
     25 N           1.9215    0.7114   23.6725 N.ar    1  UNL1       -0.1646
     26 N           1.4863    0.6078   22.2408 N.ar    1  UNL1       -0.2487
     27 C           0.4270    1.4384   21.5790 C.3     1  UNL1        0.1537
     28 C           2.2962   -0.4723   21.5870 C.ar    1  UNL1        0.0796
     29 C           2.3025   -1.0152   20.1888 C.ar    1  UNL1        0.0201
     30 C           3.2446   -2.1219   19.8182 C.ar    1  UNL1        0.0162
     31 C           4.1805   -2.6859   20.8458 C.ar    1  UNL1        0.0506
     32 C           4.1742   -2.1430   22.2441 C.ar    1  UNL1        0.0179
     33 C           3.2321   -1.0362   22.6147 C.ar    1  UNL1        0.0423
     34 C           3.6651   -1.0935   27.7359 C.3     1  UNL1        0.1110
     35 N           2.9442   -0.8514   26.4429 N.am    1  UNL1       -0.2979
     36 C           3.7214   -0.5467   25.1965 C.2     1  UNL1        0.2654
     37 O           5.2193   -0.4840   25.2433 O.2     1  UNL1       -0.2684
     38 H           1.9611   -0.8926   26.4123 H       1  UNL1        0.1498
@<TRIPOS>BOND
     1    34    35    1
     2    35    36   am
     3    36    37    2
     4    36    24    1
     5    24    25   ar
     6    25    26   ar
     7    26    27    1
     8    26    28   ar
     9    28    29   ar
    10    29    30   ar
    11    30    31   ar
    12    31    22    1
    13    22     1    1
    14     1     2   ar
    15     2     3   ar
    16     3     4   ar
    17     4     5   ar
    18     5     7    1
    19     7     8   ar
    20     8     9   ar
    21     9    13    1
    22    15    13    1
    23    15    16    1
    24    16    17    1
    25    17    18    1
    26    18    19    1
    27    19    20    1
    28     9    10   ar
    29    10    11    1
    30    10    12   ar
    31     5     6   ar
    32    31    32   ar
    33    32    33   ar
    34    33    24   ar
    35    33    28   ar
    36     6     1   ar
    37    12     7   ar
    38    19    15    1
    39    35    38    1
    40    22    23    1
    41    13    14    1
    42    17    21    1
@<TRIPOS>MOLECULE
*****
 38 42 0 0 0
SMALL
GASTEIGER

@<TRIPOS>ATOM
      1 C           6.8686   -2.2486   25.9965 C.ar    1  UNL1        0.2221
      2 N           7.5020   -3.5515   26.3853 N.ar    1  UNL1       -0.2119
      3 C           7.4666   -4.7146   25.4387 C.ar    1  UNL1        0.1050
      4 C           6.7978   -4.5747   24.1033 C.ar    1  UNL1        0.0596
      5 C           6.1644   -3.2718   23.7145 C.ar    1  UNL1        0.1683
      6 N           6.1998   -2.1087   24.6611 N.ar    1  UNL1       -0.1944
      7 N           5.4956   -3.1319   22.3792 N.ar    1  UNL1       -0.2096
      8 C           5.3795   -1.8683   21.5793 C.ar    1  UNL1        0.1175
      9 C           4.6376   -2.1865   20.3151 C.ar    1  UNL1        0.0796
     10 C           4.2953   -3.6469   20.3336 C.ar    1  UNL1        0.0939
     11 C           3.5531   -4.3921   19.2642 C.3     1  UNL1        0.0553
     12 N           4.8256   -4.2311   21.6093 N.ar    1  UNL1       -0.1668
     13 N           4.2978   -1.2151   19.2239 N.pl3   1  UNL1       -0.3285
     14 H           4.9618   -1.0039   18.5284 H       1  UNL1        0.1470
     15 C           2.9462   -0.5653   19.1923 C.3     1  UNL1        0.1194
     16 C           2.3464    0.1659   18.0280 C.3     1  UNL1        0.0912
     17 N           0.9866    0.6505   18.4357 N.3     1  UNL1       -0.2937
     18 C           0.7460    0.2186   19.8519 C.3     1  UNL1        0.1061
     19 C           1.9571   -0.5328   20.3195 C.3     1  UNL1        0.1956
     20 F           2.1459   -1.1442   21.6761 F       1  UNL1       -0.2340
     21 H           0.2773    0.2452   17.8249 H       1  UNL1        0.1234
     22 N           6.9040   -1.0855   26.9430 N.pl3   1  UNL1       -0.2825
     23 H           7.3486   -0.2482   26.6776 H       1  UNL1        0.1551
     24 C           2.8777   -0.3827   30.3663 C.ar    1  UNL1        0.1554
     25 N           2.7946   -0.7535   31.8174 N.ar    1  UNL1       -0.1646
     26 N           4.0926   -1.3967   32.2065 N.ar    1  UNL1       -0.2487
     27 C           4.4436   -1.9212   33.5672 C.3     1  UNL1        0.1537
     28 C           4.9779   -1.4235   30.9959 C.ar    1  UNL1        0.0796
     29 C           6.3708   -1.9375   30.7823 C.ar    1  UNL1        0.0201
     30 C           7.0127   -1.8249   29.4313 C.ar    1  UNL1        0.0162
     31 C           6.2619   -1.1981   28.2940 C.ar    1  UNL1        0.0506
     32 C           4.8691   -0.6841   28.5077 C.ar    1  UNL1        0.0179
     33 C           4.2271   -0.7967   29.8586 C.ar    1  UNL1        0.0423
     34 C          -0.3606    0.1301   28.1301 C.3     1  UNL1        0.1110
     35 N           0.7165   -0.5375   28.9326 N.am    1  UNL1       -0.2979
     36 C           1.8006    0.2850   29.5638 C.2     1  UNL1        0.2654
     37 O           1.8074    1.7751   29.3925 O.2     1  UNL1       -0.2684
     38 H           0.7120   -1.5156   29.0450 H       1  UNL1        0.1498
@<TRIPOS>BOND
     1    34    35    1
     2    35    36   am
     3    36    37    2
     4    36    24    1
     5    24    25   ar
     6    25    26   ar
     7    26    27    1
     8    26    28   ar
     9    28    29   ar
    10    29    30   ar
    11    30    31   ar
    12    31    22    1
    13    22     1    1
    14     1     2   ar
    15     2     3   ar
    16     3     4   ar
    17     4     5   ar
    18     5     7    1
    19     7     8   ar
    20     8     9   ar
    21     9    13    1
    22    15    13    1
    23    15    16    1
    24    16    17    1
    25    17    18    1
    26    18    19    1
    27    19    20    1
    28     9    10   ar
    29    10    11    1
    30    10    12   ar
    31     5     6   ar
    32    31    32   ar
    33    32    33   ar
    34    33    24   ar
    35    33    28   ar
    36     6     1   ar
    37    12     7   ar
    38    19    15    1
    39    35    38    1
    40    22    23    1
    41    13    14    1
    42    17    21    1
@<TRIPOS>MOLECULE
*****
 38 42 0 0 0
SMALL
GASTEIGER

@<TRIPOS>ATOM
      1 C          -3.4238    3.2098   20.6027 C.ar    1  UNL1        0.2221
      2 N          -3.6562    4.4837   19.8456 N.ar    1  UNL1       -0.2119
      3 C          -2.5673    5.0547   18.9862 C.ar    1  UNL1        0.1050
      4 C          -1.2461    4.3519   18.8841 C.ar    1  UNL1        0.0596
      5 C          -1.0137    3.0780   19.6413 C.ar    1  UNL1        0.1683
      6 N          -2.1025    2.5070   20.5006 N.ar    1  UNL1       -0.1944
      7 N           0.3075    2.3752   19.5391 N.ar    1  UNL1       -0.2096
      8 C           1.4125    2.4235   20.5523 C.ar    1  UNL1        0.1175
      9 C           2.5436    1.5788   20.0453 C.ar    1  UNL1        0.0796
     10 C           2.1375    1.0084   18.7187 C.ar    1  UNL1        0.0939
     11 C           2.9678    0.1045   17.8563 C.3     1  UNL1        0.0553
     12 N           0.7556    1.5006   18.4059 N.ar    1  UNL1       -0.1668
     13 N           3.8511    1.3454   20.7424 N.pl3   1  UNL1       -0.3285
     14 H           4.6519    1.8480   20.4678 H       1  UNL1        0.1470
     15 C           3.9385    0.3464   21.8578 C.3     1  UNL1        0.1194
     16 C           4.3653    0.6332   23.2669 C.3     1  UNL1        0.0912
     17 N           4.3051   -0.6509   24.0399 N.3     1  UNL1       -0.2937
     18 C           3.8411   -1.7314   23.1085 C.3     1  UNL1        0.1061
     19 C           3.6146   -1.1149   21.7599 C.3     1  UNL1        0.1956
     20 F           3.1463   -1.8337   20.5294 F       1  UNL1       -0.2340
     21 H           3.6494   -0.5575   24.8157 H       1  UNL1        0.1234
     22 N          -4.5125    2.6388   21.4620 N.pl3   1  UNL1       -0.2825
     23 H          -4.9387    1.7865   21.2149 H       1  UNL1        0.1551
     24 C          -3.7729    4.4814   26.4099 C.ar    1  UNL1        0.1554
     25 N          -4.7134    5.2633   27.2783 N.ar    1  UNL1       -0.1646
     26 N          -5.9854    5.4737   26.5117 N.ar    1  UNL1       -0.2487
     27 C          -7.1988    6.2071   27.0013 C.3     1  UNL1        0.1537
     28 C          -5.8311    4.8218   25.1696 C.ar    1  UNL1        0.0796
     29 C          -6.7590    4.7074   23.9967 C.ar    1  UNL1        0.0201
     30 C          -6.3195    3.9797   22.7609 C.ar    1  UNL1        0.0162
     31 C          -4.9520    3.3665   22.6980 C.ar    1  UNL1        0.0506
     32 C          -4.0241    3.4809   23.8709 C.ar    1  UNL1        0.0179
     33 C          -4.4636    4.2085   25.1067 C.ar    1  UNL1        0.0423
     34 C          -0.6674    2.1551   27.2436 C.3     1  UNL1        0.1110
     35 N          -2.0551    2.5881   26.8737 N.am    1  UNL1       -0.2979
     36 C          -2.3852    4.0484   26.7798 C.2     1  UNL1        0.2654
     37 O          -1.3275    5.0755   27.0558 O.2     1  UNL1       -0.2684
     38 H          -2.7493    1.9139   26.6926 H       1  UNL1        0.1498
@<TRIPOS>BOND
     1    34    35    1
     2    35    36   am
     3    36    37    2
     4    36    24    1
     5    24    25   ar
     6    25    26   ar
     7    26    27    1
     8    26    28   ar
     9    28    29   ar
    10    29    30   ar
    11    30    31   ar
    12    31    22    1
    13    22     1    1
    14     1     2   ar
    15     2     3   ar
    16     3     4   ar
    17     4     5   ar
    18     5     7    1
    19     7     8   ar
    20     8     9   ar
    21     9    13    1
    22    15    13    1
    23    15    16    1
    24    16    17    1
    25    17    18    1
    26    18    19    1
    27    19    20    1
    28     9    10   ar
    29    10    11    1
    30    10    12   ar
    31     5     6   ar
    32    31    32   ar
    33    32    33   ar
    34    33    24   ar
    35    33    28   ar
    36     6     1   ar
    37    12     7   ar
    38    19    15    1
    39    35    38    1
    40    22    23    1
    41    13    14    1
    42    17    21    1
@<TRIPOS>MOLECULE
*****
 38 42 0 0 0
SMALL
GASTEIGER

@<TRIPOS>ATOM
      1 C           1.3208    1.7506   31.7723 C.ar    1  UNL1        0.2221
      2 N           0.3256    1.6207   30.6575 N.ar    1  UNL1       -0.2119
      3 C           0.5639    0.6371   29.5503 C.ar    1  UNL1        0.1050
      4 C           1.7973   -0.2164   29.5578 C.ar    1  UNL1        0.0596
      5 C           2.7926   -0.0864   30.6725 C.ar    1  UNL1        0.1683
      6 N           2.5543    0.8971   31.7797 N.ar    1  UNL1       -0.1944
      7 N           4.0260   -0.9399   30.6800 N.ar    1  UNL1       -0.2096
      8 C           4.9150   -1.2150   29.5036 C.ar    1  UNL1        0.1175
      9 C           6.0255   -2.1133   29.9617 C.ar    1  UNL1        0.0796
     10 C           5.8227   -2.3934   31.4214 C.ar    1  UNL1        0.0939
     11 C           6.7015   -3.2485   32.2854 C.3     1  UNL1        0.0553
     12 N           4.5870   -1.6682   31.8653 N.ar    1  UNL1       -0.1668
     13 N           7.1425   -2.6392   29.1099 N.pl3   1  UNL1       -0.3285
     14 H           8.0470   -2.2599   29.1950 H       1  UNL1        0.1470
     15 C           6.8815   -3.7429   28.1283 C.3     1  UNL1        0.1194
     16 C           6.8819   -3.6123   26.6340 C.3     1  UNL1        0.0912
     17 N           6.5749   -4.9598   26.0509 N.3     1  UNL1       -0.2937
     18 C           6.3847   -5.9232   27.1848 C.3     1  UNL1        0.1061
     19 C           6.5742   -5.1711   28.4687 C.3     1  UNL1        0.1956
     20 F           6.4740   -5.7462   29.8505 F       1  UNL1       -0.2340
     21 H           7.3492   -5.2667   25.4620 H       1  UNL1        0.1234
     22 N           1.0826    2.7341   32.8795 N.pl3   1  UNL1       -0.2825
     23 H           0.1783    3.0908   33.0350 H       1  UNL1        0.1551
     24 C           3.7172    2.9586   37.5090 C.ar    1  UNL1        0.1554
     25 N           5.0053    3.6564   37.8311 N.ar    1  UNL1       -0.1646
     26 N           5.4901    4.3336   36.5836 N.ar    1  UNL1       -0.2487
     27 C           6.7434    5.1472   36.4522 C.3     1  UNL1        0.1537
     28 C           4.5016    4.0544   35.4905 C.ar    1  UNL1        0.0796
     29 C           4.4578    4.4641   34.0482 C.ar    1  UNL1        0.0201
     30 C           3.3181    4.0240   33.1779 C.ar    1  UNL1        0.0162
     31 C           2.2223    3.1742   33.7499 C.ar    1  UNL1        0.0506
     32 C           2.2662    2.7645   35.1921 C.ar    1  UNL1        0.0179
     33 C           3.4059    3.2046   36.0624 C.ar    1  UNL1        0.0423
     34 C           0.5808    1.6071   39.5306 C.3     1  UNL1        0.1110
     35 N           1.4118    2.4099   38.5740 N.am    1  UNL1       -0.2979
     36 C           2.8862    2.1558   38.4656 C.2     1  UNL1        0.2654
     37 O           3.5294    1.0991   39.3137 O.2     1  UNL1       -0.2684
     38 H           0.9895    3.1035   38.0174 H       1  UNL1        0.1498
@<TRIPOS>BOND
     1    34    35    1
     2    35    36   am
     3    36    37    2
     4    36    24    1
     5    24    25   ar
     6    25    26   ar
     7    26    27    1
     8    26    28   ar
     9    28    29   ar
    10    29    30   ar
    11    30    31   ar
    12    31    22    1
    13    22     1    1
    14     1     2   ar
    15     2     3   ar
    16     3     4   ar
    17     4     5   ar
    18     5     7    1
    19     7     8   ar
    20     8     9   ar
    21     9    13    1
    22    15    13    1
    23    15    16    1
    24    16    17    1
    25    17    18    1
    26    18    19    1
    27    19    20    1
    28     9    10   ar
    29    10    11    1
    30    10    12   ar
    31     5     6   ar
    32    31    32   ar
    33    32    33   ar
    34    33    24   ar
    35    33    28   ar
    36     6     1   ar
    37    12     7   ar
    38    19    15    1
    39    35    38    1
    40    22    23    1
    41    13    14    1
    42    17    21    1
