@<TRIPOS>MOLECULE
*****
 26 28 0 0 0
SMALL
GASTEIGER

@<TRIPOS>ATOM
      1 N          -6.9980  -19.0924   22.0858 N.ar    1  UNL1       -0.3032
      2 C          -7.5706  -18.3665   23.2670 C.ar    1  UNL1        0.1788
      3 N          -9.0126  -18.0732   22.9763 N.ar    1  UNL1       -0.2238
      4 C          -9.3313  -18.6178   21.6155 C.ar    1  UNL1        0.1031
      5 C         -10.5944  -18.6215   20.8065 C.ar    1  UNL1        0.0724
      6 C         -10.6123  -19.2552   19.4471 C.ar    1  UNL1        0.0061
      7 C          -9.3673  -19.8851   18.8967 C.ar    1  UNL1        0.0017
      8 C          -8.1042  -19.8814   19.7057 C.ar    1  UNL1        0.0188
      9 C          -8.0862  -19.2478   21.0651 C.ar    1  UNL1        0.0794
     10 C         -11.8395  -17.9916   21.3569 C.2     1  UNL1        0.2474
     11 O         -12.6550  -17.0691   20.5002 O.2     1  UNL1       -0.2701
     12 N         -12.2690  -18.2841   22.7639 N.am    1  UNL1       -0.2982
     13 H         -11.7338  -18.8896   23.3262 H       1  UNL1        0.1498
     14 C         -13.5141  -17.6542   23.3143 C.3     1  UNL1        0.1280
     15 C         -14.1664  -18.2266   24.5379 C.3     1  UNL1        0.2144
     16 F         -15.5524  -18.7939   24.4531 F       1  UNL1       -0.2324
     17 C          -5.5853  -19.5778   21.9492 C.3     1  UNL1        0.1532
     18 C          -2.3548  -17.7202   20.5841 C.ar    1  UNL1        0.2234
     19 N          -2.2140  -16.6186   21.5923 N.ar    1  UNL1       -0.1896
     20 C          -3.1969  -16.5034   22.7195 C.ar    1  UNL1        0.2012
     21 N          -4.3207  -17.4897   22.8385 N.ar    1  UNL1       -0.2265
     22 C          -4.4615  -18.5913   21.8303 C.ar    1  UNL1        0.0841
     23 C          -3.4786  -18.7066   20.7031 C.ar    1  UNL1        0.0468
     24 C          -3.6195  -19.8083   19.6948 C.3     1  UNL1        0.0372
     25 C           0.1003  -17.7623   19.7351 C.3     1  UNL1        0.2542
     26 O          -1.3719  -17.8354   19.4569 O.3     1  UNL1       -0.4563
@<TRIPOS>BOND
     1    25    26    1
     2    26    18    1
     3    18    19   ar
     4    19    20   ar
     5    20    21   ar
     6    21    22   ar
     7    22    17    1
     8    17     1    1
     9     1     2   ar
    10     2     3   ar
    11     3     4   ar
    12     4     5   ar
    13     5    10    1
    14    10    11    2
    15    10    12   am
    16    12    14    1
    17    14    15    1
    18    15    16    1
    19     5     6   ar
    20     6     7   ar
    21     7     8   ar
    22     8     9   ar
    23    22    23   ar
    24    23    24    1
    25    23    18   ar
    26     9     1   ar
    27     9     4   ar
    28    12    13    1
@<TRIPOS>MOLECULE
*****
 26 28 0 0 0
SMALL
GASTEIGER

@<TRIPOS>ATOM
      1 N          -5.9792  -18.7215   22.3704 N.ar    1  UNL1       -0.3032
      2 C          -6.9964  -19.5166   21.6068 C.ar    1  UNL1        0.1788
      3 N          -8.3188  -18.8198   21.7324 N.ar    1  UNL1       -0.2238
      4 C          -8.1188  -17.5940   22.5735 C.ar    1  UNL1        0.1031
      5 C          -9.0666  -16.5253   23.0313 C.ar    1  UNL1        0.0724
      6 C          -8.5683  -15.3959   23.8834 C.ar    1  UNL1        0.0061
      7 C          -7.1224  -15.3352   24.2777 C.ar    1  UNL1        0.0017
      8 C          -6.1746  -16.4039   23.8199 C.ar    1  UNL1        0.0188
      9 C          -6.6728  -17.5333   22.9678 C.ar    1  UNL1        0.0794
     10 C         -10.5125  -16.5860   22.6370 C.2     1  UNL1        0.2474
     11 O         -10.9928  -15.8366   21.4297 O.2     1  UNL1       -0.2701
     12 N         -11.4782  -17.3962   23.4499 N.am    1  UNL1       -0.2982
     13 H         -11.1630  -17.8881   24.2424 H       1  UNL1        0.1498
     14 C         -12.9242  -17.4569   23.0556 C.3     1  UNL1        0.1280
     15 C         -13.9257  -18.0936   23.9731 C.3     1  UNL1        0.2144
     16 F         -13.5104  -18.5379   25.3443 F       1  UNL1       -0.2324
     17 C          -4.5238  -19.0559   22.5117 C.3     1  UNL1        0.1532
     18 C          -1.9892  -17.8940   19.6875 C.ar    1  UNL1        0.2234
     19 N          -1.4356  -16.6421   20.3011 N.ar    1  UNL1       -0.1896
     20 C          -1.9113  -16.1950   21.6515 C.ar    1  UNL1        0.2012
     21 N          -2.9407  -16.9995   22.3884 N.ar    1  UNL1       -0.2265
     22 C          -3.4943  -18.2513   21.7748 C.ar    1  UNL1        0.0841
     23 C          -3.0186  -18.6985   20.4244 C.ar    1  UNL1        0.0468
     24 C          -3.5723  -19.9503   19.8109 C.3     1  UNL1        0.0372
     25 C          -1.8284  -17.5208   17.1214 C.3     1  UNL1        0.2542
     26 O          -1.5134  -18.3411   18.3371 O.3     1  UNL1       -0.4563
@<TRIPOS>BOND
     1    25    26    1
     2    26    18    1
     3    18    19   ar
     4    19    20   ar
     5    20    21   ar
     6    21    22   ar
     7    22    17    1
     8    17     1    1
     9     1     2   ar
    10     2     3   ar
    11     3     4   ar
    12     4     5   ar
    13     5    10    1
    14    10    11    2
    15    10    12   am
    16    12    14    1
    17    14    15    1
    18    15    16    1
    19     5     6   ar
    20     6     7   ar
    21     7     8   ar
    22     8     9   ar
    23    22    23   ar
    24    23    24    1
    25    23    18   ar
    26     9     1   ar
    27     9     4   ar
    28    12    13    1
@<TRIPOS>MOLECULE
*****
 26 28 0 0 0
SMALL
GASTEIGER

@<TRIPOS>ATOM
      1 N          -7.3879  -19.6064   22.3293 N.ar    1  UNL1       -0.3032
      2 C          -6.3339  -20.4159   21.6338 C.ar    1  UNL1        0.1788
      3 N          -5.0453  -19.6506   21.6961 N.ar    1  UNL1       -0.2238
      4 C          -5.3029  -18.3680   22.4301 C.ar    1  UNL1        0.1031
      5 C          -4.4063  -17.2216   22.7926 C.ar    1  UNL1        0.0724
      6 C          -4.9574  -16.0477   23.5465 C.ar    1  UNL1        0.0061
      7 C          -6.4052  -16.0204   23.9378 C.ar    1  UNL1        0.0017
      8 C          -7.3019  -17.1669   23.5753 C.ar    1  UNL1        0.0188
      9 C          -6.7507  -18.3407   22.8214 C.ar    1  UNL1        0.0794
     10 C          -2.9585  -17.2489   22.4013 C.2     1  UNL1        0.2474
     11 O          -1.9700  -18.0075   23.2364 O.2     1  UNL1       -0.2701
     12 N          -2.4991  -16.5176   21.1749 N.am    1  UNL1       -0.2982
     13 H          -3.1478  -16.0197   20.6268 H       1  UNL1        0.1498
     14 C          -1.0513  -16.5449   20.7836 C.3     1  UNL1        0.1280
     15 C          -0.5137  -17.6903   19.9778 C.3     1  UNL1        0.2144
     16 F          -1.4079  -18.8399   19.6191 F       1  UNL1       -0.2324
     17 C          -8.8265  -19.9943   22.5023 C.3     1  UNL1        0.1532
     18 C         -12.0235  -17.6438   22.4375 C.ar    1  UNL1        0.2234
     19 N         -12.0850  -17.2889   20.9814 N.ar    1  UNL1       -0.1896
     20 C         -11.0603  -17.8358   20.0322 C.ar    1  UNL1        0.2012
     21 N          -9.9741  -18.7376   20.5391 N.ar    1  UNL1       -0.2265
     22 C          -9.9127  -19.0925   21.9953 C.ar    1  UNL1        0.0841
     23 C         -10.9374  -18.5455   22.9444 C.ar    1  UNL1        0.0468
     24 C         -10.8758  -18.9004   24.4006 C.3     1  UNL1        0.0372
     25 C         -14.0827  -18.0069   23.9795 C.3     1  UNL1        0.2542
     26 O         -13.0482  -17.0968   23.3866 O.3     1  UNL1       -0.4563
@<TRIPOS>BOND
     1    25    26    1
     2    26    18    1
     3    18    19   ar
     4    19    20   ar
     5    20    21   ar
     6    21    22   ar
     7    22    17    1
     8    17     1    1
     9     1     2   ar
    10     2     3   ar
    11     3     4   ar
    12     4     5   ar
    13     5    10    1
    14    10    11    2
    15    10    12   am
    16    12    14    1
    17    14    15    1
    18    15    16    1
    19     5     6   ar
    20     6     7   ar
    21     7     8   ar
    22     8     9   ar
    23    22    23   ar
    24    23    24    1
    25    23    18   ar
    26     9     1   ar
    27     9     4   ar
    28    12    13    1
@<TRIPOS>MOLECULE
*****
 26 28 0 0 0
SMALL
GASTEIGER

@<TRIPOS>ATOM
      1 N          -7.3968  -19.5410   22.3567 N.ar    1  UNL1       -0.3032
      2 C          -6.3647  -20.3697   21.6510 C.ar    1  UNL1        0.1788
      3 N          -5.0621  -19.6274   21.6995 N.ar    1  UNL1       -0.2238
      4 C          -5.2891  -18.3401   22.4352 C.ar    1  UNL1        0.1031
      5 C          -4.3684  -17.2096   22.7877 C.ar    1  UNL1        0.0724
      6 C          -4.8907  -16.0258   23.5463 C.ar    1  UNL1        0.0061
      7 C          -6.3336  -15.9724   23.9525 C.ar    1  UNL1        0.0017
      8 C          -7.2544  -17.1028   23.6000 C.ar    1  UNL1        0.0188
      9 C          -6.7321  -18.2867   22.8414 C.ar    1  UNL1        0.0794
     10 C          -2.9255  -17.2631   22.3815 C.2     1  UNL1        0.2474
     11 O          -1.9369  -18.0150   23.2224 O.2     1  UNL1       -0.2701
     12 N          -2.4710  -16.5645   21.1343 N.am    1  UNL1       -0.2982
     13 H          -3.1198  -16.0709   20.5823 H       1  UNL1        0.1498
     14 C          -1.0281  -16.6179   20.7281 C.3     1  UNL1        0.1280
     15 C          -0.5062  -17.8010   19.9678 C.3     1  UNL1        0.2144
     16 F          -1.3119  -19.0646   19.9014 F       1  UNL1       -0.2324
     17 C          -8.8402  -19.9031   22.5448 C.3     1  UNL1        0.1532
     18 C         -11.4251  -17.4028   20.8664 C.ar    1  UNL1        0.2234
     19 N         -12.0272  -16.7602   22.0807 N.ar    1  UNL1       -0.1896
     20 C         -11.5670  -17.1653   23.4497 C.ar    1  UNL1        0.2012
     21 N         -10.5047  -18.2128   23.6044 N.ar    1  UNL1       -0.2265
     22 C          -9.9026  -18.8554   22.3901 C.ar    1  UNL1        0.0841
     23 C         -10.3628  -18.4504   21.0211 C.ar    1  UNL1        0.0468
     24 C          -9.7606  -19.0930   19.8068 C.3     1  UNL1        0.0372
     25 C         -11.7187  -15.5791   19.0393 C.3     1  UNL1        0.2542
     26 O         -11.8853  -16.9977   19.4974 O.3     1  UNL1       -0.4563
@<TRIPOS>BOND
     1    25    26    1
     2    26    18    1
     3    18    19   ar
     4    19    20   ar
     5    20    21   ar
     6    21    22   ar
     7    22    17    1
     8    17     1    1
     9     1     2   ar
    10     2     3   ar
    11     3     4   ar
    12     4     5   ar
    13     5    10    1
    14    10    11    2
    15    10    12   am
    16    12    14    1
    17    14    15    1
    18    15    16    1
    19     5     6   ar
    20     6     7   ar
    21     7     8   ar
    22     8     9   ar
    23    22    23   ar
    24    23    24    1
    25    23    18   ar
    26     9     1   ar
    27     9     4   ar
    28    12    13    1
@<TRIPOS>MOLECULE
*****
 26 28 0 0 0
SMALL
GASTEIGER

@<TRIPOS>ATOM
      1 N          -5.8012  -19.2505   22.4828 N.ar    1  UNL1       -0.3032
      2 C          -6.7227  -20.3576   22.0640 C.ar    1  UNL1        0.1788
      3 N          -8.1315  -19.8545   22.1740 N.ar    1  UNL1       -0.2238
      4 C          -8.0808  -18.4366   22.6607 C.ar    1  UNL1        0.1031
      5 C          -9.1600  -17.4371   22.9547 C.ar    1  UNL1        0.0724
      6 C          -8.7989  -16.0644   23.4396 C.ar    1  UNL1        0.0061
      7 C          -7.3587  -15.6911   23.6304 C.ar    1  UNL1        0.0017
      8 C          -6.2795  -16.6905   23.3364 C.ar    1  UNL1        0.0188
      9 C          -6.6406  -18.0632   22.8515 C.ar    1  UNL1        0.0794
     10 C         -10.6002  -17.8105   22.7639 C.2     1  UNL1        0.2474
     11 O         -10.9616  -19.1860   22.2874 O.2     1  UNL1       -0.2701
     12 N         -11.6789  -16.8082   23.0495 N.am    1  UNL1       -0.2982
     13 H         -11.4417  -15.9053   23.3623 H       1  UNL1        0.1498
     14 C         -13.1192  -17.1815   22.8587 C.3     1  UNL1        0.1280
     15 C         -13.8234  -18.0075   23.8941 C.3     1  UNL1        0.2144
     16 F         -13.0601  -18.5534   25.0643 F       1  UNL1       -0.2324
     17 C          -4.3034  -19.3186   22.5253 C.3     1  UNL1        0.1532
     18 C          -1.5656  -17.7224   20.1363 C.ar    1  UNL1        0.2234
     19 N          -1.9029  -18.3872   18.8347 N.ar    1  UNL1       -0.1896
     20 C          -3.0404  -19.3625   18.7633 C.ar    1  UNL1        0.2012
     21 N          -3.8405  -19.6730   19.9934 N.ar    1  UNL1       -0.2265
     22 C          -3.5032  -19.0082   21.2950 C.ar    1  UNL1        0.0841
     23 C          -2.3658  -18.0329   21.3665 C.ar    1  UNL1        0.0468
     24 C          -2.0285  -17.3681   22.6682 C.3     1  UNL1        0.0372
     25 C           0.9874  -17.2419   20.1715 C.3     1  UNL1        0.2542
     26 O          -0.4282  -16.7471   20.2077 O.3     1  UNL1       -0.4563
@<TRIPOS>BOND
     1    25    26    1
     2    26    18    1
     3    18    19   ar
     4    19    20   ar
     5    20    21   ar
     6    21    22   ar
     7    22    17    1
     8    17     1    1
     9     1     2   ar
    10     2     3   ar
    11     3     4   ar
    12     4     5   ar
    13     5    10    1
    14    10    11    2
    15    10    12   am
    16    12    14    1
    17    14    15    1
    18    15    16    1
    19     5     6   ar
    20     6     7   ar
    21     7     8   ar
    22     8     9   ar
    23    22    23   ar
    24    23    24    1
    25    23    18   ar
    26     9     1   ar
    27     9     4   ar
    28    12    13    1
@<TRIPOS>MOLECULE
*****
 26 28 0 0 0
SMALL
GASTEIGER

@<TRIPOS>ATOM
      1 N           7.3795   -4.3279   22.7358 N.ar    1  UNL1       -0.3032
      2 C           6.5836   -3.6066   23.7828 C.ar    1  UNL1        0.1788
      3 N           6.7351   -4.3522   25.0756 N.ar    1  UNL1       -0.2238
      4 C           7.6247   -5.5342   24.8275 C.ar    1  UNL1        0.1031
      5 C           8.1235   -6.6223   25.7315 C.ar    1  UNL1        0.0724
      6 C           9.0205   -7.6953   25.1894 C.ar    1  UNL1        0.0061
      7 C           9.4188   -7.6802   23.7433 C.ar    1  UNL1        0.0017
      8 C           8.9200   -6.5922   22.8393 C.ar    1  UNL1        0.0188
      9 C           8.0229   -5.5192   23.3814 C.ar    1  UNL1        0.0794
     10 C           7.7252   -6.6373   27.1776 C.2     1  UNL1        0.2474
     11 O           8.0586   -7.8220   28.0350 O.2     1  UNL1       -0.2701
     12 N           6.9935   -5.4677   27.7662 N.am    1  UNL1       -0.2982
     13 H           6.7746   -4.6901   27.2034 H       1  UNL1        0.1498
     14 C           6.5952   -5.4827   29.2123 C.3     1  UNL1        0.1280
     15 C           7.6121   -5.1828   30.2734 C.3     1  UNL1        0.2144
     16 F           7.4162   -5.7003   31.6676 F       1  UNL1       -0.2324
     17 C           7.5093   -3.9280   21.2959 C.3     1  UNL1        0.1532
     18 C           5.0737   -2.6945   18.4155 C.ar    1  UNL1        0.2234
     19 N           3.8282   -3.4605   18.7501 N.ar    1  UNL1       -0.1896
     20 C           3.8097   -4.3823   19.9333 C.ar    1  UNL1        0.2012
     21 N           5.0366   -4.5381   20.7819 N.ar    1  UNL1       -0.2265
     22 C           6.2822   -3.7722   20.4473 C.ar    1  UNL1        0.0841
     23 C           6.3006   -2.8504   19.2641 C.ar    1  UNL1        0.0468
     24 C           7.5462   -2.0844   18.9295 C.3     1  UNL1        0.0372
     25 C           3.9190   -0.8786   16.9597 C.3     1  UNL1        0.2542
     26 O           5.0922   -1.7727   17.2323 O.3     1  UNL1       -0.4563
@<TRIPOS>BOND
     1    25    26    1
     2    26    18    1
     3    18    19   ar
     4    19    20   ar
     5    20    21   ar
     6    21    22   ar
     7    22    17    1
     8    17     1    1
     9     1     2   ar
    10     2     3   ar
    11     3     4   ar
    12     4     5   ar
    13     5    10    1
    14    10    11    2
    15    10    12   am
    16    12    14    1
    17    14    15    1
    18    15    16    1
    19     5     6   ar
    20     6     7   ar
    21     7     8   ar
    22     8     9   ar
    23    22    23   ar
    24    23    24    1
    25    23    18   ar
    26     9     1   ar
    27     9     4   ar
    28    12    13    1
@<TRIPOS>MOLECULE
*****
 26 28 0 0 0
SMALL
GASTEIGER

@<TRIPOS>ATOM
      1 N          -4.8920  -19.2964   22.3034 N.ar    1  UNL1       -0.3032
      2 C          -6.1318  -20.0075   21.8481 C.ar    1  UNL1        0.1788
      3 N          -7.3074  -19.1233   22.1416 N.ar    1  UNL1       -0.2238
      4 C          -6.7942  -17.8657   22.7782 C.ar    1  UNL1        0.1031
      5 C          -7.4933  -16.6371   23.2798 C.ar    1  UNL1        0.0724
      6 C          -6.6996  -15.5155   23.8813 C.ar    1  UNL1        0.0061
      7 C          -5.2068  -15.6225   23.9813 C.ar    1  UNL1        0.0017
      8 C          -4.5076  -16.8511   23.4797 C.ar    1  UNL1        0.0188
      9 C          -5.3014  -17.9728   22.8782 C.ar    1  UNL1        0.0794
     10 C          -8.9862  -16.5301   23.1798 C.2     1  UNL1        0.2474
     11 O          -9.7753  -15.9601   24.3210 O.2     1  UNL1       -0.2701
     12 N          -9.6898  -16.9931   21.9387 N.am    1  UNL1       -0.2982
     13 H          -9.1719  -17.3672   21.1897 H       1  UNL1        0.1498
     14 C         -11.1827  -16.8861   21.8387 C.3     1  UNL1        0.1280
     15 C         -11.9632  -17.9408   21.1118 C.3     1  UNL1        0.2144
     16 F         -11.4316  -19.3407   21.0246 F       1  UNL1       -0.2324
     17 C          -3.4891  -19.8175   22.2016 C.3     1  UNL1        0.1532
     18 C          -1.5382  -18.2038   19.1454 C.ar    1  UNL1        0.2234
     19 N          -0.4035  -17.5293   19.8578 N.ar    1  UNL1       -0.1896
     20 C          -0.2973  -17.6176   21.3515 C.ar    1  UNL1        0.2012
     21 N          -1.3258  -18.3802   22.1328 N.ar    1  UNL1       -0.2265
     22 C          -2.4605  -19.0547   21.4204 C.ar    1  UNL1        0.0841
     23 C          -2.5667  -18.9665   19.9267 C.ar    1  UNL1        0.0468
     24 C          -3.7014  -19.6410   19.2144 C.3     1  UNL1        0.0372
     25 C          -2.4656  -17.0303   17.0211 C.3     1  UNL1        0.2542
     26 O          -1.6444  -18.1156   17.6518 O.3     1  UNL1       -0.4563
@<TRIPOS>BOND
     1    25    26    1
     2    26    18    1
     3    18    19   ar
     4    19    20   ar
     5    20    21   ar
     6    21    22   ar
     7    22    17    1
     8    17     1    1
     9     1     2   ar
    10     2     3   ar
    11     3     4   ar
    12     4     5   ar
    13     5    10    1
    14    10    11    2
    15    10    12   am
    16    12    14    1
    17    14    15    1
    18    15    16    1
    19     5     6   ar
    20     6     7   ar
    21     7     8   ar
    22     8     9   ar
    23    22    23   ar
    24    23    24    1
    25    23    18   ar
    26     9     1   ar
    27     9     4   ar
    28    12    13    1
@<TRIPOS>MOLECULE
*****
 26 28 0 0 0
SMALL
GASTEIGER

@<TRIPOS>ATOM
      1 N          -7.8259  -19.7497   22.5742 N.ar    1  UNL1       -0.3032
      2 C          -8.9054  -20.5045   23.2917 C.ar    1  UNL1        0.1788
      3 N         -10.1090  -19.6143   23.3861 N.ar    1  UNL1       -0.2238
      4 C          -9.7733  -18.3093   22.7269 C.ar    1  UNL1        0.1031
      5 C         -10.5702  -17.0557   22.5188 C.ar    1  UNL1        0.0724
      6 C          -9.9561  -15.8858   21.8089 C.ar    1  UNL1        0.0061
      7 C          -8.5450  -15.9695   21.3071 C.ar    1  UNL1        0.0017
      8 C          -7.7480  -17.2231   21.5152 C.ar    1  UNL1        0.0188
      9 C          -8.3622  -18.3930   22.2251 C.ar    1  UNL1        0.0794
     10 C         -11.9813  -16.9721   23.0206 C.2     1  UNL1        0.2474
     11 O         -12.7885  -15.7299   22.7855 O.2     1  UNL1       -0.2701
     12 N         -12.5852  -18.1306   23.7575 N.am    1  UNL1       -0.2982
     13 H         -12.0554  -18.9459   23.9119 H       1  UNL1        0.1498
     14 C         -13.9963  -18.0469   24.2593 C.3     1  UNL1        0.1280
     15 C         -14.3691  -18.6929   25.5608 C.3     1  UNL1        0.2144
     16 F         -14.4258  -17.8734   26.8158 F       1  UNL1       -0.2324
     17 C          -6.4512  -20.2616   22.2607 C.3     1  UNL1        0.1532
     18 C          -3.1433  -18.4838   20.9771 C.ar    1  UNL1        0.2234
     19 N          -2.9890  -17.3988   22.0013 N.ar    1  UNL1       -0.1896
     20 C          -3.9887  -17.2681   23.1119 C.ar    1  UNL1        0.2012
     21 N          -5.1427  -18.2223   23.1984 N.ar    1  UNL1       -0.2265
     22 C          -5.2971  -19.3073   22.1743 C.ar    1  UNL1        0.0841
     23 C          -4.2974  -19.4380   21.0636 C.ar    1  UNL1        0.0468
     24 C          -4.4518  -20.5231   20.0395 C.3     1  UNL1        0.0372
     25 C          -2.1389  -17.6229   18.7411 C.3     1  UNL1        0.2542
     26 O          -2.1436  -18.6145   19.8665 O.3     1  UNL1       -0.4563
@<TRIPOS>BOND
     1    25    26    1
     2    26    18    1
     3    18    19   ar
     4    19    20   ar
     5    20    21   ar
     6    21    22   ar
     7    22    17    1
     8    17     1    1
     9     1     2   ar
    10     2     3   ar
    11     3     4   ar
    12     4     5   ar
    13     5    10    1
    14    10    11    2
    15    10    12   am
    16    12    14    1
    17    14    15    1
    18    15    16    1
    19     5     6   ar
    20     6     7   ar
    21     7     8   ar
    22     8     9   ar
    23    22    23   ar
    24    23    24    1
    25    23    18   ar
    26     9     1   ar
    27     9     4   ar
    28    12    13    1
@<TRIPOS>MOLECULE
*****
 26 28 0 0 0
SMALL
GASTEIGER

@<TRIPOS>ATOM
      1 N           3.1673    2.3637   33.3440 N.ar    1  UNL1       -0.3032
      2 C           2.0465    2.9959   34.1148 C.ar    1  UNL1        0.1788
      3 N           2.1545    2.5469   35.5419 N.ar    1  UNL1       -0.2238
      4 C           3.3420    1.6373   35.6531 C.ar    1  UNL1        0.1031
      5 C           3.9342    0.8974   36.8158 C.ar    1  UNL1        0.0724
      6 C           5.1524    0.0444   36.6201 C.ar    1  UNL1        0.0061
      7 C           5.7783   -0.0688   35.2616 C.ar    1  UNL1        0.0017
      8 C           5.1861    0.6710   34.0989 C.ar    1  UNL1        0.0188
      9 C           3.9680    1.5241   34.2947 C.ar    1  UNL1        0.0794
     10 C           3.3083    1.0106   38.1743 C.2     1  UNL1        0.2474
     11 O           4.0887    1.5969   39.3132 O.2     1  UNL1       -0.2701
     12 N           1.9019    0.5376   38.3938 N.am    1  UNL1       -0.2982
     13 H           1.3896    0.1528   37.6463 H       1  UNL1        0.1498
     14 C           1.2759    0.6508   39.7522 C.3     1  UNL1        0.1280
     15 C           0.5787    1.9169   40.1536 C.3     1  UNL1        0.2144
     16 F          -0.2815    2.6455   39.1641 F       1  UNL1       -0.2324
     17 C           3.4396    2.5403   31.8795 C.3     1  UNL1        0.1532
     18 C           1.0686    0.6800   29.2972 C.ar    1  UNL1        0.2234
     19 N           1.9214   -0.4970   28.9265 N.ar    1  UNL1       -0.1896
     20 C           3.2803   -0.6616   29.5401 C.ar    1  UNL1        0.2012
     21 N           3.7864    0.3508   30.5244 N.ar    1  UNL1       -0.2265
     22 C           2.9336    1.5278   30.8951 C.ar    1  UNL1        0.0841
     23 C           1.5747    1.6923   30.2815 C.ar    1  UNL1        0.0468
     24 C           0.7220    2.8694   30.6523 C.3     1  UNL1        0.0372
     25 C          -1.3661   -0.1627   28.9628 C.3     1  UNL1        0.2542
     26 O          -0.2902    0.8445   28.6837 O.3     1  UNL1       -0.4563
@<TRIPOS>BOND
     1    25    26    1
     2    26    18    1
     3    18    19   ar
     4    19    20   ar
     5    20    21   ar
     6    21    22   ar
     7    22    17    1
     8    17     1    1
     9     1     2   ar
    10     2     3   ar
    11     3     4   ar
    12     4     5   ar
    13     5    10    1
    14    10    11    2
    15    10    12   am
    16    12    14    1
    17    14    15    1
    18    15    16    1
    19     5     6   ar
    20     6     7   ar
    21     7     8   ar
    22     8     9   ar
    23    22    23   ar
    24    23    24    1
    25    23    18   ar
    26     9     1   ar
    27     9     4   ar
    28    12    13    1
