@<TRIPOS>MOLECULE
*****
 17 18 0 0 0
SMALL
GASTEIGER

@<TRIPOS>ATOM
      1 C          -7.2395  -15.7437   24.3559 C.ar    1  UNL1        0.1418
      2 C          -8.5058  -15.9911   25.1208 C.ar    1  UNL1        0.0371
      3 C          -9.5388  -16.9329   24.5768 C.ar    1  UNL1        0.0059
      4 C          -9.3054  -17.6273   23.2679 C.ar    1  UNL1        0.0324
      5 C         -10.3384  -18.5691   22.7239 C.ar    1  UNL1        0.0033
      6 C         -10.1051  -19.2635   21.4150 C.ar    1  UNL1        0.0795
      7 C          -8.8387  -19.0161   20.6500 C.ar    1  UNL1        0.3456
      8 O          -8.6053  -19.7105   19.3411 O.2     1  UNL1       -0.2445
      9 O          -7.8057  -18.0743   21.1940 O.2     1  UNL1       -0.4209
     10 C          -8.0391  -17.3799   22.5030 C.ar    1  UNL1        0.1514
     11 C          -7.0061  -16.4381   23.0470 C.ar    1  UNL1        0.0744
     12 C          -5.3721  -15.2040   26.0797 C.3     1  UNL1        0.2525
     13 O          -6.2065  -14.8019   24.8999 O.3     1  UNL1       -0.4713
     14 C         -11.6048  -18.8165   23.4888 C.3     1  UNL1        0.0995
     15 N         -12.7580  -17.8663   23.3577 N.3     1  UNL1       -0.2665
     16 C         -12.6638  -16.6971   22.4227 C.3     1  UNL1        0.0899
     17 C         -14.0052  -18.0852   24.1616 C.3     1  UNL1        0.0899
@<TRIPOS>BOND
     1    12    13    1
     2    13     1    1
     3     1     2   ar
     4     2     3   ar
     5     3     4   ar
     6     4     5   ar
     7     5    14    1
     8    14    15    1
     9    15    16    1
    10    15    17    1
    11     5     6   ar
    12     6     7   ar
    13     7     8    2
    14     7     9   ar
    15     9    10   ar
    16    10    11   ar
    17    11     1   ar
    18    10     4   ar
@<TRIPOS>MOLECULE
*****
 17 18 0 0 0
SMALL
GASTEIGER

@<TRIPOS>ATOM
      1 C          -9.8087  -18.0806   21.4694 C.ar    1  UNL1        0.1418
      2 C          -8.9429  -19.2174   21.0135 C.ar    1  UNL1        0.0371
      3 C          -7.4965  -19.2636   21.4080 C.ar    1  UNL1        0.0059
      4 C          -6.9158  -18.1728   22.2583 C.ar    1  UNL1        0.0324
      5 C          -5.4693  -18.2189   22.6527 C.ar    1  UNL1        0.0033
      6 C          -4.8887  -17.1282   23.5030 C.ar    1  UNL1        0.0795
      7 C          -5.7545  -15.9912   23.9588 C.ar    1  UNL1        0.3456
      8 O          -5.1738  -14.9004   24.8091 O.2     1  UNL1       -0.2445
      9 O          -7.2009  -15.9451   23.5644 O.2     1  UNL1       -0.4209
     10 C          -7.7816  -17.0359   22.7141 C.ar    1  UNL1        0.1514
     11 C          -9.2281  -16.9898   22.3196 C.ar    1  UNL1        0.0744
     12 C         -11.9630  -16.7159   20.9724 C.3     1  UNL1        0.2525
     13 O         -11.2552  -18.0344   21.0749 O.3     1  UNL1       -0.4713
     14 C          -4.6035  -19.3558   22.1969 C.3     1  UNL1        0.0995
     15 N          -3.5675  -19.1309   21.1357 N.3     1  UNL1       -0.2665
     16 C          -3.9704  -19.0873   19.6914 C.3     1  UNL1        0.0899
     17 C          -2.1286  -18.9496   21.5187 C.3     1  UNL1        0.0899
@<TRIPOS>BOND
     1    12    13    1
     2    13     1    1
     3     1     2   ar
     4     2     3   ar
     5     3     4   ar
     6     4     5   ar
     7     5    14    1
     8    14    15    1
     9    15    16    1
    10    15    17    1
    11     5     6   ar
    12     6     7   ar
    13     7     8    2
    14     7     9   ar
    15     9    10   ar
    16    10    11   ar
    17    11     1   ar
    18    10     4   ar
@<TRIPOS>MOLECULE
*****
 17 18 0 0 0
SMALL
GASTEIGER

@<TRIPOS>ATOM
      1 C          -3.5018  -19.6494   21.2498 C.ar    1  UNL1        0.1418
      2 C          -4.4725  -20.3732   20.3644 C.ar    1  UNL1        0.0371
      3 C          -5.9308  -20.0248   20.4078 C.ar    1  UNL1        0.0059
      4 C          -6.4185  -18.9528   21.3366 C.ar    1  UNL1        0.0324
      5 C          -7.8769  -18.6044   21.3800 C.ar    1  UNL1        0.0033
      6 C          -8.3646  -17.5323   22.3088 C.ar    1  UNL1        0.0795
      7 C          -7.3939  -16.8085   23.1943 C.ar    1  UNL1        0.3456
      8 O          -7.8816  -15.7364   24.1231 O.2     1  UNL1       -0.2445
      9 O          -5.9356  -17.1568   23.1509 O.2     1  UNL1       -0.4209
     10 C          -5.4479  -18.2290   22.2220 C.ar    1  UNL1        0.1514
     11 C          -3.9895  -18.5773   22.1786 C.ar    1  UNL1        0.0744
     12 C          -1.0589  -19.0318   20.6169 C.3     1  UNL1        0.2525
     13 O          -2.0435  -19.9977   21.2064 O.3     1  UNL1       -0.4713
     14 C          -8.8475  -19.3282   20.4946 C.3     1  UNL1        0.0995
     15 N         -10.3226  -19.1226   20.6731 N.3     1  UNL1       -0.2665
     16 C         -11.0411  -18.0931   19.8521 C.3     1  UNL1        0.0899
     17 C         -11.0792  -19.9465   21.6724 C.3     1  UNL1        0.0899
@<TRIPOS>BOND
     1    12    13    1
     2    13     1    1
     3     1     2   ar
     4     2     3   ar
     5     3     4   ar
     6     4     5   ar
     7     5    14    1
     8    14    15    1
     9    15    16    1
    10    15    17    1
    11     5     6   ar
    12     6     7   ar
    13     7     8    2
    14     7     9   ar
    15     9    10   ar
    16    10    11   ar
    17    11     1   ar
    18    10     4   ar
@<TRIPOS>MOLECULE
*****
 17 18 0 0 0
SMALL
GASTEIGER

@<TRIPOS>ATOM
      1 C          -6.0284  -19.8305   21.0508 C.ar    1  UNL1        0.1418
      2 C          -7.5274  -19.8313   20.9950 C.ar    1  UNL1        0.0371
      3 C          -8.3070  -18.8049   21.7621 C.ar    1  UNL1        0.0059
      4 C          -7.5878  -17.7776   22.5851 C.ar    1  UNL1        0.0324
      5 C          -8.3675  -16.7512   23.3523 C.ar    1  UNL1        0.0033
      6 C          -7.6482  -15.7239   24.1753 C.ar    1  UNL1        0.0795
      7 C          -6.1492  -15.7231   24.2312 C.ar    1  UNL1        0.3456
      8 O          -5.4300  -14.6958   25.0542 O.2     1  UNL1       -0.2445
      9 O          -5.3695  -16.7495   23.4640 O.2     1  UNL1       -0.4209
     10 C          -6.0889  -17.7768   22.6410 C.ar    1  UNL1        0.1514
     11 C          -5.3092  -18.8033   21.8738 C.ar    1  UNL1        0.0744
     12 C          -3.8274  -20.5808   19.8923 C.3     1  UNL1        0.2525
     13 O          -5.2488  -20.8570   20.2837 O.3     1  UNL1       -0.4713
     14 C          -9.8664  -16.7520   23.2964 C.3     1  UNL1        0.0995
     15 N         -10.6427  -17.8222   24.0049 N.3     1  UNL1       -0.2665
     16 C         -10.0177  -18.5735   25.1429 C.3     1  UNL1        0.0899
     17 C         -12.0441  -18.1412   23.5755 C.3     1  UNL1        0.0899
@<TRIPOS>BOND
     1    12    13    1
     2    13     1    1
     3     1     2   ar
     4     2     3   ar
     5     3     4   ar
     6     4     5   ar
     7     5    14    1
     8    14    15    1
     9    15    16    1
    10    15    17    1
    11     5     6   ar
    12     6     7   ar
    13     7     8    2
    14     7     9   ar
    15     9    10   ar
    16    10    11   ar
    17    11     1   ar
    18    10     4   ar
@<TRIPOS>MOLECULE
*****
 17 18 0 0 0
SMALL
GASTEIGER

@<TRIPOS>ATOM
      1 C          -7.1217  -16.2958   23.7916 C.ar    1  UNL1        0.1418
      2 C          -5.6724  -16.0013   24.0416 C.ar    1  UNL1        0.0371
      3 C          -4.6138  -16.8642   23.4213 C.ar    1  UNL1        0.0059
      4 C          -5.0046  -18.0216   22.5509 C.ar    1  UNL1        0.0324
      5 C          -3.9460  -18.8845   21.9305 C.ar    1  UNL1        0.0033
      6 C          -4.3368  -20.0419   21.0602 C.ar    1  UNL1        0.0795
      7 C          -5.7862  -20.3365   20.8101 C.ar    1  UNL1        0.3456
      8 O          -6.1770  -21.4939   19.9397 O.2     1  UNL1       -0.2445
      9 O          -6.8448  -19.4736   21.4304 O.2     1  UNL1       -0.4209
     10 C          -6.4539  -18.3161   22.3008 C.ar    1  UNL1        0.1514
     11 C          -7.5125  -17.4532   22.9212 C.ar    1  UNL1        0.0744
     12 C          -8.3975  -15.4624   25.8958 C.3     1  UNL1        0.2525
     13 O          -8.1803  -15.4329   24.4119 O.3     1  UNL1       -0.4713
     14 C          -2.4966  -18.5900   22.1806 C.3     1  UNL1        0.0995
     15 N          -1.7251  -17.7442   21.2113 N.3     1  UNL1       -0.2665
     16 C          -1.6759  -16.2555   21.3888 C.3     1  UNL1        0.0899
     17 C          -1.0027  -18.3871   20.0647 C.3     1  UNL1        0.0899
@<TRIPOS>BOND
     1    12    13    1
     2    13     1    1
     3     1     2   ar
     4     2     3   ar
     5     3     4   ar
     6     4     5   ar
     7     5    14    1
     8    14    15    1
     9    15    16    1
    10    15    17    1
    11     5     6   ar
    12     6     7   ar
    13     7     8    2
    14     7     9   ar
    15     9    10   ar
    16    10    11   ar
    17    11     1   ar
    18    10     4   ar
@<TRIPOS>MOLECULE
*****
 17 18 0 0 0
SMALL
GASTEIGER

@<TRIPOS>ATOM
      1 C         -12.2991  -17.9449   23.0687 C.ar    1  UNL1        0.1418
      2 C         -11.7666  -16.5596   23.2857 C.ar    1  UNL1        0.0371
      3 C         -10.2951  -16.2942   23.1652 C.ar    1  UNL1        0.0059
      4 C          -9.3563  -17.4142   22.8275 C.ar    1  UNL1        0.0324
      5 C          -7.8849  -17.1489   22.7069 C.ar    1  UNL1        0.0033
      6 C          -6.9460  -18.2689   22.3693 C.ar    1  UNL1        0.0795
      7 C          -7.4785  -19.6543   22.1522 C.ar    1  UNL1        0.3456
      8 O          -6.5396  -20.7743   21.8145 O.2     1  UNL1       -0.2445
      9 O          -8.9499  -19.9197   22.2728 O.2     1  UNL1       -0.4209
     10 C          -9.8888  -18.7996   22.6104 C.ar    1  UNL1        0.1514
     11 C         -11.3602  -19.0649   22.7310 C.ar    1  UNL1        0.0744
     12 C         -14.4062  -18.3093   24.5442 C.3     1  UNL1        0.2525
     13 O         -13.7705  -18.2102   23.1892 O.3     1  UNL1       -0.4713
     14 C          -7.3523  -15.7635   22.9240 C.3     1  UNL1        0.0995
     15 N          -6.5582  -15.4500   24.1573 N.3     1  UNL1       -0.2665
     16 C          -5.0703  -15.2811   24.0685 C.3     1  UNL1        0.0899
     17 C          -7.2519  -15.3053   25.4794 C.3     1  UNL1        0.0899
@<TRIPOS>BOND
     1    12    13    1
     2    13     1    1
     3     1     2   ar
     4     2     3   ar
     5     3     4   ar
     6     4     5   ar
     7     5    14    1
     8    14    15    1
     9    15    16    1
    10    15    17    1
    11     5     6   ar
    12     6     7   ar
    13     7     8    2
    14     7     9   ar
    15     9    10   ar
    16    10    11   ar
    17    11     1   ar
    18    10     4   ar
@<TRIPOS>MOLECULE
*****
 17 18 0 0 0
SMALL
GASTEIGER

@<TRIPOS>ATOM
      1 C          -5.9443  -16.0119   24.1670 C.ar    1  UNL1        0.1418
      2 C          -4.6804  -16.7742   23.9002 C.ar    1  UNL1        0.0371
      3 C          -4.6843  -17.9164   22.9280 C.ar    1  UNL1        0.0059
      4 C          -5.9523  -18.2963   22.2224 C.ar    1  UNL1        0.0324
      5 C          -5.9563  -19.4385   21.2501 C.ar    1  UNL1        0.0033
      6 C          -7.2243  -19.8184   20.5445 C.ar    1  UNL1        0.0795
      7 C          -8.4883  -19.0561   20.8113 C.ar    1  UNL1        0.3456
      8 O          -9.7563  -19.4360   20.1057 O.2     1  UNL1       -0.2445
      9 O          -8.4844  -17.9139   21.7835 O.2     1  UNL1       -0.4209
     10 C          -7.2163  -17.5340   22.4891 C.ar    1  UNL1        0.1514
     11 C          -7.2123  -16.3918   23.4614 C.ar    1  UNL1        0.0744
     12 C          -6.1316  -15.1308   26.6039 C.3     1  UNL1        0.2525
     13 O          -5.9404  -14.8697   25.1393 O.3     1  UNL1       -0.4713
     14 C          -4.6923  -20.2008   20.9834 C.3     1  UNL1        0.0995
     15 N          -3.4919  -19.4923   20.4293 N.3     1  UNL1       -0.2665
     16 C          -2.1463  -19.6891   21.0623 C.3     1  UNL1        0.0899
     17 C          -3.6370  -18.5869   19.2422 C.3     1  UNL1        0.0899
@<TRIPOS>BOND
     1    12    13    1
     2    13     1    1
     3     1     2   ar
     4     2     3   ar
     5     3     4   ar
     6     4     5   ar
     7     5    14    1
     8    14    15    1
     9    15    16    1
    10    15    17    1
    11     5     6   ar
    12     6     7   ar
    13     7     8    2
    14     7     9   ar
    15     9    10   ar
    16    10    11   ar
    17    11     1   ar
    18    10     4   ar
@<TRIPOS>MOLECULE
*****
 17 18 0 0 0
SMALL
GASTEIGER

@<TRIPOS>ATOM
      1 C          -6.5466  -15.7671   23.9428 C.ar    1  UNL1        0.1418
      2 C          -7.9719  -15.5147   23.5492 C.ar    1  UNL1        0.0371
      3 C          -8.6607  -16.4411   22.5914 C.ar    1  UNL1        0.0059
      4 C          -7.9244  -17.6198   22.0273 C.ar    1  UNL1        0.0324
      5 C          -8.6133  -18.5462   21.0696 C.ar    1  UNL1        0.0033
      6 C          -7.8769  -19.7249   20.5054 C.ar    1  UNL1        0.0795
      7 C          -6.4516  -19.9774   20.8990 C.ar    1  UNL1        0.3456
      8 O          -5.7152  -21.1561   20.3349 O.2     1  UNL1       -0.2445
      9 O          -5.7627  -19.0510   21.8568 O.2     1  UNL1       -0.4209
     10 C          -6.4992  -17.8722   22.4209 C.ar    1  UNL1        0.1514
     11 C          -5.8103  -16.9458   23.3786 C.ar    1  UNL1        0.0744
     12 C          -5.7610  -15.2004   26.3535 C.3     1  UNL1        0.2525
     13 O          -5.8577  -14.8407   24.9005 O.3     1  UNL1       -0.4713
     14 C         -10.0385  -18.2938   20.6760 C.3     1  UNL1        0.0995
     15 N         -11.1519  -18.6698   21.6082 N.3     1  UNL1       -0.2665
     16 C         -10.9671  -19.7963   22.5813 C.3     1  UNL1        0.0899
     17 C         -12.4500  -17.9194   21.5673 C.3     1  UNL1        0.0899
@<TRIPOS>BOND
     1    12    13    1
     2    13     1    1
     3     1     2   ar
     4     2     3   ar
     5     3     4   ar
     6     4     5   ar
     7     5    14    1
     8    14    15    1
     9    15    16    1
    10    15    17    1
    11     5     6   ar
    12     6     7   ar
    13     7     8    2
    14     7     9   ar
    15     9    10   ar
    16    10    11   ar
    17    11     1   ar
    18    10     4   ar
@<TRIPOS>MOLECULE
*****
 17 18 0 0 0
SMALL
GASTEIGER

@<TRIPOS>ATOM
      1 C         -12.4466   -5.0085   19.2140 C.ar    1  UNL1        0.1418
      2 C         -13.7221   -4.3233   19.6056 C.ar    1  UNL1        0.0371
      3 C         -15.0146   -5.0845   19.6007 C.ar    1  UNL1        0.0059
      4 C         -15.0315   -6.5310   19.2041 C.ar    1  UNL1        0.0324
      5 C         -16.3240   -7.2923   19.1992 C.ar    1  UNL1        0.0033
      6 C         -16.3409   -8.7388   18.8026 C.ar    1  UNL1        0.0795
      7 C         -15.0653   -9.4241   18.4109 C.ar    1  UNL1        0.3456
      8 O         -15.0823  -10.8706   18.0143 O.2     1  UNL1       -0.2445
      9 O         -13.7729   -8.6628   18.4158 O.2     1  UNL1       -0.4209
     10 C         -13.7560   -7.2162   18.8124 C.ar    1  UNL1        0.1514
     11 C         -12.4635   -6.4550   18.8174 C.ar    1  UNL1        0.0744
     12 C          -9.8518   -4.9797   19.0879 C.3     1  UNL1        0.2525
     13 O         -11.1541   -4.2472   19.2189 O.3     1  UNL1       -0.4713
     14 C         -17.5995   -6.6071   19.5908 C.3     1  UNL1        0.0995
     15 N         -18.9069   -7.3333   19.4759 N.3     1  UNL1       -0.2665
     16 C         -19.4688   -8.0587   20.6627 C.3     1  UNL1        0.0899
     17 C         -19.6525   -7.3343   18.1744 C.3     1  UNL1        0.0899
@<TRIPOS>BOND
     1    12    13    1
     2    13     1    1
     3     1     2   ar
     4     2     3   ar
     5     3     4   ar
     6     4     5   ar
     7     5    14    1
     8    14    15    1
     9    15    16    1
    10    15    17    1
    11     5     6   ar
    12     6     7   ar
    13     7     8    2
    14     7     9   ar
    15     9    10   ar
    16    10    11   ar
    17    11     1   ar
    18    10     4   ar
