@<TRIPOS>MOLECULE
*****
 32 35 0 0 0
SMALL
GASTEIGER

@<TRIPOS>ATOM
      1 C           1.5590    4.0794   18.2467 C.3     1  UNL1        0.0311
      2 C           0.4012    3.1745   18.5482 C.3     1  UNL1        0.1470
      3 C          -0.7708    3.6909   19.3290 C.2     1  UNL1        0.2439
      4 O          -1.2301    5.1067   19.1440 O.2     1  UNL1       -0.2730
      5 N          -1.4835    2.7913   20.2949 N.am    1  UNL1       -0.2814
      6 H          -1.1820    1.8620   20.4164 H       1  UNL1        0.1549
      7 C          -2.6555    3.3077   21.0758 C.ar    1  UNL1        0.0698
      8 C          -4.0409    3.1944   20.5119 C.ar    1  UNL1        0.0178
      9 C          -5.2129    3.7108   21.2928 C.ar    1  UNL1        0.0205
     10 C          -4.9995    4.3404   22.6375 C.ar    1  UNL1        0.0829
     11 N          -3.6141    4.4536   23.2013 N.ar    1  UNL1       -0.2425
     12 C          -2.4421    3.9373   22.4204 C.ar    1  UNL1        0.1134
     13 C          -6.1715    4.8568   23.4183 C.ar    1  UNL1        0.0368
     14 C          -5.9630    5.8793   24.4959 C.ar    1  UNL1        0.0046
     15 C          -7.1350    6.3957   25.2768 C.ar    1  UNL1        0.0207
     16 C          -8.5156    5.8896   24.9800 C.ar    1  UNL1        0.0989
     17 N          -8.7241    4.8672   23.9025 N.ar    1  UNL1       -0.2423
     18 C          -7.5520    4.3508   23.1216 C.ar    1  UNL1        0.1003
     19 N           0.4156    1.7533   18.0688 N.pl3   1  UNL1       -0.3257
     20 H          -0.1303    1.4900   17.2929 H       1  UNL1        0.1472
     21 C           1.2616    0.7332   18.7714 C.ar    1  UNL1        0.0644
     22 C           0.7743    0.1008   20.0413 C.ar    1  UNL1        0.0175
     23 C           1.6203   -0.9192   20.7439 C.ar    1  UNL1        0.0219
     24 C           2.9537   -1.3069   20.1766 C.ar    1  UNL1        0.0987
     25 N           3.4411   -0.6745   18.9068 N.ar    1  UNL1       -0.2410
     26 C           2.5950    0.3455   18.2042 C.ar    1  UNL1        0.1131
     27 C           3.7998   -2.3270   20.8793 C.ar    1  UNL1        0.0971
     28 C           4.1829   -2.3068   22.3294 C.ar    1  UNL1        0.0427
     29 C           5.0311   -3.5136   22.6016 C.ar    1  UNL1        0.1217
     30 N           5.1722   -4.2797   21.3196 N.ar    1  UNL1       -0.1676
     31 N           4.4112   -3.5462   20.2552 N.ar    1  UNL1       -0.2473
     32 C           4.2840   -3.9596   18.8190 C.3     1  UNL1        0.1538
@<TRIPOS>BOND
     1     2     1    1
     2     2    19    1
     3    19    21    1
     4    21    22   ar
     5    22    23   ar
     6    23    24   ar
     7    24    27    1
     8    27    28   ar
     9    28    29   ar
    10    29    30   ar
    11    30    31   ar
    12    31    32    1
    13    24    25   ar
    14    25    26   ar
    15     2     3    1
    16     3     4    2
    17     3     5   am
    18     5     7    1
    19     7     8   ar
    20     8     9   ar
    21     9    10   ar
    22    10    13    1
    23    13    14   ar
    24    14    15   ar
    25    15    16   ar
    26    16    17   ar
    27    17    18   ar
    28    10    11   ar
    29    11    12   ar
    30    26    21   ar
    31    12     7   ar
    32    31    27   ar
    33    18    13   ar
    34    19    20    1
    35     5     6    1
@<TRIPOS>MOLECULE
*****
 32 35 0 0 0
SMALL
GASTEIGER

@<TRIPOS>ATOM
      1 C          -2.2021    5.1042   21.2144 C.3     1  UNL1        0.0311
      2 C          -2.1661    3.6377   20.9010 C.3     1  UNL1        0.1470
      3 C          -0.8621    2.9727   20.5732 C.2     1  UNL1        0.2439
      4 O           0.4216    3.7393   20.6924 O.2     1  UNL1       -0.2730
      5 N          -0.8419    1.5409   20.1263 N.am    1  UNL1       -0.2814
      6 H          -1.6845    1.0377   20.0481 H       1  UNL1        0.1549
      7 C           0.4621    0.8759   19.7985 C.ar    1  UNL1        0.0698
      8 C           1.0902   -0.0681   20.7806 C.ar    1  UNL1        0.0178
      9 C           2.3942   -0.7331   20.4528 C.ar    1  UNL1        0.0205
     10 C           3.0700   -0.4542   19.1430 C.ar    1  UNL1        0.0829
     11 N           2.4418    0.4898   18.1610 N.ar    1  UNL1       -0.2425
     12 C           1.1379    1.1548   18.4888 C.ar    1  UNL1        0.1134
     13 C           4.3740   -1.1192   18.8153 C.ar    1  UNL1        0.0368
     14 C           4.8520   -2.2790   19.6378 C.ar    1  UNL1        0.0046
     15 C           6.1560   -2.9440   19.3101 C.ar    1  UNL1        0.0207
     16 C           6.9819   -2.4492   18.1597 C.ar    1  UNL1        0.0989
     17 N           6.5039   -1.2895   17.3373 N.ar    1  UNL1       -0.2423
     18 C           5.1999   -0.6245   17.6650 C.ar    1  UNL1        0.1003
     19 N          -3.4339    2.8363   20.9153 N.pl3   1  UNL1       -0.3257
     20 H          -3.4777    1.9757   20.4392 H       1  UNL1        0.1472
     21 C          -4.6351    3.3461   21.6552 C.ar    1  UNL1        0.0644
     22 C          -4.6957    3.2405   23.1502 C.ar    1  UNL1        0.0175
     23 C          -5.8969    3.7503   23.8899 C.ar    1  UNL1        0.0219
     24 C          -7.0375    4.3657   23.1346 C.ar    1  UNL1        0.0987
     25 N          -6.9769    4.4712   21.6396 N.ar    1  UNL1       -0.2410
     26 C          -5.7757    3.9614   20.8999 C.ar    1  UNL1        0.1131
     27 C          -8.2387    4.8755   23.8745 C.ar    1  UNL1        0.0971
     28 C          -9.4634    4.0816   24.2206 C.ar    1  UNL1        0.0427
     29 C         -10.4077    4.9840   24.9581 C.ar    1  UNL1        0.1217
     30 N          -9.7666    6.3357   25.0677 N.ar    1  UNL1       -0.1676
     31 N          -8.4261    6.2686   24.3980 N.ar    1  UNL1       -0.2473
     32 C          -7.4452    7.3966   24.2736 C.3     1  UNL1        0.1538
@<TRIPOS>BOND
     1     2     1    1
     2     2    19    1
     3    19    21    1
     4    21    22   ar
     5    22    23   ar
     6    23    24   ar
     7    24    27    1
     8    27    28   ar
     9    28    29   ar
    10    29    30   ar
    11    30    31   ar
    12    31    32    1
    13    24    25   ar
    14    25    26   ar
    15     2     3    1
    16     3     4    2
    17     3     5   am
    18     5     7    1
    19     7     8   ar
    20     8     9   ar
    21     9    10   ar
    22    10    13    1
    23    13    14   ar
    24    14    15   ar
    25    15    16   ar
    26    16    17   ar
    27    17    18   ar
    28    10    11   ar
    29    11    12   ar
    30    26    21   ar
    31    12     7   ar
    32    31    27   ar
    33    18    13   ar
    34    19    20    1
    35     5     6    1
@<TRIPOS>MOLECULE
*****
 32 35 0 0 0
SMALL
GASTEIGER

@<TRIPOS>ATOM
      1 C           6.8370   -1.9809   17.8394 C.3     1  UNL1        0.0311
      2 C           5.6859   -2.6059   18.5706 C.3     1  UNL1        0.1470
      3 C           5.9384   -3.4539   19.7819 C.2     1  UNL1        0.2439
      4 O           5.0669   -4.6425   20.0602 O.2     1  UNL1       -0.2730
      5 N           7.0625   -3.1131   20.7149 N.am    1  UNL1       -0.2814
      6 H           7.6345   -2.3330   20.5322 H       1  UNL1        0.1549
      7 C           7.3150   -3.9611   21.9261 C.ar    1  UNL1        0.0698
      8 C           6.6699   -3.6111   23.2344 C.ar    1  UNL1        0.0178
      9 C           6.9224   -4.4591   24.4457 C.ar    1  UNL1        0.0205
     10 C           7.8200   -5.6570   24.3487 C.ar    1  UNL1        0.0829
     11 N           8.4650   -6.0069   23.0405 N.ar    1  UNL1       -0.2425
     12 C           8.2125   -5.1590   21.8292 C.ar    1  UNL1        0.1134
     13 C           8.0725   -6.5050   25.5600 C.ar    1  UNL1        0.0368
     14 C           8.8743   -7.7669   25.4382 C.ar    1  UNL1        0.0046
     15 C           9.1268   -8.6148   26.6495 C.ar    1  UNL1        0.0207
     16 C           8.5774   -8.2009   27.9825 C.ar    1  UNL1        0.0989
     17 N           7.7756   -6.9391   28.1043 N.ar    1  UNL1       -0.2423
     18 C           7.5231   -6.0912   26.8930 C.ar    1  UNL1        0.1003
     19 N           4.2825   -2.3830   18.0904 N.pl3   1  UNL1       -0.3257
     20 H           3.9231   -2.9250   17.3514 H       1  UNL1        0.1472
     21 C           3.4265   -1.3340   18.7364 C.ar    1  UNL1        0.0644
     22 C           2.7444   -1.6215   20.0410 C.ar    1  UNL1        0.0175
     23 C           1.8885   -0.5726   20.6869 C.ar    1  UNL1        0.0219
     24 C           1.7147    0.7638   20.0281 C.ar    1  UNL1        0.0987
     25 N           2.3968    1.0512   18.7235 N.ar    1  UNL1       -0.2410
     26 C           3.2527    0.0023   18.0776 C.ar    1  UNL1        0.1131
     27 C           0.8587    1.8127   20.6741 C.ar    1  UNL1        0.0971
     28 C          -0.5403    2.1777   20.2748 C.ar    1  UNL1        0.0427
     29 C          -1.0122    3.2713   21.1866 C.ar    1  UNL1        0.1217
     30 N           0.0953    3.5822   22.1494 N.ar    1  UNL1       -0.1676
     31 N           1.2515    2.6807   21.8326 N.ar    1  UNL1       -0.2473
     32 C           2.5693    2.6522   22.5487 C.3     1  UNL1        0.1538
@<TRIPOS>BOND
     1     2     1    1
     2     2    19    1
     3    19    21    1
     4    21    22   ar
     5    22    23   ar
     6    23    24   ar
     7    24    27    1
     8    27    28   ar
     9    28    29   ar
    10    29    30   ar
    11    30    31   ar
    12    31    32    1
    13    24    25   ar
    14    25    26   ar
    15     2     3    1
    16     3     4    2
    17     3     5   am
    18     5     7    1
    19     7     8   ar
    20     8     9   ar
    21     9    10   ar
    22    10    13    1
    23    13    14   ar
    24    14    15   ar
    25    15    16   ar
    26    16    17   ar
    27    17    18   ar
    28    10    11   ar
    29    11    12   ar
    30    26    21   ar
    31    12     7   ar
    32    31    27   ar
    33    18    13   ar
    34    19    20    1
    35     5     6    1
@<TRIPOS>MOLECULE
*****
 32 35 0 0 0
SMALL
GASTEIGER

@<TRIPOS>ATOM
      1 C          -0.2311    5.3583   16.7406 C.3     1  UNL1        0.0311
      2 C          -0.8314    4.5326   17.8397 C.3     1  UNL1        0.1470
      3 C           0.0090    3.5230   18.5639 C.2     1  UNL1        0.2439
      4 O           0.6844    3.8940   19.8508 O.2     1  UNL1       -0.2730
      5 N           0.1739    2.1423   18.0011 N.am    1  UNL1       -0.2814
      6 H          -0.2694    1.8988   17.1565 H       1  UNL1        0.1549
      7 C           1.0143    1.1327   18.7253 C.ar    1  UNL1        0.0698
      8 C           2.3976    0.8196   18.2369 C.ar    1  UNL1        0.0178
      9 C           3.2380   -0.1900   18.9611 C.ar    1  UNL1        0.0205
     10 C           2.6951   -0.8864   20.1737 C.ar    1  UNL1        0.0829
     11 N           1.3119   -0.5733   20.6620 N.ar    1  UNL1       -0.2425
     12 C           0.4715    0.4363   19.9378 C.ar    1  UNL1        0.1134
     13 C           3.5355   -1.8960   20.8979 C.ar    1  UNL1        0.0368
     14 C           3.7589   -1.7646   22.3754 C.ar    1  UNL1        0.0046
     15 C           4.5993   -2.7742   23.0996 C.ar    1  UNL1        0.0207
     16 C           5.2163   -3.9152   22.3462 C.ar    1  UNL1        0.0989
     17 N           4.9929   -4.0466   20.8688 N.ar    1  UNL1       -0.2423
     18 C           4.1525   -3.0370   20.1447 C.ar    1  UNL1        0.1003
     19 N          -2.2721    4.7165   18.2145 N.pl3   1  UNL1       -0.3257
     20 H          -2.9386    4.9245   17.5204 H       1  UNL1        0.1472
     21 C          -2.6974    4.5835   19.6469 C.ar    1  UNL1        0.0644
     22 C          -3.4738    3.3790   20.0899 C.ar    1  UNL1        0.0175
     23 C          -3.8990    3.2460   21.5222 C.ar    1  UNL1        0.0219
     24 C          -3.5477    4.3175   22.5114 C.ar    1  UNL1        0.0987
     25 N          -2.7713    5.5220   22.0684 N.ar    1  UNL1       -0.2410
     26 C          -2.3461    5.6550   20.6361 C.ar    1  UNL1        0.1131
     27 C          -3.9730    4.1844   23.9438 C.ar    1  UNL1        0.0971
     28 C          -3.0870    3.8124   25.0956 C.ar    1  UNL1        0.0427
     29 C          -3.9252    3.7981   26.3394 C.ar    1  UNL1        0.1217
     30 N          -5.3293    4.1613   25.9563 N.ar    1  UNL1       -0.1676
     31 N          -5.3588    4.4000   24.4757 N.ar    1  UNL1       -0.2473
     32 C          -6.5628    4.7865   23.6689 C.3     1  UNL1        0.1538
@<TRIPOS>BOND
     1     2     1    1
     2     2    19    1
     3    19    21    1
     4    21    22   ar
     5    22    23   ar
     6    23    24   ar
     7    24    27    1
     8    27    28   ar
     9    28    29   ar
    10    29    30   ar
    11    30    31   ar
    12    31    32    1
    13    24    25   ar
    14    25    26   ar
    15     2     3    1
    16     3     4    2
    17     3     5   am
    18     5     7    1
    19     7     8   ar
    20     8     9   ar
    21     9    10   ar
    22    10    13    1
    23    13    14   ar
    24    14    15   ar
    25    15    16   ar
    26    16    17   ar
    27    17    18   ar
    28    10    11   ar
    29    11    12   ar
    30    26    21   ar
    31    12     7   ar
    32    31    27   ar
    33    18    13   ar
    34    19    20    1
    35     5     6    1
@<TRIPOS>MOLECULE
*****
 32 35 0 0 0
SMALL
GASTEIGER

@<TRIPOS>ATOM
      1 C          -1.2401    5.1075   18.5379 C.3     1  UNL1        0.0311
      2 C          -1.5108    3.8706   19.3422 C.3     1  UNL1        0.1470
      3 C          -0.3768    2.9763   19.7474 C.2     1  UNL1        0.2439
      4 O           1.0312    3.3348   19.3745 O.2     1  UNL1       -0.2730
      5 N          -0.6507    1.7235   20.5256 N.am    1  UNL1       -0.2814
      6 H          -1.5748    1.4882   20.7703 H       1  UNL1        0.1549
      7 C           0.4833    0.8292   20.9307 C.ar    1  UNL1        0.0698
      8 C           0.9409   -0.2648   20.0120 C.ar    1  UNL1        0.0178
      9 C           2.0750   -1.1590   20.4172 C.ar    1  UNL1        0.0205
     10 C           2.7515   -0.9594   21.7411 C.ar    1  UNL1        0.0829
     11 N           2.2939    0.1345   22.6597 N.ar    1  UNL1       -0.2425
     12 C           1.1598    1.0288   22.2545 C.ar    1  UNL1        0.1134
     13 C           3.8855   -1.8537   22.1463 C.ar    1  UNL1        0.0368
     14 C           4.6387   -2.6281   21.1055 C.ar    1  UNL1        0.0046
     15 C           5.7727   -3.5224   21.5107 C.ar    1  UNL1        0.0207
     16 C           6.1536   -3.6422   22.9566 C.ar    1  UNL1        0.0989
     17 N           5.4005   -2.8678   23.9973 N.ar    1  UNL1       -0.2423
     18 C           4.2664   -1.9736   23.5921 C.ar    1  UNL1        0.1003
     19 N          -2.9156    3.5281   19.7413 N.pl3   1  UNL1       -0.3257
     20 H          -3.5119    3.0743   19.1028 H       1  UNL1        0.1472
     21 C          -3.4117    3.8768   21.1133 C.ar    1  UNL1        0.0644
     22 C          -4.5751    3.1347   21.7012 C.ar    1  UNL1        0.0175
     23 C          -5.0712    3.4834   23.0732 C.ar    1  UNL1        0.0219
     24 C          -4.4039    4.5743   23.8572 C.ar    1  UNL1        0.0987
     25 N          -3.2405    5.3164   23.2693 N.ar    1  UNL1       -0.2410
     26 C          -2.7444    4.9677   21.8973 C.ar    1  UNL1        0.1131
     27 C          -4.9000    4.9230   25.2292 C.ar    1  UNL1        0.0971
     28 C          -6.1375    5.7094   25.5457 C.ar    1  UNL1        0.0427
     29 C          -6.2481    5.8190   27.0376 C.ar    1  UNL1        0.1217
     30 N          -5.0789    5.1003   27.6431 N.ar    1  UNL1       -0.1676
     31 N          -4.2458    4.5466   26.5254 N.ar    1  UNL1       -0.2473
     32 C          -2.9806    3.7554   26.6774 C.3     1  UNL1        0.1538
@<TRIPOS>BOND
     1     2     1    1
     2     2    19    1
     3    19    21    1
     4    21    22   ar
     5    22    23   ar
     6    23    24   ar
     7    24    27    1
     8    27    28   ar
     9    28    29   ar
    10    29    30   ar
    11    30    31   ar
    12    31    32    1
    13    24    25   ar
    14    25    26   ar
    15     2     3    1
    16     3     4    2
    17     3     5   am
    18     5     7    1
    19     7     8   ar
    20     8     9   ar
    21     9    10   ar
    22    10    13    1
    23    13    14   ar
    24    14    15   ar
    25    15    16   ar
    26    16    17   ar
    27    17    18   ar
    28    10    11   ar
    29    11    12   ar
    30    26    21   ar
    31    12     7   ar
    32    31    27   ar
    33    18    13   ar
    34    19    20    1
    35     5     6    1
@<TRIPOS>MOLECULE
*****
 32 35 0 0 0
SMALL
GASTEIGER

@<TRIPOS>ATOM
      1 C           4.6306   -4.5750   19.0054 C.3     1  UNL1        0.0311
      2 C           4.9723   -3.4423   19.9275 C.3     1  UNL1        0.1470
      3 C           5.0820   -3.6840   21.4039 C.2     1  UNL1        0.2439
      4 O           4.0906   -4.5734   22.0939 O.2     1  UNL1       -0.2730
      5 N           6.1830   -3.0363   22.1902 N.am    1  UNL1       -0.2814
      6 H           6.8337   -2.4525   21.7373 H       1  UNL1        0.1549
      7 C           6.2926   -3.2780   23.6665 C.ar    1  UNL1        0.0698
      8 C           6.9263   -4.5389   24.1750 C.ar    1  UNL1        0.0178
      9 C           7.0359   -4.7807   25.6514 C.ar    1  UNL1        0.0205
     10 C           6.5119   -3.7614   26.6192 C.ar    1  UNL1        0.0829
     11 N           5.8783   -2.5005   26.1106 N.ar    1  UNL1       -0.2425
     12 C           5.7686   -2.2588   24.6343 C.ar    1  UNL1        0.1134
     13 C           6.6215   -4.0031   28.0955 C.ar    1  UNL1        0.0368
     14 C           6.5940   -2.8455   29.0491 C.ar    1  UNL1        0.0046
     15 C           6.7036   -3.0872   30.5254 C.ar    1  UNL1        0.0207
     16 C           6.8408   -4.4865   31.0482 C.ar    1  UNL1        0.0989
     17 N           6.8683   -5.6441   30.0946 N.ar    1  UNL1       -0.2423
     18 C           6.7586   -5.4023   28.6183 C.ar    1  UNL1        0.1003
     19 N           5.2044   -2.0679   19.3733 N.pl3   1  UNL1       -0.3257
     20 H           6.0847   -1.8286   19.0032 H       1  UNL1        0.1472
     21 C           4.0951   -1.0582   19.3829 C.ar    1  UNL1        0.0644
     22 C           2.7218   -1.4570   19.8356 C.ar    1  UNL1        0.0175
     23 C           1.6126   -0.4472   19.8451 C.ar    1  UNL1        0.0219
     24 C           1.8768    0.9612   19.4019 C.ar    1  UNL1        0.0987
     25 N           3.2500    1.3600   18.9492 N.ar    1  UNL1       -0.2410
     26 C           4.3592    0.3503   18.9397 C.ar    1  UNL1        0.1131
     27 C           0.7675    1.9710   19.4115 C.ar    1  UNL1        0.0971
     28 C           0.2094    2.6791   18.2127 C.ar    1  UNL1        0.0427
     29 C          -0.8814    3.5956   18.6817 C.ar    1  UNL1        0.1217
     30 N          -0.9975    3.4539   20.1706 N.ar    1  UNL1       -0.1676
     31 N           0.0215    2.4499   20.6215 N.ar    1  UNL1       -0.2473
     32 C           0.2538    2.0032   22.0345 C.3     1  UNL1        0.1538
@<TRIPOS>BOND
     1     2     1    1
     2     2    19    1
     3    19    21    1
     4    21    22   ar
     5    22    23   ar
     6    23    24   ar
     7    24    27    1
     8    27    28   ar
     9    28    29   ar
    10    29    30   ar
    11    30    31   ar
    12    31    32    1
    13    24    25   ar
    14    25    26   ar
    15     2     3    1
    16     3     4    2
    17     3     5   am
    18     5     7    1
    19     7     8   ar
    20     8     9   ar
    21     9    10   ar
    22    10    13    1
    23    13    14   ar
    24    14    15   ar
    25    15    16   ar
    26    16    17   ar
    27    17    18   ar
    28    10    11   ar
    29    11    12   ar
    30    26    21   ar
    31    12     7   ar
    32    31    27   ar
    33    18    13   ar
    34    19    20    1
    35     5     6    1
@<TRIPOS>MOLECULE
*****
 32 35 0 0 0
SMALL
GASTEIGER

@<TRIPOS>ATOM
      1 C           1.8899    3.9775   18.2387 C.3     1  UNL1        0.0311
      2 C           0.8406    3.0973   18.8504 C.3     1  UNL1        0.1470
      3 C          -0.0458    3.6307   19.9366 C.2     1  UNL1        0.2439
      4 O          -0.0386    5.0957   20.2586 O.2     1  UNL1       -0.2730
      5 N          -0.9393    2.6991   20.7008 N.am    1  UNL1       -0.2814
      6 H          -0.9439    1.7376   20.4894 H       1  UNL1        0.1549
      7 C          -1.8256    3.2326   21.7869 C.ar    1  UNL1        0.0698
      8 C          -1.2889    3.4022   23.1774 C.ar    1  UNL1        0.0178
      9 C          -2.1753    3.9356   24.2635 C.ar    1  UNL1        0.0205
     10 C          -3.5984    4.2995   23.9593 C.ar    1  UNL1        0.0829
     11 N          -4.1350    4.1300   22.5689 N.ar    1  UNL1       -0.2425
     12 C          -3.2486    3.5965   21.4827 C.ar    1  UNL1        0.1134
     13 C          -4.4848    4.8330   25.0454 C.ar    1  UNL1        0.0368
     14 C          -5.7156    5.6146   24.6929 C.ar    1  UNL1        0.0046
     15 C          -6.6020    6.1481   25.7790 C.ar    1  UNL1        0.0207
     16 C          -6.2575    5.8999   27.2178 C.ar    1  UNL1        0.0989
     17 N          -5.0267    5.1184   27.5702 N.ar    1  UNL1       -0.2423
     18 C          -4.1404    4.5849   26.4841 C.ar    1  UNL1        0.1003
     19 N           0.6777    1.6836   18.3761 N.pl3   1  UNL1       -0.3257
     20 H          -0.0886    1.4403   17.8079 H       1  UNL1        0.1472
     21 C           1.6824    0.6407   18.7673 C.ar    1  UNL1        0.0644
     22 C           2.8892    0.4024   17.9089 C.ar    1  UNL1        0.0175
     23 C           3.8938   -0.6404   18.3002 C.ar    1  UNL1        0.0219
     24 C           3.6916   -1.4450   19.5499 C.ar    1  UNL1        0.0987
     25 N           2.4849   -1.2068   20.4083 N.ar    1  UNL1       -0.2410
     26 C           1.4803   -0.1639   20.0170 C.ar    1  UNL1        0.1131
     27 C           4.6963   -2.4880   19.9411 C.ar    1  UNL1        0.0971
     28 C           6.0187   -2.2342   20.6020 C.ar    1  UNL1        0.0427
     29 C           6.6947   -3.5570   20.8096 C.ar    1  UNL1        0.1217
     30 N           5.7899   -4.6284   20.2769 N.ar    1  UNL1       -0.1676
     31 N           4.5549   -3.9677   19.7402 N.ar    1  UNL1       -0.2473
     32 C           3.3841   -4.6644   19.1128 C.3     1  UNL1        0.1538
@<TRIPOS>BOND
     1     2     1    1
     2     2    19    1
     3    19    21    1
     4    21    22   ar
     5    22    23   ar
     6    23    24   ar
     7    24    27    1
     8    27    28   ar
     9    28    29   ar
    10    29    30   ar
    11    30    31   ar
    12    31    32    1
    13    24    25   ar
    14    25    26   ar
    15     2     3    1
    16     3     4    2
    17     3     5   am
    18     5     7    1
    19     7     8   ar
    20     8     9   ar
    21     9    10   ar
    22    10    13    1
    23    13    14   ar
    24    14    15   ar
    25    15    16   ar
    26    16    17   ar
    27    17    18   ar
    28    10    11   ar
    29    11    12   ar
    30    26    21   ar
    31    12     7   ar
    32    31    27   ar
    33    18    13   ar
    34    19    20    1
    35     5     6    1
@<TRIPOS>MOLECULE
*****
 32 35 0 0 0
SMALL
GASTEIGER

@<TRIPOS>ATOM
      1 C          -1.7684    3.3214   21.8253 C.3     1  UNL1        0.0311
      2 C          -0.3282    2.9743   22.0612 C.3     1  UNL1        0.1470
      3 C           0.1785    2.7865   23.4604 C.2     1  UNL1        0.2439
      4 O           0.7894    3.9409   24.1981 O.2     1  UNL1       -0.2730
      5 N           0.0743    1.4443   24.1221 N.am    1  UNL1       -0.2814
      6 H          -0.3267    0.6866   23.6379 H       1  UNL1        0.1549
      7 C           0.5810    1.2566   25.5214 C.ar    1  UNL1        0.0698
      8 C          -0.3560    1.4004   26.6839 C.ar    1  UNL1        0.0178
      9 C           0.1507    1.2126   28.0832 C.ar    1  UNL1        0.0205
     10 C           1.5944    0.8811   28.3199 C.ar    1  UNL1        0.0829
     11 N           2.5313    0.7374   27.1574 N.ar    1  UNL1       -0.2425
     12 C           2.0246    0.9251   25.7581 C.ar    1  UNL1        0.1134
     13 C           2.1011    0.6934   29.7192 C.ar    1  UNL1        0.0368
     14 C           1.7386    1.6824   30.7872 C.ar    1  UNL1        0.0046
     15 C           2.2453    1.4947   32.1865 C.ar    1  UNL1        0.0207
     16 C           3.1145    0.3179   32.5178 C.ar    1  UNL1        0.0989
     17 N           3.4770   -0.6710   31.4499 N.ar    1  UNL1       -0.2423
     18 C           2.9703   -0.4833   30.0506 C.ar    1  UNL1        0.1003
     19 N           0.6051    2.8149   20.8978 N.pl3   1  UNL1       -0.3257
     20 H           0.7169    3.5496   20.2521 H       1  UNL1        0.1472
     21 C           1.3682    1.5360   20.7182 C.ar    1  UNL1        0.0644
     22 C           0.6416    0.2727   20.3630 C.ar    1  UNL1        0.0175
     23 C           1.4047   -1.0061   20.1834 C.ar    1  UNL1        0.0219
     24 C           2.8943   -1.0217   20.3589 C.ar    1  UNL1        0.0987
     25 N           3.6208    0.2416   20.7141 N.ar    1  UNL1       -0.2410
     26 C           2.8578    1.5204   20.8937 C.ar    1  UNL1        0.1131
     27 C           3.6574   -2.3006   20.1793 C.ar    1  UNL1        0.0971
     28 C           3.8803   -3.0194   18.8817 C.ar    1  UNL1        0.0427
     29 C           4.6921   -4.2483   19.1661 C.ar    1  UNL1        0.1217
     30 N           4.9710   -4.2888   20.6395 N.ar    1  UNL1       -0.1676
     31 N           4.3314   -3.0851   21.2656 N.ar    1  UNL1       -0.2473
     32 C           4.3608   -2.7286   22.7223 C.3     1  UNL1        0.1538
@<TRIPOS>BOND
     1     2     1    1
     2     2    19    1
     3    19    21    1
     4    21    22   ar
     5    22    23   ar
     6    23    24   ar
     7    24    27    1
     8    27    28   ar
     9    28    29   ar
    10    29    30   ar
    11    30    31   ar
    12    31    32    1
    13    24    25   ar
    14    25    26   ar
    15     2     3    1
    16     3     4    2
    17     3     5   am
    18     5     7    1
    19     7     8   ar
    20     8     9   ar
    21     9    10   ar
    22    10    13    1
    23    13    14   ar
    24    14    15   ar
    25    15    16   ar
    26    16    17   ar
    27    17    18   ar
    28    10    11   ar
    29    11    12   ar
    30    26    21   ar
    31    12     7   ar
    32    31    27   ar
    33    18    13   ar
    34    19    20    1
    35     5     6    1
@<TRIPOS>MOLECULE
*****
 32 35 0 0 0
SMALL
GASTEIGER

@<TRIPOS>ATOM
      1 C           0.1655    4.2847   18.5724 C.3     1  UNL1        0.0311
      2 C           0.4679    2.9821   19.2521 C.3     1  UNL1        0.1470
      3 C           0.6201    2.9320   20.7435 C.2     1  UNL1        0.2439
      4 O           1.8212    3.5494   21.3961 O.2     1  UNL1       -0.2730
      5 N          -0.4291    2.2643   21.5823 N.am    1  UNL1       -0.2814
      6 H          -1.2175    1.8590   21.1540 H       1  UNL1        0.1549
      7 C          -0.2769    2.2141   23.0738 C.ar    1  UNL1        0.0698
      8 C          -1.0682    3.1486   23.9402 C.ar    1  UNL1        0.0178
      9 C          -0.9160    3.0985   25.4317 C.ar    1  UNL1        0.0205
     10 C           0.0273    2.1137   26.0566 C.ar    1  UNL1        0.0829
     11 N           0.8185    1.1793   25.1902 N.ar    1  UNL1       -0.2425
     12 C           0.6663    1.2294   23.6987 C.ar    1  UNL1        0.1134
     13 C           0.1794    2.0635   27.5480 C.ar    1  UNL1        0.0368
     14 C           0.5732    3.2981   28.3037 C.ar    1  UNL1        0.0046
     15 C           0.7253    3.2479   29.7951 C.ar    1  UNL1        0.0207
     16 C           0.4837    1.9632   30.5309 C.ar    1  UNL1        0.0989
     17 N           0.0900    0.7288   29.7752 N.ar    1  UNL1       -0.2423
     18 C          -0.0622    0.7789   28.2838 C.ar    1  UNL1        0.1003
     19 N           0.6182    1.7298   18.4403 N.pl3   1  UNL1       -0.3257
     20 H           0.0345    1.5740   17.6630 H       1  UNL1        0.1472
     21 C           1.6579    0.7147   18.8128 C.ar    1  UNL1        0.0644
     22 C           1.3376   -0.3535   19.8160 C.ar    1  UNL1        0.0175
     23 C           2.3773   -1.3685   20.1885 C.ar    1  UNL1        0.0219
     24 C           3.7372   -1.3153   19.5579 C.ar    1  UNL1        0.0987
     25 N           4.0575   -0.2471   18.5547 N.ar    1  UNL1       -0.2410
     26 C           3.0179    0.7679   18.1822 C.ar    1  UNL1        0.1131
     27 C           4.7769   -2.3304   19.9304 C.ar    1  UNL1        0.0971
     28 C           6.1163   -2.0380   20.5391 C.ar    1  UNL1        0.0427
     29 C           6.8270   -3.3429   20.7446 C.ar    1  UNL1        0.1217
     30 N           5.9267   -4.4418   20.2629 N.ar    1  UNL1       -0.1676
     31 N           4.6597   -3.8160   19.7597 N.ar    1  UNL1       -0.2473
     32 C           3.4823   -4.5475   19.1865 C.3     1  UNL1        0.1538
@<TRIPOS>BOND
     1     2     1    1
     2     2    19    1
     3    19    21    1
     4    21    22   ar
     5    22    23   ar
     6    23    24   ar
     7    24    27    1
     8    27    28   ar
     9    28    29   ar
    10    29    30   ar
    11    30    31   ar
    12    31    32    1
    13    24    25   ar
    14    25    26   ar
    15     2     3    1
    16     3     4    2
    17     3     5   am
    18     5     7    1
    19     7     8   ar
    20     8     9   ar
    21     9    10   ar
    22    10    13    1
    23    13    14   ar
    24    14    15   ar
    25    15    16   ar
    26    16    17   ar
    27    17    18   ar
    28    10    11   ar
    29    11    12   ar
    30    26    21   ar
    31    12     7   ar
    32    31    27   ar
    33    18    13   ar
    34    19    20    1
    35     5     6    1
