@<TRIPOS>MOLECULE
*****
 34 37 0 0 0
SMALL
GASTEIGER

@<TRIPOS>ATOM
      1 N          -9.7038  -19.2301   20.5156 N.3     1  UNL1       -0.2724
      2 C          -9.0692  -19.4697   19.1777 C.3     1  UNL1        0.0721
      3 C          -7.6566  -19.9676   19.0961 C.3     1  UNL1        0.0177
      4 C          -6.8786  -20.2259   20.3522 C.3     1  UNL1        0.0071
      5 C          -7.5132  -19.9863   21.6901 C.3     1  UNL1        0.0177
      6 C          -8.9258  -19.4884   21.7718 C.3     1  UNL1        0.0721
      7 C         -11.1164  -18.7322   20.5973 C.3     1  UNL1        0.0768
      8 C         -11.4827  -17.6759   21.5972 C.3     1  UNL1        0.0437
      9 O          -7.9275  -14.5265   24.1843 O.2     1  UNL1       -0.2886
     10 C          -8.3057  -15.6087   25.1517 C.2     1  UNL1        0.2063
     11 C          -9.2891  -16.6666   24.7468 C.ar    1  UNL1        0.0709
     12 C          -9.8942  -16.6423   23.3745 C.ar    1  UNL1        0.0017
     13 C         -10.8775  -17.7001   22.9696 C.ar    1  UNL1       -0.0205
     14 C         -11.2558  -18.7823   23.9370 C.ar    1  UNL1       -0.0011
     15 C         -10.6507  -18.8066   25.3093 C.ar    1  UNL1        0.0367
     16 C          -9.6674  -17.7487   25.7142 C.ar    1  UNL1        0.1414
     17 O          -9.0622  -17.7730   27.0865 O.3     1  UNL1       -0.4723
     18 C          -8.0789  -16.7152   27.4914 C.3     1  UNL1        0.2424
     19 C          -7.7007  -15.6330   26.5240 C.3     1  UNL1        0.2162
     20 O          -6.7173  -14.5751   26.9290 O.3     1  UNL1       -0.3741
     21 H          -6.4255  -14.7366   27.8399 H       1  UNL1        0.2110
     22 C          -5.4660  -20.7237   20.2705 C.3     1  UNL1        0.0265
     23 C          -4.3242  -19.7523   20.3221 C.ar    1  UNL1       -0.0191
     24 C          -3.3468  -19.6827   19.1865 C.ar    1  UNL1       -0.0036
     25 C          -2.2050  -18.7113   19.2381 C.ar    1  UNL1        0.0094
     26 C          -2.0407  -17.8094   20.4253 C.ar    1  UNL1        0.0684
     27 BR         -0.8989  -16.8380   20.4769 Br      1  UNL1       -0.0458
     28 C          -3.0181  -17.8789   21.5610 C.ar    1  UNL1        0.1445
     29 C          -4.1599  -18.8504   21.5094 C.ar    1  UNL1        0.0331
     30 O          -2.8538  -16.9771   22.7483 O.3     1  UNL1       -0.4723
     31 C          -3.8127  -17.0686   23.8980 C.3     1  UNL1        0.2370
     32 C          -4.9840  -16.1346   23.9741 C.3     1  UNL1        0.1847
     33 O          -4.9453  -14.8225   23.2483 O.3     1  UNL1       -0.3784
     34 H          -4.2610  -14.2569   23.6392 H       1  UNL1        0.2106
@<TRIPOS>BOND
     1     9    10    2
     2    10    11    1
     3    11    12   ar
     4    12    13   ar
     5    13     8    1
     6     8     7    1
     7     7     1    1
     8     1     2    1
     9     2     3    1
    10     3     4    1
    11     4    22    1
    12    22    23    1
    13    23    24   ar
    14    24    25   ar
    15    25    26   ar
    16    26    27    1
    17    26    28   ar
    18    28    30    1
    19    30    31    1
    20    31    32    1
    21    32    33    1
    22    28    29   ar
    23     4     5    1
    24     5     6    1
    25    13    14   ar
    26    14    15   ar
    27    15    16   ar
    28    16    17    1
    29    17    18    1
    30    18    19    1
    31    19    20    1
    32    19    10    1
    33    16    11   ar
    34     6     1    1
    35    29    23   ar
    36    33    34    1
    37    20    21    1
@<TRIPOS>MOLECULE
*****
 34 37 0 0 0
SMALL
GASTEIGER

@<TRIPOS>ATOM
      1 N          -6.2452  -15.5759   25.6883 N.3     1  UNL1       -0.2724
      2 C          -5.9690  -15.4754   24.2174 C.3     1  UNL1        0.0721
      3 C          -4.7864  -16.1840   23.6263 C.3     1  UNL1        0.0177
      4 C          -3.8801  -16.9930   24.5060 C.3     1  UNL1        0.0071
      5 C          -4.1563  -17.0935   25.9770 C.3     1  UNL1        0.0177
      6 C          -5.3388  -16.3850   26.5681 C.3     1  UNL1        0.0721
      7 C          -7.4278  -14.8674   26.2795 C.3     1  UNL1        0.0768
      8 C          -8.6965  -15.6212   26.5481 C.3     1  UNL1        0.0437
      9 O          -9.6841  -15.6995   21.2313 O.2     1  UNL1       -0.2886
     10 C          -9.9679  -17.0863   21.7276 C.2     1  UNL1        0.2063
     11 C          -9.7919  -17.4134   23.1810 C.ar    1  UNL1        0.0709
     12 C          -9.3322  -16.3538   24.1379 C.ar    1  UNL1        0.0017
     13 C          -9.1562  -16.6809   25.5911 C.ar    1  UNL1       -0.0205
     14 C          -9.4400  -18.0677   26.0875 C.ar    1  UNL1       -0.0011
     15 C          -9.8998  -19.1273   25.1305 C.ar    1  UNL1        0.0367
     16 C         -10.0757  -18.8002   23.6773 C.ar    1  UNL1        0.1414
     17 O         -10.5355  -19.8598   22.7203 O.3     1  UNL1       -0.4723
     18 C         -10.7114  -19.5327   21.2670 C.3     1  UNL1        0.2424
     19 C         -10.4276  -18.1459   20.7707 C.3     1  UNL1        0.2162
     20 O         -10.6036  -17.8188   19.3173 O.3     1  UNL1       -0.3741
     21 H         -10.9033  -18.6095   18.8420 H       1  UNL1        0.2110
     22 C          -2.6975  -17.7016   23.9149 C.3     1  UNL1        0.0265
     23 C          -2.5225  -17.7550   22.4261 C.ar    1  UNL1       -0.0191
     24 C          -1.6444  -16.7526   21.7377 C.ar    1  UNL1       -0.0036
     25 C          -1.4693  -16.8061   20.2489 C.ar    1  UNL1        0.0094
     26 C          -2.1723  -17.8620   19.4485 C.ar    1  UNL1        0.0684
     27 BR         -1.9973  -17.9155   17.9597 Br      1  UNL1       -0.0458
     28 C          -3.0505  -18.8645   20.1369 C.ar    1  UNL1        0.1445
     29 C          -3.2256  -18.8111   21.6257 C.ar    1  UNL1        0.0331
     30 O          -3.7535  -19.9205   19.3365 O.3     1  UNL1       -0.4723
     31 C          -4.8886  -20.6904   19.9438 C.3     1  UNL1        0.2370
     32 C          -6.2051  -20.0154   20.1914 C.3     1  UNL1        0.1847
     33 O          -6.3915  -18.5749   19.8172 O.3     1  UNL1       -0.3784
     34 H          -5.8185  -18.0206   20.3697 H       1  UNL1        0.2106
@<TRIPOS>BOND
     1     9    10    2
     2    10    11    1
     3    11    12   ar
     4    12    13   ar
     5    13     8    1
     6     8     7    1
     7     7     1    1
     8     1     2    1
     9     2     3    1
    10     3     4    1
    11     4    22    1
    12    22    23    1
    13    23    24   ar
    14    24    25   ar
    15    25    26   ar
    16    26    27    1
    17    26    28   ar
    18    28    30    1
    19    30    31    1
    20    31    32    1
    21    32    33    1
    22    28    29   ar
    23     4     5    1
    24     5     6    1
    25    13    14   ar
    26    14    15   ar
    27    15    16   ar
    28    16    17    1
    29    17    18    1
    30    18    19    1
    31    19    20    1
    32    19    10    1
    33    16    11   ar
    34     6     1    1
    35    29    23   ar
    36    33    34    1
    37    20    21    1
@<TRIPOS>MOLECULE
*****
 34 37 0 0 0
SMALL
GASTEIGER

@<TRIPOS>ATOM
      1 N         -10.4347  -18.4975   20.2078 N.3     1  UNL1       -0.2724
      2 C         -10.1999  -19.5512   19.1663 C.3     1  UNL1        0.0721
      3 C          -8.8510  -20.1957   19.0423 C.3     1  UNL1        0.0177
      4 C          -7.7371  -19.7866   19.9598 C.3     1  UNL1        0.0071
      5 C          -7.9720  -18.7330   21.0013 C.3     1  UNL1        0.0177
      6 C          -9.3207  -18.0885   21.1253 C.3     1  UNL1        0.0721
      7 C         -11.7835  -17.8530   20.3318 C.3     1  UNL1        0.0768
      8 C         -12.1152  -17.0350   21.5446 C.3     1  UNL1        0.0437
      9 O          -8.1460  -14.3876   24.0916 O.2     1  UNL1       -0.2886
     10 C          -8.4770  -15.5701   24.9531 C.2     1  UNL1        0.2063
     11 C          -9.5520  -16.5276   24.5316 C.ar    1  UNL1        0.0709
     12 C         -10.2961  -16.3026   23.2488 C.ar    1  UNL1        0.0017
     13 C         -11.3711  -17.2601   22.8275 C.ar    1  UNL1       -0.0205
     14 C         -11.7020  -18.4426   23.6889 C.ar    1  UNL1       -0.0011
     15 C         -10.9579  -18.6676   24.9718 C.ar    1  UNL1        0.0367
     16 C          -9.8829  -17.7101   25.3931 C.ar    1  UNL1        0.1414
     17 O          -9.1388  -17.9352   26.6760 O.3     1  UNL1       -0.4723
     18 C          -8.0638  -16.9777   27.0974 C.3     1  UNL1        0.2424
     19 C          -7.7329  -15.7952   26.2359 C.3     1  UNL1        0.2162
     20 O          -6.6578  -14.8377   26.6573 O.3     1  UNL1       -0.3741
     21 H          -6.2807  -15.1267   27.5029 H       1  UNL1        0.2110
     22 C          -6.3884  -20.4311   19.8357 C.3     1  UNL1        0.0265
     23 C          -5.2183  -19.8733   20.5906 C.ar    1  UNL1       -0.0191
     24 C          -5.4027  -19.3612   21.9883 C.ar    1  UNL1       -0.0036
     25 C          -4.2327  -18.8034   22.7432 C.ar    1  UNL1        0.0094
     26 C          -2.8782  -18.7578   22.1004 C.ar    1  UNL1        0.0684
     27 BR         -1.7081  -18.2000   22.8552 Br      1  UNL1       -0.0458
     28 C          -2.6938  -19.2699   20.7026 C.ar    1  UNL1        0.1445
     29 C          -3.8638  -19.8277   19.9477 C.ar    1  UNL1        0.0331
     30 O          -1.3393  -19.2242   20.0597 O.3     1  UNL1       -0.4723
     31 C          -0.8478  -17.9518   19.4358 C.3     1  UNL1        0.2370
     32 C           0.4252  -17.3224   19.9190 C.3     1  UNL1        0.1847
     33 O           1.3263  -18.0746   20.8529 O.3     1  UNL1       -0.3784
     34 H           0.8764  -18.2036   21.7025 H       1  UNL1        0.2106
@<TRIPOS>BOND
     1     9    10    2
     2    10    11    1
     3    11    12   ar
     4    12    13   ar
     5    13     8    1
     6     8     7    1
     7     7     1    1
     8     1     2    1
     9     2     3    1
    10     3     4    1
    11     4    22    1
    12    22    23    1
    13    23    24   ar
    14    24    25   ar
    15    25    26   ar
    16    26    27    1
    17    26    28   ar
    18    28    30    1
    19    30    31    1
    20    31    32    1
    21    32    33    1
    22    28    29   ar
    23     4     5    1
    24     5     6    1
    25    13    14   ar
    26    14    15   ar
    27    15    16   ar
    28    16    17    1
    29    17    18    1
    30    18    19    1
    31    19    20    1
    32    19    10    1
    33    16    11   ar
    34     6     1    1
    35    29    23   ar
    36    33    34    1
    37    20    21    1
@<TRIPOS>MOLECULE
*****
 34 37 0 0 0
SMALL
GASTEIGER

@<TRIPOS>ATOM
      1 N           5.5650   -3.9676   20.5384 N.3     1  UNL1       -0.2724
      2 C           4.6543   -3.8540   21.7249 C.3     1  UNL1        0.0721
      3 C           5.2281   -3.8219   23.1105 C.3     1  UNL1        0.0177
      4 C           6.7125   -3.9035   23.3095 C.3     1  UNL1        0.0071
      5 C           7.6233   -4.0171   22.1231 C.3     1  UNL1        0.0177
      6 C           7.0495   -4.0492   20.7375 C.3     1  UNL1        0.0721
      7 C           4.9912   -3.9997   19.1529 C.3     1  UNL1        0.0768
      8 C           5.4143   -2.9754   18.1420 C.3     1  UNL1        0.0437
      9 O           0.8645   -0.8918   20.1935 O.2     1  UNL1       -0.2886
     10 C           1.5996    0.2539   19.5634 C.2     1  UNL1        0.2063
     11 C           2.9208    0.0194   18.8930 C.ar    1  UNL1        0.0709
     12 C           3.5069   -1.3608   18.8527 C.ar    1  UNL1        0.0017
     13 C           4.8281   -1.5952   18.1823 C.ar    1  UNL1       -0.0205
     14 C           5.5632   -0.4495   17.5523 C.ar    1  UNL1       -0.0011
     15 C           4.9771    0.9306   17.5926 C.ar    1  UNL1        0.0367
     16 C           3.6559    1.1650   18.2629 C.ar    1  UNL1        0.1414
     17 O           3.0698    2.5452   18.3032 O.3     1  UNL1       -0.4723
     18 C           1.7486    2.7797   18.9736 C.3     1  UNL1        0.2424
     19 C           1.0135    1.6340   19.6037 C.3     1  UNL1        0.2162
     20 O          -0.3078    1.8685   20.2741 O.3     1  UNL1       -0.3741
     21 H          -0.5401    2.8081   20.2110 H       1  UNL1        0.2110
     22 C           7.2863   -3.8714   24.6951 C.3     1  UNL1        0.0265
     23 C           7.5632   -5.1539   25.4221 C.ar    1  UNL1       -0.0191
     24 C           7.9248   -6.3894   24.6522 C.ar    1  UNL1       -0.0036
     25 C           8.2017   -7.6719   25.3792 C.ar    1  UNL1        0.0094
     26 C           8.1169   -7.7189   26.8761 C.ar    1  UNL1        0.0684
     27 BR          8.3938   -9.0014   27.6031 Br      1  UNL1       -0.0458
     28 C           7.7553   -6.4833   27.6460 C.ar    1  UNL1        0.1445
     29 C           7.4784   -5.2008   26.9190 C.ar    1  UNL1        0.0331
     30 O           7.6706   -6.5303   29.1428 O.3     1  UNL1       -0.4723
     31 C           7.1303   -5.3540   29.9007 C.3     1  UNL1        0.2370
     32 C           7.2852   -5.2867   31.3912 C.3     1  UNL1        0.1847
     33 O           6.5171   -6.2303   32.2685 O.3     1  UNL1       -0.3784
     34 H           5.5687   -6.0403   32.1951 H       1  UNL1        0.2106
@<TRIPOS>BOND
     1     9    10    2
     2    10    11    1
     3    11    12   ar
     4    12    13   ar
     5    13     8    1
     6     8     7    1
     7     7     1    1
     8     1     2    1
     9     2     3    1
    10     3     4    1
    11     4    22    1
    12    22    23    1
    13    23    24   ar
    14    24    25   ar
    15    25    26   ar
    16    26    27    1
    17    26    28   ar
    18    28    30    1
    19    30    31    1
    20    31    32    1
    21    32    33    1
    22    28    29   ar
    23     4     5    1
    24     5     6    1
    25    13    14   ar
    26    14    15   ar
    27    15    16   ar
    28    16    17    1
    29    17    18    1
    30    18    19    1
    31    19    20    1
    32    19    10    1
    33    16    11   ar
    34     6     1    1
    35    29    23   ar
    36    33    34    1
    37    20    21    1
@<TRIPOS>MOLECULE
*****
 34 37 0 0 0
SMALL
GASTEIGER

@<TRIPOS>ATOM
      1 N           0.2226    2.4163   23.2739 N.3     1  UNL1       -0.2724
      2 C           1.1352    1.2261   23.2524 C.3     1  UNL1        0.0721
      3 C           1.3924    0.5014   21.9644 C.3     1  UNL1        0.0177
      4 C           0.7370    0.9668   20.6981 C.3     1  UNL1        0.0071
      5 C          -0.1757    2.1571   20.7196 C.3     1  UNL1        0.0177
      6 C          -0.4329    2.8818   22.0074 C.3     1  UNL1        0.0721
      7 C          -0.0346    3.1410   24.5617 C.3     1  UNL1        0.0768
      8 C          -1.0863    2.6405   25.5069 C.3     1  UNL1        0.0437
      9 O          -4.9142    3.2327   21.7324 O.2     1  UNL1       -0.2886
     10 C          -5.4624    3.8553   22.9822 C.2     1  UNL1        0.2063
     11 C          -4.6424    3.8629   24.2383 C.ar    1  UNL1        0.0709
     12 C          -3.2743    3.2479   24.2446 C.ar    1  UNL1        0.0017
     13 C          -2.4544    3.2555   25.5006 C.ar    1  UNL1       -0.0205
     14 C          -3.0026    3.8781   26.7503 C.ar    1  UNL1       -0.0011
     15 C          -4.3707    4.4931   26.7441 C.ar    1  UNL1        0.0367
     16 C          -5.1906    4.4855   25.4880 C.ar    1  UNL1        0.1414
     17 O          -6.5588    5.1005   25.4817 O.3     1  UNL1       -0.4723
     18 C          -7.3787    5.0929   24.2257 C.3     1  UNL1        0.2424
     19 C          -6.8305    4.4703   22.9759 C.3     1  UNL1        0.2162
     20 O          -7.6505    4.4627   21.7198 O.3     1  UNL1       -0.3741
     21 H          -8.5017    4.8967   21.8868 H       1  UNL1        0.2110
     22 C           0.9942    0.2421   19.4103 C.3     1  UNL1        0.0265
     23 C           2.3303   -0.3922   19.1605 C.ar    1  UNL1       -0.0191
     24 C           3.3425    0.3050   18.3006 C.ar    1  UNL1       -0.0036
     25 C           4.6787   -0.3293   18.0508 C.ar    1  UNL1        0.0094
     26 C           5.0027   -1.6607   18.6609 C.ar    1  UNL1        0.0684
     27 BR          6.3388   -2.2950   18.4112 Br      1  UNL1       -0.0458
     28 C           3.9905   -2.3579   19.5209 C.ar    1  UNL1        0.1445
     29 C           2.6543   -1.7237   19.7706 C.ar    1  UNL1        0.0331
     30 O           4.3144   -3.6894   20.1310 O.3     1  UNL1       -0.4723
     31 C           4.6512   -3.7839   21.5896 C.3     1  UNL1        0.2370
     32 C           6.0696   -3.6077   22.0448 C.3     1  UNL1        0.1847
     33 O           6.7879   -4.7402   22.7166 O.3     1  UNL1       -0.3784
     34 H           6.3662   -4.9301   23.5693 H       1  UNL1        0.2106
@<TRIPOS>BOND
     1     9    10    2
     2    10    11    1
     3    11    12   ar
     4    12    13   ar
     5    13     8    1
     6     8     7    1
     7     7     1    1
     8     1     2    1
     9     2     3    1
    10     3     4    1
    11     4    22    1
    12    22    23    1
    13    23    24   ar
    14    24    25   ar
    15    25    26   ar
    16    26    27    1
    17    26    28   ar
    18    28    30    1
    19    30    31    1
    20    31    32    1
    21    32    33    1
    22    28    29   ar
    23     4     5    1
    24     5     6    1
    25    13    14   ar
    26    14    15   ar
    27    15    16   ar
    28    16    17    1
    29    17    18    1
    30    18    19    1
    31    19    20    1
    32    19    10    1
    33    16    11   ar
    34     6     1    1
    35    29    23   ar
    36    33    34    1
    37    20    21    1
@<TRIPOS>MOLECULE
*****
 34 37 0 0 0
SMALL
GASTEIGER

@<TRIPOS>ATOM
      1 N           4.9911   -3.6094   20.8701 N.3     1  UNL1       -0.2724
      2 C           6.4404   -3.8032   20.5357 C.3     1  UNL1        0.0721
      3 C           7.4545   -3.9216   21.6347 C.3     1  UNL1        0.0177
      4 C           7.0191   -3.8460   23.0681 C.3     1  UNL1        0.0071
      5 C           5.5698   -3.6522   23.4026 C.3     1  UNL1        0.0177
      6 C           4.5558   -3.5338   22.3037 C.3     1  UNL1        0.0721
      7 C           3.9771   -3.4910   19.7712 C.3     1  UNL1        0.0768
      8 C           3.9848   -2.2923   18.8695 C.3     1  UNL1        0.0437
      9 O           4.3717    2.9883   17.7670 O.2     1  UNL1       -0.2886
     10 C           3.1239    2.8241   18.5832 C.2     1  UNL1        0.2063
     11 C           2.7152    1.4628   19.0628 C.ar    1  UNL1        0.0709
     12 C           3.5543    0.2659   18.7263 C.ar    1  UNL1        0.0017
     13 C           3.1457   -1.0953   19.2060 C.ar    1  UNL1       -0.0205
     14 C           1.8979   -1.2596   20.0221 C.ar    1  UNL1       -0.0011
     15 C           1.0588   -0.0627   20.3586 C.ar    1  UNL1        0.0367
     16 C           1.4675    1.2985   19.8789 C.ar    1  UNL1        0.1414
     17 O           0.6283    2.4955   20.2154 O.3     1  UNL1       -0.4723
     18 C           1.0370    3.8567   19.7358 C.3     1  UNL1        0.2424
     19 C           2.2848    4.0210   18.9197 C.3     1  UNL1        0.2162
     20 O           2.6935    5.3823   18.4400 O.3     1  UNL1       -0.3741
     21 H           2.0470    6.0392   18.7423 H       1  UNL1        0.2110
     22 C           8.0331   -3.9644   24.1671 C.3     1  UNL1        0.0265
     23 C           8.0818   -5.2024   25.0126 C.ar    1  UNL1       -0.0191
     24 C           8.0498   -6.5548   24.3647 C.ar    1  UNL1       -0.0036
     25 C           8.0984   -7.7929   25.2102 C.ar    1  UNL1        0.0094
     26 C           8.1790   -7.6785   26.7037 C.ar    1  UNL1        0.0684
     27 BR          8.2276   -8.9165   27.5492 Br      1  UNL1       -0.0458
     28 C           8.2110   -6.3260   27.3516 C.ar    1  UNL1        0.1445
     29 C           8.1624   -5.0879   26.5061 C.ar    1  UNL1        0.0331
     30 O           8.2916   -6.2116   28.8451 O.3     1  UNL1       -0.4723
     31 C           7.0741   -5.8326   29.6350 C.3     1  UNL1        0.2370
     32 C           7.2115   -5.4067   31.0667 C.3     1  UNL1        0.1847
     33 O           6.5305   -6.1887   32.1505 O.3     1  UNL1       -0.3784
     34 H           5.5688   -6.1111   32.0497 H       1  UNL1        0.2106
@<TRIPOS>BOND
     1     9    10    2
     2    10    11    1
     3    11    12   ar
     4    12    13   ar
     5    13     8    1
     6     8     7    1
     7     7     1    1
     8     1     2    1
     9     2     3    1
    10     3     4    1
    11     4    22    1
    12    22    23    1
    13    23    24   ar
    14    24    25   ar
    15    25    26   ar
    16    26    27    1
    17    26    28   ar
    18    28    30    1
    19    30    31    1
    20    31    32    1
    21    32    33    1
    22    28    29   ar
    23     4     5    1
    24     5     6    1
    25    13    14   ar
    26    14    15   ar
    27    15    16   ar
    28    16    17    1
    29    17    18    1
    30    18    19    1
    31    19    20    1
    32    19    10    1
    33    16    11   ar
    34     6     1    1
    35    29    23   ar
    36    33    34    1
    37    20    21    1
@<TRIPOS>MOLECULE
*****
 34 37 0 0 0
SMALL
GASTEIGER

@<TRIPOS>ATOM
      1 N           2.1358    1.1311   20.9949 N.3     1  UNL1       -0.2724
      2 C           0.8417    0.9076   21.7196 C.3     1  UNL1        0.0721
      3 C           0.5992    1.5703   23.0433 C.3     1  UNL1        0.0177
      4 C           1.6508    2.4564   23.6423 C.3     1  UNL1        0.0071
      5 C           2.9450    2.6799   22.9176 C.3     1  UNL1        0.0177
      6 C           3.1875    2.0173   21.5940 C.3     1  UNL1        0.0721
      7 C           2.3784    0.4685   19.6713 C.3     1  UNL1        0.0768
      8 C           2.3299   -1.0267   19.5610 C.3     1  UNL1        0.0437
      9 O           3.9558   -1.5677   24.6907 O.2     1  UNL1       -0.2886
     10 C           4.8074   -2.5023   23.8836 C.2     1  UNL1        0.2063
     11 C           4.6137   -2.6007   22.3994 C.ar    1  UNL1        0.0709
     12 C           3.5687   -1.7645   21.7223 C.ar    1  UNL1        0.0017
     13 C           3.3751   -1.8629   20.2381 C.ar    1  UNL1       -0.0205
     14 C           4.2266   -2.7975   19.4311 C.ar    1  UNL1       -0.0011
     15 C           5.2717   -3.6337   20.1081 C.ar    1  UNL1        0.0367
     16 C           5.4653   -3.5353   21.5923 C.ar    1  UNL1        0.1414
     17 O           6.5104   -4.3716   22.2695 O.3     1  UNL1       -0.4723
     18 C           6.7040   -4.2731   23.7536 C.3     1  UNL1        0.2424
     19 C           5.8524   -3.3385   24.5607 C.3     1  UNL1        0.2162
     20 O           6.0461   -3.2402   26.0450 O.3     1  UNL1       -0.3741
     21 H           6.7554   -3.8423   26.3191 H       1  UNL1        0.2110
     22 C           1.4083    3.1190   24.9659 C.3     1  UNL1        0.0265
     23 C           0.6670    2.3882   26.0459 C.ar    1  UNL1       -0.0191
     24 C          -0.7714    2.7133   26.3203 C.ar    1  UNL1       -0.0036
     25 C          -1.5127    1.9825   27.4003 C.ar    1  UNL1        0.0094
     26 C          -0.8157    0.9265   28.2058 C.ar    1  UNL1        0.0684
     27 BR         -1.5570    0.1956   29.2858 Br      1  UNL1       -0.0458
     28 C           0.6228    0.6013   27.9314 C.ar    1  UNL1        0.1445
     29 C           1.3641    1.3321   26.8515 C.ar    1  UNL1        0.0331
     30 O           1.3198   -0.4547   28.7370 O.3     1  UNL1       -0.4723
     31 C           2.7452   -0.2564   29.1600 C.3     1  UNL1        0.2370
     32 C           3.8072   -1.2031   28.6846 C.3     1  UNL1        0.1847
     33 O           3.6286   -1.9428   27.3920 O.3     1  UNL1       -0.3784
     34 H           2.8851   -2.5604   27.4730 H       1  UNL1        0.2106
@<TRIPOS>BOND
     1     9    10    2
     2    10    11    1
     3    11    12   ar
     4    12    13   ar
     5    13     8    1
     6     8     7    1
     7     7     1    1
     8     1     2    1
     9     2     3    1
    10     3     4    1
    11     4    22    1
    12    22    23    1
    13    23    24   ar
    14    24    25   ar
    15    25    26   ar
    16    26    27    1
    17    26    28   ar
    18    28    30    1
    19    30    31    1
    20    31    32    1
    21    32    33    1
    22    28    29   ar
    23     4     5    1
    24     5     6    1
    25    13    14   ar
    26    14    15   ar
    27    15    16   ar
    28    16    17    1
    29    17    18    1
    30    18    19    1
    31    19    20    1
    32    19    10    1
    33    16    11   ar
    34     6     1    1
    35    29    23   ar
    36    33    34    1
    37    20    21    1
@<TRIPOS>MOLECULE
*****
 34 37 0 0 0
SMALL
GASTEIGER

@<TRIPOS>ATOM
      1 N           4.8504   -1.8237   19.7319 N.3     1  UNL1       -0.2724
      2 C           4.8978   -3.3190   19.8407 C.3     1  UNL1        0.0721
      3 C           6.1112   -3.9915   20.4112 C.3     1  UNL1        0.0177
      4 C           7.2773   -3.1686   20.8729 C.3     1  UNL1        0.0071
      5 C           7.2299   -1.6733   20.7642 C.3     1  UNL1        0.0177
      6 C           6.0166   -1.0008   20.1937 C.3     1  UNL1        0.0721
      7 C           3.6371   -1.1512   19.1615 C.3     1  UNL1        0.0768
      8 C           2.3128   -1.2802   19.8540 C.3     1  UNL1        0.0437
      9 O           4.4950   -1.6362   24.7898 O.2     1  UNL1       -0.2886
     10 C           3.4469   -0.5664   24.8745 C.2     1  UNL1        0.2063
     11 C           2.6394   -0.2100   23.6616 C.ar    1  UNL1        0.0709
     12 C           2.8799   -0.9233   22.3642 C.ar    1  UNL1        0.0017
     13 C           2.0723   -0.5669   21.1515 C.ar    1  UNL1       -0.0205
     14 C           1.0242    0.5029   21.2362 C.ar    1  UNL1       -0.0011
     15 C           0.7837    1.2162   22.5336 C.ar    1  UNL1        0.0367
     16 C           1.5913    0.8598   23.7463 C.ar    1  UNL1        0.1414
     17 O           1.3508    1.5731   25.0438 O.3     1  UNL1       -0.4723
     18 C           2.1584    1.2167   26.2565 C.3     1  UNL1        0.2424
     19 C           3.2064    0.1469   26.1718 C.3     1  UNL1        0.2162
     20 O           4.0140   -0.2095   27.3847 O.3     1  UNL1       -0.3741
     21 H           3.7345    0.3413   28.1326 H       1  UNL1        0.2110
     22 C           8.4906   -3.8411   21.4434 C.3     1  UNL1        0.0265
     23 C           8.3414   -4.8503   22.5430 C.ar    1  UNL1       -0.0191
     24 C           8.9212   -6.2245   22.3836 C.ar    1  UNL1       -0.0036
     25 C           8.7720   -7.2337   23.4832 C.ar    1  UNL1        0.0094
     26 C           8.0431   -6.8688   24.7423 C.ar    1  UNL1        0.0684
     27 BR          7.8939   -7.8780   25.8420 Br      1  UNL1       -0.0458
     28 C           7.4633   -5.4945   24.9018 C.ar    1  UNL1        0.1445
     29 C           7.6125   -4.4853   23.8022 C.ar    1  UNL1        0.0331
     30 O           6.7344   -5.1296   26.1609 O.3     1  UNL1       -0.4723
     31 C           7.3111   -4.1037   27.0909 C.3     1  UNL1        0.2370
     32 C           6.5988   -2.8011   27.3056 C.3     1  UNL1        0.1847
     33 O           5.1023   -2.7720   27.4034 O.3     1  UNL1       -0.3784
     34 H           4.7175   -3.0288   26.5509 H       1  UNL1        0.2106
@<TRIPOS>BOND
     1     9    10    2
     2    10    11    1
     3    11    12   ar
     4    12    13   ar
     5    13     8    1
     6     8     7    1
     7     7     1    1
     8     1     2    1
     9     2     3    1
    10     3     4    1
    11     4    22    1
    12    22    23    1
    13    23    24   ar
    14    24    25   ar
    15    25    26   ar
    16    26    27    1
    17    26    28   ar
    18    28    30    1
    19    30    31    1
    20    31    32    1
    21    32    33    1
    22    28    29   ar
    23     4     5    1
    24     5     6    1
    25    13    14   ar
    26    14    15   ar
    27    15    16   ar
    28    16    17    1
    29    17    18    1
    30    18    19    1
    31    19    20    1
    32    19    10    1
    33    16    11   ar
    34     6     1    1
    35    29    23   ar
    36    33    34    1
    37    20    21    1
@<TRIPOS>MOLECULE
*****
 34 37 0 0 0
SMALL
GASTEIGER

@<TRIPOS>ATOM
      1 N           0.7251    1.7949   22.3189 N.3     1  UNL1       -0.2724
      2 C           0.0463    1.3840   21.0459 C.3     1  UNL1        0.0721
      3 C           0.5841    0.2343   20.2464 C.3     1  UNL1        0.0177
      4 C           1.8006   -0.5045   20.7200 C.3     1  UNL1        0.0071
      5 C           2.4794   -0.0937   21.9930 C.3     1  UNL1        0.0177
      6 C           1.9417    1.0560   22.7924 C.3     1  UNL1        0.0721
      7 C           0.1874    2.9445   23.1183 C.3     1  UNL1        0.0768
      8 C          -0.4603    2.6954   24.4481 C.3     1  UNL1        0.0437
      9 O          -4.7417    3.5710   21.2616 O.2     1  UNL1       -0.2886
     10 C          -5.1868    3.8992   22.6559 C.2     1  UNL1        0.2063
     11 C          -4.2277    3.7623   23.8012 C.ar    1  UNL1        0.0709
     12 C          -2.8236    3.2973   23.5520 C.ar    1  UNL1        0.0017
     13 C          -1.8645    3.1605   24.6972 C.ar    1  UNL1       -0.0205
     14 C          -2.3096    3.4886   26.0915 C.ar    1  UNL1       -0.0011
     15 C          -3.7138    3.9537   26.3407 C.ar    1  UNL1        0.0367
     16 C          -4.6728    4.0905   25.1955 C.ar    1  UNL1        0.1414
     17 O          -6.0770    4.5556   25.4446 O.3     1  UNL1       -0.4723
     18 C          -7.0360    4.6924   24.2994 C.3     1  UNL1        0.2424
     19 C          -6.5909    4.3642   22.9051 C.3     1  UNL1        0.2162
     20 O          -7.5500    4.5011   21.7599 O.3     1  UNL1       -0.3741
     21 H          -8.4077    4.8098   22.0915 H       1  UNL1        0.2110
     22 C           2.3383   -1.6542   19.9206 C.3     1  UNL1        0.0265
     23 C           3.8176   -1.8020   19.7209 C.ar    1  UNL1       -0.0191
     24 C           4.6492   -2.4939   20.7599 C.ar    1  UNL1       -0.0036
     25 C           6.1285   -2.6417   20.5602 C.ar    1  UNL1        0.0094
     26 C           6.7761   -2.0977   19.3215 C.ar    1  UNL1        0.0684
     27 BR          8.2554   -2.2455   19.1218 Br      1  UNL1       -0.0458
     28 C           5.9445   -1.4058   18.2823 C.ar    1  UNL1        0.1445
     29 C           4.4652   -1.2579   18.4820 C.ar    1  UNL1        0.0331
     30 O           6.5921   -0.8617   17.0436 O.3     1  UNL1       -0.4723
     31 C           6.7998    0.6161   16.8931 C.3     1  UNL1        0.2370
     32 C           7.0444    1.4664   18.1045 C.3     1  UNL1        0.1847
     33 O           8.3562    1.3828   18.8270 O.3     1  UNL1       -0.3784
     34 H           8.4510    0.5030   19.2243 H       1  UNL1        0.2106
@<TRIPOS>BOND
     1     9    10    2
     2    10    11    1
     3    11    12   ar
     4    12    13   ar
     5    13     8    1
     6     8     7    1
     7     7     1    1
     8     1     2    1
     9     2     3    1
    10     3     4    1
    11     4    22    1
    12    22    23    1
    13    23    24   ar
    14    24    25   ar
    15    25    26   ar
    16    26    27    1
    17    26    28   ar
    18    28    30    1
    19    30    31    1
    20    31    32    1
    21    32    33    1
    22    28    29   ar
    23     4     5    1
    24     5     6    1
    25    13    14   ar
    26    14    15   ar
    27    15    16   ar
    28    16    17    1
    29    17    18    1
    30    18    19    1
    31    19    20    1
    32    19    10    1
    33    16    11   ar
    34     6     1    1
    35    29    23   ar
    36    33    34    1
    37    20    21    1
