@<TRIPOS>MOLECULE
*****
 17 19 0 0 0
SMALL
GASTEIGER

@<TRIPOS>ATOM
      1 O          -1.7756  -20.1433   21.2481 O.2     1  UNL1       -0.2957
      2 C          -3.1978  -19.7106   21.4486 C.2     1  UNL1        0.1553
      3 C          -3.5522  -18.8042   22.5900 C.3     1  UNL1        0.0695
      4 C          -4.9743  -18.3715   22.7905 C.3     1  UNL1        0.0338
      5 C          -6.0422  -18.8452   21.8496 C.ar    1  UNL1       -0.0253
      6 C          -7.4643  -18.4125   22.0501 C.ar    1  UNL1       -0.0045
      7 C          -8.5321  -18.8862   21.1092 C.ar    1  UNL1        0.0012
      8 C          -8.1778  -19.7926   19.9677 C.ar    1  UNL1       -0.0003
      9 C          -6.7556  -20.2253   19.7672 C.ar    1  UNL1       -0.0042
     10 C          -5.6878  -19.7516   20.7082 C.ar    1  UNL1       -0.0188
     11 C          -4.2656  -20.1842   20.5077 C.3     1  UNL1        0.0904
     12 C          -9.9543  -18.4535   21.3097 C.ar    1  UNL1        0.0192
     13 C         -10.6110  -18.6314   22.6466 C.ar    1  UNL1        0.0031
     14 C         -12.0332  -18.1987   22.8471 C.ar    1  UNL1        0.0207
     15 C         -12.7987  -17.5882   21.7107 C.ar    1  UNL1        0.0989
     16 N         -12.1420  -17.4103   20.3739 N.ar    1  UNL1       -0.2423
     17 C         -10.7198  -17.8430   20.1734 C.ar    1  UNL1        0.0988
@<TRIPOS>BOND
     1     1     2    2
     2     2     3    1
     3     3     4    1
     4     4     5    1
     5     5     6   ar
     6     6     7   ar
     7     7    12    1
     8    12    13   ar
     9    13    14   ar
    10    14    15   ar
    11    15    16   ar
    12    16    17   ar
    13     7     8   ar
    14     8     9   ar
    15     9    10   ar
    16    10    11    1
    17    11     2    1
    18    10     5   ar
    19    17    12   ar
@<TRIPOS>MOLECULE
*****
 17 19 0 0 0
SMALL
GASTEIGER

@<TRIPOS>ATOM
      1 O         -14.0535  -17.7647   23.9860 O.2     1  UNL1       -0.2957
      2 C         -12.6564  -17.8872   23.4540 C.2     1  UNL1        0.1553
      3 C         -12.1098  -16.8371   22.5330 C.3     1  UNL1        0.0695
      4 C         -10.7126  -16.9596   22.0010 C.3     1  UNL1        0.0338
      5 C          -9.8621  -18.1322   22.3901 C.ar    1  UNL1       -0.0253
      6 C          -8.4649  -18.2547   21.8582 C.ar    1  UNL1       -0.0045
      7 C          -7.6144  -19.4273   22.2473 C.ar    1  UNL1        0.0012
      8 C          -8.1609  -20.4775   23.1684 C.ar    1  UNL1       -0.0003
      9 C          -9.5581  -20.3550   23.7003 C.ar    1  UNL1       -0.0042
     10 C         -10.4087  -19.1823   23.3112 C.ar    1  UNL1       -0.0188
     11 C         -11.8058  -19.0598   23.8431 C.3     1  UNL1        0.0904
     12 C          -6.2172  -19.5498   21.7153 C.ar    1  UNL1        0.0192
     13 C          -5.9159  -20.5256   20.6166 C.ar    1  UNL1        0.0031
     14 C          -4.5187  -20.6481   20.0847 C.ar    1  UNL1        0.0207
     15 C          -3.4229  -19.7947   20.6514 C.ar    1  UNL1        0.0989
     16 N          -3.7243  -18.8189   21.7500 N.ar    1  UNL1       -0.2423
     17 C          -5.1215  -18.6964   22.2819 C.ar    1  UNL1        0.0988
@<TRIPOS>BOND
     1     1     2    2
     2     2     3    1
     3     3     4    1
     4     4     5    1
     5     5     6   ar
     6     6     7   ar
     7     7    12    1
     8    12    13   ar
     9    13    14   ar
    10    14    15   ar
    11    15    16   ar
    12    16    17   ar
    13     7     8   ar
    14     8     9   ar
    15     9    10   ar
    16    10    11    1
    17    11     2    1
    18    10     5   ar
    19    17    12   ar
@<TRIPOS>MOLECULE
*****
 17 19 0 0 0
SMALL
GASTEIGER

@<TRIPOS>ATOM
      1 O          -1.7047  -20.2158   21.4683 O.2     1  UNL1       -0.2957
      2 C          -3.1664  -19.9079   21.3316 C.2     1  UNL1        0.1553
      3 C          -3.9830  -20.5978   20.2795 C.3     1  UNL1        0.0695
      4 C          -5.4446  -20.2899   20.1428 C.3     1  UNL1        0.0338
      5 C          -6.0897  -19.2921   21.0583 C.ar    1  UNL1       -0.0253
      6 C          -7.5514  -18.9842   20.9216 C.ar    1  UNL1       -0.0045
      7 C          -8.1965  -17.9863   21.8371 C.ar    1  UNL1        0.0012
      8 C          -7.3799  -17.2964   22.8893 C.ar    1  UNL1       -0.0003
      9 C          -5.9182  -17.6043   23.0260 C.ar    1  UNL1       -0.0042
     10 C          -5.2731  -18.6022   22.1104 C.ar    1  UNL1       -0.0188
     11 C          -3.8114  -18.9101   22.2471 C.3     1  UNL1        0.0904
     12 C          -9.6582  -17.6784   21.7004 C.ar    1  UNL1        0.0192
     13 C         -10.6214  -18.7647   21.3231 C.ar    1  UNL1        0.0031
     14 C         -12.0830  -18.4568   21.1864 C.ar    1  UNL1        0.0207
     15 C         -12.5815  -17.0626   21.4271 C.ar    1  UNL1        0.0989
     16 N         -11.6183  -15.9764   21.8044 N.ar    1  UNL1       -0.2423
     17 C         -10.1566  -16.2843   21.9410 C.ar    1  UNL1        0.0988
@<TRIPOS>BOND
     1     1     2    2
     2     2     3    1
     3     3     4    1
     4     4     5    1
     5     5     6   ar
     6     6     7   ar
     7     7    12    1
     8    12    13   ar
     9    13    14   ar
    10    14    15   ar
    11    15    16   ar
    12    16    17   ar
    13     7     8   ar
    14     8     9   ar
    15     9    10   ar
    16    10    11    1
    17    11     2    1
    18    10     5   ar
    19    17    12   ar
@<TRIPOS>MOLECULE
*****
 17 19 0 0 0
SMALL
GASTEIGER

@<TRIPOS>ATOM
      1 O           0.4064  -17.8335   20.5540 O.2     1  UNL1       -0.2957
      2 C          -1.0596  -18.1038   20.3879 C.2     1  UNL1        0.1553
      3 C          -1.6386  -18.2827   19.0158 C.3     1  UNL1        0.0695
      4 C          -3.1047  -18.5530   18.8498 C.3     1  UNL1        0.0338
      5 C          -3.9918  -18.6444   20.0559 C.ar    1  UNL1       -0.0253
      6 C          -5.4579  -18.9147   19.8898 C.ar    1  UNL1       -0.0045
      7 C          -6.3450  -19.0060   21.0959 C.ar    1  UNL1        0.0012
      8 C          -5.7660  -18.8271   22.4681 C.ar    1  UNL1       -0.0003
      9 C          -4.2999  -18.5568   22.6341 C.ar    1  UNL1       -0.0042
     10 C          -3.4128  -18.4655   21.4280 C.ar    1  UNL1       -0.0188
     11 C          -1.9467  -18.1952   21.5940 C.3     1  UNL1        0.0904
     12 C          -7.8110  -19.2763   20.9298 C.ar    1  UNL1        0.0192
     13 C          -8.3838  -19.4903   19.5600 C.ar    1  UNL1        0.0031
     14 C          -9.8499  -19.7606   19.3940 C.ar    1  UNL1        0.0207
     15 C         -10.7432  -19.8169   20.5977 C.ar    1  UNL1        0.0989
     16 N         -10.1704  -19.6030   21.9674 N.ar    1  UNL1       -0.2423
     17 C          -8.7043  -19.3327   22.1335 C.ar    1  UNL1        0.0988
@<TRIPOS>BOND
     1     1     2    2
     2     2     3    1
     3     3     4    1
     4     4     5    1
     5     5     6   ar
     6     6     7   ar
     7     7    12    1
     8    12    13   ar
     9    13    14   ar
    10    14    15   ar
    11    15    16   ar
    12    16    17   ar
    13     7     8   ar
    14     8     9   ar
    15     9    10   ar
    16    10    11    1
    17    11     2    1
    18    10     5   ar
    19    17    12   ar
@<TRIPOS>MOLECULE
*****
 17 19 0 0 0
SMALL
GASTEIGER

@<TRIPOS>ATOM
      1 O         -13.3154  -17.5750   23.4593 O.2     1  UNL1       -0.2957
      2 C         -11.9375  -18.0148   23.0620 C.2     1  UNL1        0.1553
      3 C         -11.7500  -19.2858   22.2878 C.3     1  UNL1        0.0695
      4 C         -10.3720  -19.7257   21.8905 C.3     1  UNL1        0.0338
      5 C          -9.1816  -18.8945   22.2674 C.ar    1  UNL1       -0.0253
      6 C          -7.8037  -19.3344   21.8701 C.ar    1  UNL1       -0.0045
      7 C          -6.6133  -18.5033   22.2469 C.ar    1  UNL1        0.0012
      8 C          -6.8007  -17.2322   23.0211 C.ar    1  UNL1       -0.0003
      9 C          -8.1787  -16.7923   23.4184 C.ar    1  UNL1       -0.0042
     10 C          -9.3691  -17.6235   23.0415 C.ar    1  UNL1       -0.0188
     11 C         -10.7470  -17.1837   23.4388 C.3     1  UNL1        0.0904
     12 C          -5.2354  -18.9431   21.8496 C.ar    1  UNL1        0.0192
     13 C          -4.0399  -18.4306   22.5968 C.ar    1  UNL1        0.0031
     14 C          -2.6619  -18.8705   22.1994 C.ar    1  UNL1        0.0207
     15 C          -2.4795  -19.8229   21.0550 C.ar    1  UNL1        0.0989
     16 N          -3.6750  -20.3353   20.3079 N.ar    1  UNL1       -0.2423
     17 C          -5.0529  -19.8955   20.7052 C.ar    1  UNL1        0.0988
@<TRIPOS>BOND
     1     1     2    2
     2     2     3    1
     3     3     4    1
     4     4     5    1
     5     5     6   ar
     6     6     7   ar
     7     7    12    1
     8    12    13   ar
     9    13    14   ar
    10    14    15   ar
    11    15    16   ar
    12    16    17   ar
    13     7     8   ar
    14     8     9   ar
    15     9    10   ar
    16    10    11    1
    17    11     2    1
    18    10     5   ar
    19    17    12   ar
@<TRIPOS>MOLECULE
*****
 17 19 0 0 0
SMALL
GASTEIGER

@<TRIPOS>ATOM
      1 O          -0.2187  -18.8265   19.6152 O.2     1  UNL1       -0.2957
      2 C          -1.3230  -18.5369   20.5882 C.2     1  UNL1        0.1553
      3 C          -2.0890  -19.6661   21.2113 C.3     1  UNL1        0.0695
      4 C          -3.1932  -19.3765   22.1842 C.3     1  UNL1        0.0338
      5 C          -3.5315  -17.9577   22.5342 C.ar    1  UNL1       -0.0253
      6 C          -4.6358  -17.6680   23.5072 C.ar    1  UNL1       -0.0045
      7 C          -4.9741  -16.2492   23.8572 C.ar    1  UNL1        0.0012
      8 C          -4.2081  -15.1200   23.2341 C.ar    1  UNL1       -0.0003
      9 C          -3.1038  -15.4096   22.2611 C.ar    1  UNL1       -0.0042
     10 C          -2.7655  -16.8285   21.9112 C.ar    1  UNL1       -0.0188
     11 C          -1.6613  -17.1181   20.9382 C.3     1  UNL1        0.0904
     12 C          -6.0783  -15.9596   24.8302 C.ar    1  UNL1        0.0192
     13 C          -5.7564  -15.6786   26.2681 C.ar    1  UNL1        0.0031
     14 C          -6.8607  -15.3890   27.2411 C.ar    1  UNL1        0.0207
     15 C          -8.2869  -15.3803   26.7761 C.ar    1  UNL1        0.0989
     16 N          -8.6087  -15.6613   25.3383 N.ar    1  UNL1       -0.2423
     17 C          -7.5044  -15.9510   24.3653 C.ar    1  UNL1        0.0988
@<TRIPOS>BOND
     1     1     2    2
     2     2     3    1
     3     3     4    1
     4     4     5    1
     5     5     6   ar
     6     6     7   ar
     7     7    12    1
     8    12    13   ar
     9    13    14   ar
    10    14    15   ar
    11    15    16   ar
    12    16    17   ar
    13     7     8   ar
    14     8     9   ar
    15     9    10   ar
    16    10    11    1
    17    11     2    1
    18    10     5   ar
    19    17    12   ar
@<TRIPOS>MOLECULE
*****
 17 19 0 0 0
SMALL
GASTEIGER

@<TRIPOS>ATOM
      1 O          -8.4642   -3.6378   16.5450 O.2     1  UNL1       -0.2957
      2 C          -9.6214   -4.4065   17.1107 C.2     1  UNL1        0.1553
      3 C         -10.0642   -4.1640   18.5231 C.3     1  UNL1        0.0695
      4 C         -11.2214   -4.9327   19.0888 C.3     1  UNL1        0.0338
      5 C         -11.9359   -5.9438   18.2420 C.ar    1  UNL1       -0.0253
      6 C         -13.0931   -6.7125   18.8077 C.ar    1  UNL1       -0.0045
      7 C         -13.8075   -7.7236   17.9609 C.ar    1  UNL1        0.0012
      8 C         -13.3647   -7.9662   16.5484 C.ar    1  UNL1       -0.0003
      9 C         -12.2075   -7.1975   15.9827 C.ar    1  UNL1       -0.0042
     10 C         -11.4931   -6.1863   16.8296 C.ar    1  UNL1       -0.0188
     11 C         -10.3358   -5.4176   16.2639 C.3     1  UNL1        0.0904
     12 C         -14.9648   -8.4923   18.5266 C.ar    1  UNL1        0.0192
     13 C         -15.8850   -7.8418   19.5166 C.ar    1  UNL1        0.0031
     14 C         -17.0422   -8.6105   20.0823 C.ar    1  UNL1        0.0207
     15 C         -17.2792  -10.0296   19.6579 C.ar    1  UNL1        0.0989
     16 N         -16.3590  -10.6800   18.6679 N.ar    1  UNL1       -0.2423
     17 C         -15.2018   -9.9113   18.1022 C.ar    1  UNL1        0.0988
@<TRIPOS>BOND
     1     1     2    2
     2     2     3    1
     3     3     4    1
     4     4     5    1
     5     5     6   ar
     6     6     7   ar
     7     7    12    1
     8    12    13   ar
     9    13    14   ar
    10    14    15   ar
    11    15    16   ar
    12    16    17   ar
    13     7     8   ar
    14     8     9   ar
    15     9    10   ar
    16    10    11    1
    17    11     2    1
    18    10     5   ar
    19    17    12   ar
@<TRIPOS>MOLECULE
*****
 17 19 0 0 0
SMALL
GASTEIGER

@<TRIPOS>ATOM
      1 O         -19.8055   -9.9379   18.6603 O.2     1  UNL1       -0.2957
      2 C         -18.3900   -9.4417   18.6435 C.2     1  UNL1        0.1553
      3 C         -17.2820  -10.3503   18.2003 C.3     1  UNL1        0.0695
      4 C         -15.8665   -9.8541   18.1835 C.3     1  UNL1        0.0338
      5 C         -15.5591   -8.4493   18.6099 C.ar    1  UNL1       -0.0253
      6 C         -14.1437   -7.9531   18.5931 C.ar    1  UNL1       -0.0045
      7 C         -13.8363   -6.5482   19.0195 C.ar    1  UNL1        0.0012
      8 C         -14.9444   -5.6395   19.4628 C.ar    1  UNL1       -0.0003
      9 C         -16.3598   -6.1357   19.4796 C.ar    1  UNL1       -0.0042
     10 C         -16.6672   -7.5406   19.0531 C.ar    1  UNL1       -0.0188
     11 C         -18.0827   -8.0368   19.0699 C.3     1  UNL1        0.0904
     12 C         -12.4208   -6.0520   19.0027 C.ar    1  UNL1        0.0192
     13 C         -11.2851   -7.0276   18.9099 C.ar    1  UNL1        0.0031
     14 C          -9.8697   -6.5314   18.8931 C.ar    1  UNL1        0.0207
     15 C          -9.5899   -5.0596   18.9691 C.ar    1  UNL1        0.0989
     16 N         -10.7256   -4.0842   19.0620 N.ar    1  UNL1       -0.2423
     17 C         -12.1410   -4.5804   19.0788 C.ar    1  UNL1        0.0988
@<TRIPOS>BOND
     1     1     2    2
     2     2     3    1
     3     3     4    1
     4     4     5    1
     5     5     6   ar
     6     6     7   ar
     7     7    12    1
     8    12    13   ar
     9    13    14   ar
    10    14    15   ar
    11    15    16   ar
    12    16    17   ar
    13     7     8   ar
    14     8     9   ar
    15     9    10   ar
    16    10    11    1
    17    11     2    1
    18    10     5   ar
    19    17    12   ar
@<TRIPOS>MOLECULE
*****
 17 19 0 0 0
SMALL
GASTEIGER

@<TRIPOS>ATOM
      1 O          -9.3187   -4.3318   19.2630 O.2     1  UNL1       -0.2957
      2 C         -10.4761   -5.2440   18.9830 C.2     1  UNL1        0.1553
      3 C         -10.2540   -6.5345   18.2514 C.3     1  UNL1        0.0695
      4 C         -11.4113   -7.4467   17.9714 C.3     1  UNL1        0.0338
      5 C         -12.7908   -7.0684   18.4230 C.ar    1  UNL1       -0.0253
      6 C         -13.9481   -7.9806   18.1430 C.ar    1  UNL1       -0.0045
      7 C         -15.3276   -7.6024   18.5946 C.ar    1  UNL1        0.0012
      8 C         -15.5497   -6.3118   19.3262 C.ar    1  UNL1       -0.0003
      9 C         -14.3924   -5.3996   19.6062 C.ar    1  UNL1       -0.0042
     10 C         -13.0129   -5.7779   19.1546 C.ar    1  UNL1       -0.0188
     11 C         -11.8555   -4.8657   19.4346 C.3     1  UNL1        0.0904
     12 C         -16.4849   -8.5146   18.3145 C.ar    1  UNL1        0.0192
     13 C         -16.3894   -9.9728   18.6529 C.ar    1  UNL1        0.0031
     14 C         -17.5468  -10.8850   18.3729 C.ar    1  UNL1        0.0207
     15 C         -18.7996  -10.3390   17.7545 C.ar    1  UNL1        0.0989
     16 N         -18.8950   -8.8808   17.4161 N.ar    1  UNL1       -0.2423
     17 C         -17.7377   -7.9686   17.6962 C.ar    1  UNL1        0.0988
@<TRIPOS>BOND
     1     1     2    2
     2     2     3    1
     3     3     4    1
     4     4     5    1
     5     5     6   ar
     6     6     7   ar
     7     7    12    1
     8    12    13   ar
     9    13    14   ar
    10    14    15   ar
    11    15    16   ar
    12    16    17   ar
    13     7     8   ar
    14     8     9   ar
    15     9    10   ar
    16    10    11    1
    17    11     2    1
    18    10     5   ar
    19    17    12   ar
