@<TRIPOS>MOLECULE
*****
 44 48 0 0 0
SMALL
GASTEIGER

@<TRIPOS>ATOM
      1 N           6.1328   -2.6266   19.9257 N.am    1  UNL1       -0.2724
      2 C           6.1423   -3.4299   21.1924 C.2     1  UNL1        0.2491
      3 O           4.9692   -4.2982   21.5387 O.2     1  UNL1       -0.2727
      4 C           7.3059   -1.7584   19.5795 C.3     1  UNL1        0.1111
      5 C           7.2992   -0.3053   19.9519 C.3     1  UNL1        0.0939
      6 N           7.0816    0.7384   18.8967 N.3     1  UNL1       -0.2712
      7 C           6.7876    1.1501   16.3484 C.3     1  UNL1        0.0188
      8 C           7.5003    0.4725   17.4811 C.3     1  UNL1        0.0722
      9 C           6.4452    2.0481   19.2572 C.3     1  UNL1        0.0722
     10 C           7.1600    3.0045   20.1651 C.3     1  UNL1        0.0188
     11 C           4.9502   -2.6917   19.0052 C.3     1  UNL1        0.1202
     12 C           3.8854   -1.6377   19.0765 C.ar    1  UNL1       -0.0023
     13 C           2.8031   -1.7337   20.1106 C.ar    1  UNL1       -0.0026
     14 C           1.7382   -0.6796   20.1819 C.ar    1  UNL1       -0.0003
     15 C           1.7557    0.4704   19.2191 C.ar    1  UNL1       -0.0000
     16 C           2.8380    0.5665   18.1850 C.ar    1  UNL1       -0.0003
     17 C           3.9029   -0.4876   18.1136 C.ar    1  UNL1       -0.0026
     18 C           0.6908    1.5244   19.2904 C.ar    1  UNL1        0.0001
     19 C          -0.1738    1.6357   20.5111 C.ar    1  UNL1        0.0009
     20 C          -1.2386    2.6897   20.5824 C.ar    1  UNL1        0.0114
     21 C          -1.4389    3.6325   19.4330 C.ar    1  UNL1        0.0577
     22 CL         -2.5038    4.6866   19.5044 Cl      1  UNL1       -0.0822
     23 C          -0.5743    3.5213   18.2124 C.ar    1  UNL1        0.0114
     24 C           0.4906    2.4672   18.1411 C.ar    1  UNL1        0.0009
     25 C           7.3248   -3.3648   22.1129 C.3     1  UNL1        0.1931
     26 N           7.2896   -4.0803   23.4308 N.ar    1  UNL1       -0.3030
     27 C           6.6268   -3.4401   24.6144 C.ar    1  UNL1        0.1747
     28 N           6.5915   -4.1555   25.9322 N.ar    1  UNL1       -0.1847
     29 C           7.2191   -5.5112   26.0667 C.ar    1  UNL1        0.2779
     30 O           7.1838   -6.2266   27.3846 O.2     1  UNL1       -0.2654
     31 C           7.8819   -6.1515   24.8832 C.ar    1  UNL1        0.0474
     32 C           7.9172   -5.4361   23.5653 C.ar    1  UNL1        0.0399
     33 C           8.6366   -6.3110   22.5820 C.3     1  UNL1        0.0440
     34 C           9.0460   -7.5672   23.2922 C.3     1  UNL1        0.0111
     35 C           8.5796   -7.4686   24.7144 C.3     1  UNL1        0.0328
     36 S           5.9992   -2.0842   24.4800 S.3     1  UNL1       -0.0724
     37 C           4.5358   -1.9622   24.1738 C.3     1  UNL1        0.0913
     38 C           3.9922   -0.6842   23.6069 C.ar    1  UNL1       -0.0108
     39 C           4.8063    0.1077   22.6270 C.ar    1  UNL1       -0.0011
     40 C           4.2626    1.3857   22.0601 C.ar    1  UNL1        0.0293
     41 C           2.9049    1.8717   22.4731 C.ar    1  UNL1        0.1401
     42 F           2.3614    3.1496   21.9062 F       1  UNL1       -0.2042
     43 C           2.0909    1.0797   23.4530 C.ar    1  UNL1        0.0293
     44 C           2.6346   -0.1982   24.0199 C.ar    1  UNL1       -0.0011
@<TRIPOS>BOND
     1     7     8    1
     2     8     6    1
     3     6     9    1
     4     9    10    1
     5     6     5    1
     6     5     4    1
     7     4     1    1
     8     1    11    1
     9    11    12    1
    10    12    13   ar
    11    13    14   ar
    12    14    15   ar
    13    15    18    1
    14    18    19   ar
    15    19    20   ar
    16    20    21   ar
    17    21    22    1
    18    21    23   ar
    19    23    24   ar
    20    15    16   ar
    21    16    17   ar
    22     1     2   am
    23     2     3    2
    24     2    25    1
    25    25    26    1
    26    26    27   ar
    27    27    36    1
    28    36    37    1
    29    37    38    1
    30    38    39   ar
    31    39    40   ar
    32    40    41   ar
    33    41    42    1
    34    41    43   ar
    35    43    44   ar
    36    27    28   ar
    37    28    29   ar
    38    29    30    2
    39    29    31   ar
    40    31    32   ar
    41    32    33    1
    42    33    34    1
    43    34    35    1
    44    17    12   ar
    45    32    26   ar
    46    24    18   ar
    47    44    38   ar
    48    35    31    1
@<TRIPOS>MOLECULE
*****
 44 48 0 0 0
SMALL
GASTEIGER

@<TRIPOS>ATOM
      1 N           2.8618    0.2121   28.9988 N.am    1  UNL1       -0.2724
      2 C           3.7551   -0.0835   30.1671 C.2     1  UNL1        0.2491
      3 O           5.1995    0.3190   30.1274 O.2     1  UNL1       -0.2727
      4 C           1.4174   -0.1904   29.0385 C.3     1  UNL1        0.1111
      5 C           0.3686    0.8154   29.4105 C.3     1  UNL1        0.0939
      6 N          -0.0416    1.8703   28.4261 N.3     1  UNL1       -0.2712
      7 C           1.5448    3.6329   29.4873 C.3     1  UNL1        0.0188
      8 C           0.3382    3.3025   28.6598 C.3     1  UNL1        0.0722
      9 C          -0.8315    1.4930   27.2080 C.3     1  UNL1        0.0722
     10 C          -0.6246    2.2344   25.9206 C.3     1  UNL1        0.0188
     11 C           3.4130    0.9101   27.7910 C.3     1  UNL1        0.1202
     12 C           3.5234    0.1777   26.4866 C.ar    1  UNL1       -0.0023
     13 C           4.4843   -0.9657   26.3475 C.ar    1  UNL1       -0.0026
     14 C           4.5946   -1.6981   25.0430 C.ar    1  UNL1       -0.0003
     15 C           3.7440   -1.2872   23.8779 C.ar    1  UNL1       -0.0000
     16 C           2.7831   -0.1438   24.0171 C.ar    1  UNL1       -0.0003
     17 C           2.6727    0.5887   25.3214 C.ar    1  UNL1       -0.0026
     18 C           3.8544   -2.0196   22.5736 C.ar    1  UNL1        0.0001
     19 C           4.5213   -3.3621   22.5214 C.ar    1  UNL1        0.0009
     20 C           4.6317   -4.0946   21.2170 C.ar    1  UNL1        0.0114
     21 C           4.0750   -3.4845   19.9648 C.ar    1  UNL1        0.0577
     22 CL          4.1854   -4.2169   18.6604 Cl      1  UNL1       -0.0822
     23 C           3.4081   -2.1419   20.0170 C.ar    1  UNL1        0.0114
     24 C           3.2977   -1.4095   21.3214 C.ar    1  UNL1        0.0009
     25 C           3.2039   -0.7815   31.3749 C.3     1  UNL1        0.1931
     26 N           3.6444   -0.3661   32.7473 N.ar    1  UNL1       -0.3030
     27 C           4.5973   -1.2275   33.5220 C.ar    1  UNL1        0.1747
     28 N           5.0377   -0.8122   34.8943 N.ar    1  UNL1       -0.1847
     29 C           4.5254    0.4645   35.4921 C.ar    1  UNL1        0.2779
     30 O           4.9660    0.8798   36.8645 O.2     1  UNL1       -0.2654
     31 C           3.5726    1.3260   34.7175 C.ar    1  UNL1        0.0474
     32 C           3.1321    0.9107   33.3451 C.ar    1  UNL1        0.0399
     33 C           2.1914    1.9564   32.8239 C.3     1  UNL1        0.0440
     34 C           2.0506    3.0180   33.8742 C.3     1  UNL1        0.0111
     35 C           2.9042    2.6284   35.0445 C.3     1  UNL1        0.0328
     36 S           5.1096   -2.5044   32.9242 S.3     1  UNL1       -0.0724
     37 C           6.3802   -2.5024   32.1270 C.3     1  UNL1        0.0913
     38 C           6.5316   -3.4259   30.9547 C.ar    1  UNL1       -0.0108
     39 C           6.9245   -4.8570   31.1732 C.ar    1  UNL1       -0.0011
     40 C           7.0758   -5.7804   30.0008 C.ar    1  UNL1        0.0293
     41 C           6.8344   -5.2729   28.6101 C.ar    1  UNL1        0.1401
     42 F           6.9858   -6.1964   27.4378 F       1  UNL1       -0.2042
     43 C           6.4415   -3.8417   28.3917 C.ar    1  UNL1        0.0293
     44 C           6.2902   -2.9183   29.5640 C.ar    1  UNL1       -0.0011
@<TRIPOS>BOND
     1     7     8    1
     2     8     6    1
     3     6     9    1
     4     9    10    1
     5     6     5    1
     6     5     4    1
     7     4     1    1
     8     1    11    1
     9    11    12    1
    10    12    13   ar
    11    13    14   ar
    12    14    15   ar
    13    15    18    1
    14    18    19   ar
    15    19    20   ar
    16    20    21   ar
    17    21    22    1
    18    21    23   ar
    19    23    24   ar
    20    15    16   ar
    21    16    17   ar
    22     1     2   am
    23     2     3    2
    24     2    25    1
    25    25    26    1
    26    26    27   ar
    27    27    36    1
    28    36    37    1
    29    37    38    1
    30    38    39   ar
    31    39    40   ar
    32    40    41   ar
    33    41    42    1
    34    41    43   ar
    35    43    44   ar
    36    27    28   ar
    37    28    29   ar
    38    29    30    2
    39    29    31   ar
    40    31    32   ar
    41    32    33    1
    42    33    34    1
    43    34    35    1
    44    17    12   ar
    45    32    26   ar
    46    24    18   ar
    47    44    38   ar
    48    35    31    1
@<TRIPOS>MOLECULE
*****
 44 48 0 0 0
SMALL
GASTEIGER

@<TRIPOS>ATOM
      1 N           0.4635    2.7010   19.0747 N.am    1  UNL1       -0.2724
      2 C          -0.4443    2.5477   20.2589 C.2     1  UNL1        0.2491
      3 O          -0.9646    1.1919   20.6344 O.2     1  UNL1       -0.2727
      4 C           0.9838    4.0569   18.6992 C.3     1  UNL1        0.1111
      5 C           0.4737    4.7405   17.4653 C.3     1  UNL1        0.0939
      6 N          -0.9928    5.0165   17.3127 N.3     1  UNL1       -0.2712
      7 C          -3.3868    4.1617   16.7764 C.3     1  UNL1        0.0188
      8 C          -1.9005    3.9608   16.7545 C.3     1  UNL1        0.0722
      9 C          -1.5515    6.3482   17.7181 C.3     1  UNL1        0.0722
     10 C          -1.5629    6.7481   19.1638 C.3     1  UNL1        0.0188
     11 C           0.8511    1.4986   18.2661 C.3     1  UNL1        0.1202
     12 C           1.9366    0.5852   18.7533 C.ar    1  UNL1       -0.0023
     13 C           1.6168   -0.5032   19.7346 C.ar    1  UNL1       -0.0026
     14 C           2.7024   -1.4165   20.2218 C.ar    1  UNL1       -0.0003
     15 C           4.1078   -1.2414   19.7276 C.ar    1  UNL1       -0.0000
     16 C           4.4276   -0.1530   18.7463 C.ar    1  UNL1       -0.0003
     17 C           3.3421    0.7604   18.2591 C.ar    1  UNL1       -0.0026
     18 C           5.1933   -2.1548   20.2148 C.ar    1  UNL1        0.0001
     19 C           6.5003   -2.2240   19.4820 C.ar    1  UNL1        0.0009
     20 C           7.5858   -3.1374   19.9692 C.ar    1  UNL1        0.0114
     21 C           7.3644   -3.9816   21.1893 C.ar    1  UNL1        0.0577
     22 CL          8.4499   -4.8949   21.6765 Cl      1  UNL1       -0.0822
     23 C           6.0574   -3.9123   21.9221 C.ar    1  UNL1        0.0114
     24 C           4.9719   -2.9989   21.4348 C.ar    1  UNL1        0.0009
     25 C          -0.8318    3.7502   21.0675 C.3     1  UNL1        0.1931
     26 N          -1.8960    3.6359   22.1185 N.ar    1  UNL1       -0.3030
     27 C          -1.5192    3.3248   23.5367 C.ar    1  UNL1        0.1747
     28 N          -2.5833    3.2106   24.5876 N.ar    1  UNL1       -0.1847
     29 C          -4.0243    3.4075   24.2205 C.ar    1  UNL1        0.2779
     30 O          -5.0884    3.2932   25.2715 O.2     1  UNL1       -0.2654
     31 C          -4.4011    3.7186   22.8023 C.ar    1  UNL1        0.0474
     32 C          -3.3370    3.8329   21.7513 C.ar    1  UNL1        0.0399
     33 C          -4.0063    4.1471   20.4462 C.3     1  UNL1        0.0440
     34 C          -5.4841    4.2271   20.6907 C.3     1  UNL1        0.0111
     35 C          -5.7281    3.9623   22.1468 C.3     1  UNL1        0.0328
     36 S          -0.0782    3.1278   23.9039 S.3     1  UNL1       -0.0724
     37 C           0.4969    1.7440   23.9686 C.3     1  UNL1        0.0913
     38 C           1.8702    1.4764   23.4277 C.ar    1  UNL1       -0.0108
     39 C           2.4494    2.3737   22.3744 C.ar    1  UNL1       -0.0011
     40 C           3.8227    2.1060   21.8336 C.ar    1  UNL1        0.0293
     41 C           4.6167    0.9412   22.3460 C.ar    1  UNL1        0.1401
     42 F           5.9900    0.6736   21.8051 F       1  UNL1       -0.2042
     43 C           4.0374    0.0439   23.3993 C.ar    1  UNL1        0.0293
     44 C           2.6642    0.3115   23.9401 C.ar    1  UNL1       -0.0011
@<TRIPOS>BOND
     1     7     8    1
     2     8     6    1
     3     6     9    1
     4     9    10    1
     5     6     5    1
     6     5     4    1
     7     4     1    1
     8     1    11    1
     9    11    12    1
    10    12    13   ar
    11    13    14   ar
    12    14    15   ar
    13    15    18    1
    14    18    19   ar
    15    19    20   ar
    16    20    21   ar
    17    21    22    1
    18    21    23   ar
    19    23    24   ar
    20    15    16   ar
    21    16    17   ar
    22     1     2   am
    23     2     3    2
    24     2    25    1
    25    25    26    1
    26    26    27   ar
    27    27    36    1
    28    36    37    1
    29    37    38    1
    30    38    39   ar
    31    39    40   ar
    32    40    41   ar
    33    41    42    1
    34    41    43   ar
    35    43    44   ar
    36    27    28   ar
    37    28    29   ar
    38    29    30    2
    39    29    31   ar
    40    31    32   ar
    41    32    33    1
    42    33    34    1
    43    34    35    1
    44    17    12   ar
    45    32    26   ar
    46    24    18   ar
    47    44    38   ar
    48    35    31    1
@<TRIPOS>MOLECULE
*****
 44 48 0 0 0
SMALL
GASTEIGER

@<TRIPOS>ATOM
      1 N           3.9262   -0.0496   29.3913 N.am    1  UNL1       -0.2724
      2 C           4.2285   -0.9715   28.2473 C.2     1  UNL1        0.2491
      3 O           3.1121   -1.6841   27.5432 O.2     1  UNL1       -0.2727
      4 C           5.0426    0.6630   30.0954 C.3     1  UNL1        0.1111
      5 C           5.6117    0.0977   31.3628 C.3     1  UNL1        0.0939
      6 N           4.6948   -0.3498   32.4625 N.3     1  UNL1       -0.2712
      7 C           3.0311    1.4297   33.3653 C.3     1  UNL1        0.0188
      8 C           4.2800    0.6160   33.5327 C.3     1  UNL1        0.0722
      9 C           4.1929   -1.7630   32.4921 C.3     1  UNL1        0.0722
     10 C           5.0131   -2.8368   33.1433 C.3     1  UNL1        0.0188
     11 C           2.5075    0.1597   29.8311 C.3     1  UNL1        0.1202
     12 C           1.5293    0.8320   28.9140 C.ar    1  UNL1       -0.0023
     13 C           0.1719    0.2322   28.6954 C.ar    1  UNL1       -0.0026
     14 C          -0.8062    0.9046   27.7782 C.ar    1  UNL1       -0.0003
     15 C          -0.4269    2.1767   27.0797 C.ar    1  UNL1       -0.0000
     16 C           0.9304    2.7765   27.2983 C.ar    1  UNL1       -0.0003
     17 C           1.9086    2.1042   28.2154 C.ar    1  UNL1       -0.0026
     18 C          -1.4051    2.8490   26.1625 C.ar    1  UNL1        0.0001
     19 C          -2.7104    3.3563   26.6999 C.ar    1  UNL1        0.0009
     20 C          -3.6886    4.0286   25.7827 C.ar    1  UNL1        0.0114
     21 C          -3.3614    4.1936   24.3281 C.ar    1  UNL1        0.0577
     22 CL         -4.3396    4.8659   23.4109 Cl      1  UNL1       -0.0822
     23 C          -2.0561    3.6863   23.7907 C.ar    1  UNL1        0.0114
     24 C          -1.0780    3.0140   24.7079 C.ar    1  UNL1        0.0009
     25 C           5.6472   -1.1807   27.8075 C.3     1  UNL1        0.1931
     26 N           6.0937   -2.5319   27.3330 N.ar    1  UNL1       -0.3030
     27 C           6.1568   -2.8277   25.8637 C.ar    1  UNL1        0.1747
     28 N           6.6033   -4.1788   25.3892 N.ar    1  UNL1       -0.1847
     29 C           6.9867   -5.2341   26.3838 C.ar    1  UNL1        0.2779
     30 O           7.4332   -6.5852   25.9093 O.2     1  UNL1       -0.2654
     31 C           6.9237   -4.9383   27.8530 C.ar    1  UNL1        0.0474
     32 C           6.4772   -3.5872   28.3276 C.ar    1  UNL1        0.0399
     33 C           6.5151   -3.5867   29.8271 C.3     1  UNL1        0.0440
     34 C           6.9850   -4.9375   30.2793 C.3     1  UNL1        0.0111
     35 C           7.2375   -5.7728   29.0593 C.3     1  UNL1        0.0328
     36 S           5.7734   -1.7724   24.8690 S.3     1  UNL1       -0.0724
     37 C           4.3901   -1.7555   24.2891 C.3     1  UNL1        0.0913
     38 C           4.1692   -2.1688   22.8642 C.ar    1  UNL1       -0.0108
     39 C           4.6714   -3.4975   22.3821 C.ar    1  UNL1       -0.0011
     40 C           4.4505   -3.9107   20.9571 C.ar    1  UNL1        0.0293
     41 C           3.7273   -2.9952   20.0142 C.ar    1  UNL1        0.1401
     42 F           3.5064   -3.4085   18.5893 F       1  UNL1       -0.2042
     43 C           3.2251   -1.6665   20.4964 C.ar    1  UNL1        0.0293
     44 C           3.4461   -1.2533   21.9213 C.ar    1  UNL1       -0.0011
@<TRIPOS>BOND
     1     7     8    1
     2     8     6    1
     3     6     9    1
     4     9    10    1
     5     6     5    1
     6     5     4    1
     7     4     1    1
     8     1    11    1
     9    11    12    1
    10    12    13   ar
    11    13    14   ar
    12    14    15   ar
    13    15    18    1
    14    18    19   ar
    15    19    20   ar
    16    20    21   ar
    17    21    22    1
    18    21    23   ar
    19    23    24   ar
    20    15    16   ar
    21    16    17   ar
    22     1     2   am
    23     2     3    2
    24     2    25    1
    25    25    26    1
    26    26    27   ar
    27    27    36    1
    28    36    37    1
    29    37    38    1
    30    38    39   ar
    31    39    40   ar
    32    40    41   ar
    33    41    42    1
    34    41    43   ar
    35    43    44   ar
    36    27    28   ar
    37    28    29   ar
    38    29    30    2
    39    29    31   ar
    40    31    32   ar
    41    32    33    1
    42    33    34    1
    43    34    35    1
    44    17    12   ar
    45    32    26   ar
    46    24    18   ar
    47    44    38   ar
    48    35    31    1
@<TRIPOS>MOLECULE
*****
 44 48 0 0 0
SMALL
GASTEIGER

@<TRIPOS>ATOM
      1 N           1.7204    1.2495   27.8322 N.am    1  UNL1       -0.2724
      2 C           2.5402    0.8846   29.0342 C.2     1  UNL1        0.2491
      3 O           4.0309    1.0485   29.0032 O.2     1  UNL1       -0.2727
      4 C           0.2297    1.0856   27.8633 C.3     1  UNL1        0.1111
      5 C          -0.6189    1.7418   26.8148 C.3     1  UNL1        0.0939
      6 N          -1.1424    3.1303   27.0345 N.3     1  UNL1       -0.2712
      7 C           0.6396    5.0201   26.9838 C.3     1  UNL1        0.0188
      8 C          -0.3025    4.1433   27.7543 C.3     1  UNL1        0.0722
      9 C          -2.5059    3.5056   26.5344 C.3     1  UNL1        0.0722
     10 C          -2.7778    3.5505   25.0599 C.3     1  UNL1        0.0188
     11 C           2.3913    1.7782   26.5992 C.3     1  UNL1        0.1202
     12 C           2.7011    0.8541   25.4590 C.ar    1  UNL1       -0.0023
     13 C           2.1397    1.1303   24.0958 C.ar    1  UNL1       -0.0026
     14 C           2.4496    0.2061   22.9557 C.ar    1  UNL1       -0.0003
     15 C           3.3208   -0.9943   23.1789 C.ar    1  UNL1       -0.0000
     16 C           3.8823   -1.2706   24.5421 C.ar    1  UNL1       -0.0003
     17 C           3.5724   -0.3464   25.6823 C.ar    1  UNL1       -0.0026
     18 C           3.6307   -1.9185   22.0387 C.ar    1  UNL1        0.0001
     19 C           3.1358   -1.5997   20.6591 C.ar    1  UNL1        0.0009
     20 C           3.4456   -2.5239   19.5189 C.ar    1  UNL1        0.0114
     21 C           4.2504   -3.7669   19.7585 C.ar    1  UNL1        0.0577
     22 CL          4.5602   -4.6911   18.6183 Cl      1  UNL1       -0.0822
     23 C           4.7453   -4.0857   21.1381 C.ar    1  UNL1        0.0114
     24 C           4.4354   -3.1615   22.2782 C.ar    1  UNL1        0.0009
     25 C           1.8693    0.3559   30.2672 C.3     1  UNL1        0.1931
     26 N           2.2442    0.8964   31.6153 N.ar    1  UNL1       -0.3030
     27 C           3.2477    0.1707   32.4618 C.ar    1  UNL1        0.1747
     28 N           3.6226    0.7111   33.8098 N.ar    1  UNL1       -0.1847
     29 C           2.9941    1.9773   34.3115 C.ar    1  UNL1        0.2779
     30 O           3.3690    2.5178   35.6596 O.2     1  UNL1       -0.2654
     31 C           1.9906    2.7031   33.4651 C.ar    1  UNL1        0.0474
     32 C           1.6157    2.1626   32.1170 C.ar    1  UNL1        0.0399
     33 C           0.6037    3.0893   31.5111 C.3     1  UNL1        0.0440
     34 C           0.3532    4.2025   32.4848 C.3     1  UNL1        0.0111
     35 C           1.2104    3.9638   33.6924 C.3     1  UNL1        0.0328
     36 S           3.8763   -1.0956   31.9601 S.3     1  UNL1       -0.0724
     37 C           5.3590   -1.1621   31.7432 C.3     1  UNL1        0.0913
     38 C           5.9858   -2.4236   31.2278 C.ar    1  UNL1       -0.0108
     39 C           6.2509   -2.5840   29.7601 C.ar    1  UNL1       -0.0011
     40 C           6.8777   -3.8457   29.2447 C.ar    1  UNL1        0.0293
     41 C           7.2393   -4.9468   30.1970 C.ar    1  UNL1        0.1401
     42 F           7.8660   -6.2084   29.6815 F       1  UNL1       -0.2042
     43 C           6.9741   -4.7863   31.6646 C.ar    1  UNL1        0.0293
     44 C           6.3473   -3.5248   32.1800 C.ar    1  UNL1       -0.0011
@<TRIPOS>BOND
     1     7     8    1
     2     8     6    1
     3     6     9    1
     4     9    10    1
     5     6     5    1
     6     5     4    1
     7     4     1    1
     8     1    11    1
     9    11    12    1
    10    12    13   ar
    11    13    14   ar
    12    14    15   ar
    13    15    18    1
    14    18    19   ar
    15    19    20   ar
    16    20    21   ar
    17    21    22    1
    18    21    23   ar
    19    23    24   ar
    20    15    16   ar
    21    16    17   ar
    22     1     2   am
    23     2     3    2
    24     2    25    1
    25    25    26    1
    26    26    27   ar
    27    27    36    1
    28    36    37    1
    29    37    38    1
    30    38    39   ar
    31    39    40   ar
    32    40    41   ar
    33    41    42    1
    34    41    43   ar
    35    43    44   ar
    36    27    28   ar
    37    28    29   ar
    38    29    30    2
    39    29    31   ar
    40    31    32   ar
    41    32    33    1
    42    33    34    1
    43    34    35    1
    44    17    12   ar
    45    32    26   ar
    46    24    18   ar
    47    44    38   ar
    48    35    31    1
@<TRIPOS>MOLECULE
*****
 44 48 0 0 0
SMALL
GASTEIGER

@<TRIPOS>ATOM
      1 N           3.1995    0.3310   27.2363 N.am    1  UNL1       -0.2724
      2 C           4.0303   -0.2687   26.1408 C.2     1  UNL1        0.2491
      3 O           4.5093    0.5893   25.0075 O.2     1  UNL1       -0.2727
      4 C           2.7205   -0.5271   28.3696 C.3     1  UNL1        0.1111
      5 C           2.2537    0.1080   29.6458 C.3     1  UNL1        0.0939
      6 N           0.8140    0.4975   29.8068 N.3     1  UNL1       -0.2712
      7 C          -1.5656    0.4243   28.7667 C.3     1  UNL1        0.0188
      8 C          -0.2516   -0.2405   29.0518 C.3     1  UNL1        0.0722
      9 C           0.4400    1.6248   30.7229 C.3     1  UNL1        0.0722
     10 C           1.4325    2.7088   31.0223 C.3     1  UNL1        0.0188
     11 C           2.8479    1.7887   27.1986 C.3     1  UNL1        0.1202
     12 C           1.4624    2.2163   26.8145 C.ar    1  UNL1       -0.0023
     13 C           0.7011    1.4474   25.7756 C.ar    1  UNL1       -0.0026
     14 C          -0.6844    1.8750   25.3915 C.ar    1  UNL1       -0.0003
     15 C          -1.3085    3.0715   26.0462 C.ar    1  UNL1       -0.0000
     16 C          -0.5473    3.8405   27.0851 C.ar    1  UNL1       -0.0003
     17 C           0.8382    3.4129   27.4693 C.ar    1  UNL1       -0.0026
     18 C          -2.6940    3.4991   25.6620 C.ar    1  UNL1        0.0001
     19 C          -3.6140    4.0779   26.6958 C.ar    1  UNL1        0.0009
     20 C          -4.9995    4.5055   26.3116 C.ar    1  UNL1        0.0114
     21 C          -5.4650    4.3543   24.8936 C.ar    1  UNL1        0.0577
     22 CL         -6.8505    4.7819   24.5094 Cl      1  UNL1       -0.0822
     23 C          -4.5450    3.7755   23.8599 C.ar    1  UNL1        0.0114
     24 C          -3.1595    3.3479   24.2442 C.ar    1  UNL1        0.0009
     25 C           4.3819   -1.7264   26.1785 C.3     1  UNL1        0.1931
     26 N           5.5958   -2.2241   25.4511 N.ar    1  UNL1       -0.3030
     27 C           6.9222   -2.2713   26.1501 C.ar    1  UNL1        0.1747
     28 N           8.1359   -2.7690   25.4228 N.ar    1  UNL1       -0.1847
     29 C           8.0234   -3.2194   23.9965 C.ar    1  UNL1        0.2779
     30 O           9.2373   -3.7171   23.2692 O.2     1  UNL1       -0.2654
     31 C           6.6971   -3.1722   23.2975 C.ar    1  UNL1        0.0474
     32 C           5.4833   -2.6745   24.0248 C.ar    1  UNL1        0.0399
     33 C           4.3181   -2.7421   23.0825 C.3     1  UNL1        0.0440
     34 C           4.8119   -3.2816   21.7729 C.3     1  UNL1        0.0111
     35 C           6.2822   -3.5474   21.9057 C.3     1  UNL1        0.0328
     36 S           7.0346   -1.8209   27.5765 S.3     1  UNL1       -0.0724
     37 C           7.3480   -2.8156   28.6547 C.3     1  UNL1        0.0913
     38 C           6.6557   -2.7256   29.9823 C.ar    1  UNL1       -0.0108
     39 C           6.9296   -3.7513   31.0420 C.ar    1  UNL1       -0.0011
     40 C           6.2372   -3.6613   32.3697 C.ar    1  UNL1        0.0293
     41 C           5.2711   -2.5456   32.6376 C.ar    1  UNL1        0.1401
     42 F           4.5788   -2.4557   33.9653 F       1  UNL1       -0.2042
     43 C           4.9973   -1.5199   31.5779 C.ar    1  UNL1        0.0293
     44 C           5.6896   -1.6099   30.2503 C.ar    1  UNL1       -0.0011
@<TRIPOS>BOND
     1     7     8    1
     2     8     6    1
     3     6     9    1
     4     9    10    1
     5     6     5    1
     6     5     4    1
     7     4     1    1
     8     1    11    1
     9    11    12    1
    10    12    13   ar
    11    13    14   ar
    12    14    15   ar
    13    15    18    1
    14    18    19   ar
    15    19    20   ar
    16    20    21   ar
    17    21    22    1
    18    21    23   ar
    19    23    24   ar
    20    15    16   ar
    21    16    17   ar
    22     1     2   am
    23     2     3    2
    24     2    25    1
    25    25    26    1
    26    26    27   ar
    27    27    36    1
    28    36    37    1
    29    37    38    1
    30    38    39   ar
    31    39    40   ar
    32    40    41   ar
    33    41    42    1
    34    41    43   ar
    35    43    44   ar
    36    27    28   ar
    37    28    29   ar
    38    29    30    2
    39    29    31   ar
    40    31    32   ar
    41    32    33    1
    42    33    34    1
    43    34    35    1
    44    17    12   ar
    45    32    26   ar
    46    24    18   ar
    47    44    38   ar
    48    35    31    1
@<TRIPOS>MOLECULE
*****
 44 48 0 0 0
SMALL
GASTEIGER

@<TRIPOS>ATOM
      1 N           2.8808    0.4375   27.1936 N.am    1  UNL1       -0.2724
      2 C           3.6419   -0.1679   26.0515 C.2     1  UNL1        0.2491
      3 O           4.0725    0.6899   24.8988 O.2     1  UNL1       -0.2727
      4 C           2.4501   -0.4203   28.3462 C.3     1  UNL1        0.1111
      5 C           2.0756    0.2129   29.6534 C.3     1  UNL1        0.0939
      6 N           0.6442    0.5626   29.9346 N.3     1  UNL1       -0.2712
      7 C           1.3180    2.7625   31.1413 C.3     1  UNL1        0.0188
      8 C           0.3168    1.6751   30.8860 C.3     1  UNL1        0.0722
      9 C          -0.4598   -0.2003   29.2643 C.3     1  UNL1        0.0722
     10 C          -1.6418    0.5310   28.7003 C.3     1  UNL1        0.0188
     11 C           2.5504    1.9006   27.1829 C.3     1  UNL1        0.1202
     12 C           1.1663    2.3544   26.8244 C.ar    1  UNL1       -0.0023
     13 C           0.4391    1.7119   25.6806 C.ar    1  UNL1       -0.0026
     14 C          -0.9450    2.1657   25.3222 C.ar    1  UNL1       -0.0003
     15 C          -1.6017    3.2620   26.1075 C.ar    1  UNL1       -0.0000
     16 C          -0.8745    3.9045   27.2513 C.ar    1  UNL1       -0.0003
     17 C           0.5096    3.4508   27.6098 C.ar    1  UNL1       -0.0026
     18 C          -2.9857    3.7158   25.7491 C.ar    1  UNL1        0.0001
     19 C          -3.8263    4.4327   26.7636 C.ar    1  UNL1        0.0009
     20 C          -5.2104    4.8865   26.4052 C.ar    1  UNL1        0.0114
     21 C          -5.7539    4.6233   25.0320 C.ar    1  UNL1        0.0577
     22 CL         -7.1379    5.0771   24.6735 Cl      1  UNL1       -0.0822
     23 C          -4.9133    3.9064   24.0174 C.ar    1  UNL1        0.0114
     24 C          -3.5292    3.4527   24.3760 C.ar    1  UNL1        0.0009
     25 C           3.9722   -1.6310   26.0622 C.3     1  UNL1        0.1931
     26 N           5.3632   -2.0881   25.7361 N.ar    1  UNL1       -0.3030
     27 C           5.6944   -2.5516   24.3484 C.ar    1  UNL1        0.1747
     28 N           7.0853   -3.0087   24.0223 N.ar    1  UNL1       -0.1847
     29 C           8.1451   -3.0024   25.0838 C.ar    1  UNL1        0.2779
     30 O           9.5360   -3.4595   24.7576 O.2     1  UNL1       -0.2654
     31 C           7.8140   -2.5389   26.4714 C.ar    1  UNL1        0.0474
     32 C           6.4230   -2.0817   26.7976 C.ar    1  UNL1        0.0399
     33 C           6.3933   -1.6825   28.2431 C.3     1  UNL1        0.0440
     34 C           7.7659   -1.8928   28.8104 C.3     1  UNL1        0.0111
     35 C           8.6439   -2.4221   27.7154 C.3     1  UNL1        0.0328
     36 S           4.6346   -2.5580   23.2869 S.3     1  UNL1       -0.0724
     37 C           4.7938   -3.4251   22.0733 C.3     1  UNL1        0.0913
     38 C           4.5598   -2.8527   20.7067 C.ar    1  UNL1       -0.0108
     39 C           5.3690   -3.3392   19.5411 C.ar    1  UNL1       -0.0011
     40 C           5.1349   -2.7667   18.1745 C.ar    1  UNL1        0.0293
     41 C           4.0915   -1.7079   17.9734 C.ar    1  UNL1        0.1401
     42 F           3.8575   -1.1356   16.6068 F       1  UNL1       -0.2042
     43 C           3.2823   -1.2215   19.1390 C.ar    1  UNL1        0.0293
     44 C           3.5164   -1.7939   20.5056 C.ar    1  UNL1       -0.0011
@<TRIPOS>BOND
     1     7     8    1
     2     8     6    1
     3     6     9    1
     4     9    10    1
     5     6     5    1
     6     5     4    1
     7     4     1    1
     8     1    11    1
     9    11    12    1
    10    12    13   ar
    11    13    14   ar
    12    14    15   ar
    13    15    18    1
    14    18    19   ar
    15    19    20   ar
    16    20    21   ar
    17    21    22    1
    18    21    23   ar
    19    23    24   ar
    20    15    16   ar
    21    16    17   ar
    22     1     2   am
    23     2     3    2
    24     2    25    1
    25    25    26    1
    26    26    27   ar
    27    27    36    1
    28    36    37    1
    29    37    38    1
    30    38    39   ar
    31    39    40   ar
    32    40    41   ar
    33    41    42    1
    34    41    43   ar
    35    43    44   ar
    36    27    28   ar
    37    28    29   ar
    38    29    30    2
    39    29    31   ar
    40    31    32   ar
    41    32    33    1
    42    33    34    1
    43    34    35    1
    44    17    12   ar
    45    32    26   ar
    46    24    18   ar
    47    44    38   ar
    48    35    31    1
@<TRIPOS>MOLECULE
*****
 44 48 0 0 0
SMALL
GASTEIGER

@<TRIPOS>ATOM
      1 N           2.0434    1.4080   27.9861 N.am    1  UNL1       -0.2724
      2 C           2.7608    0.9800   29.2320 C.2     1  UNL1        0.2491
      3 O           4.2598    1.0028   29.2796 O.2     1  UNL1       -0.2727
      4 C           0.5443    1.3851   27.9386 C.3     1  UNL1        0.1111
      5 C          -0.2219    2.6692   27.8199 C.3     1  UNL1        0.0939
      6 N          -1.1012    2.9106   26.6288 N.3     1  UNL1       -0.2712
      7 C          -1.9926    5.2849   27.1922 C.3     1  UNL1        0.0188
      8 C          -2.2401    3.8823   26.7219 C.3     1  UNL1        0.0722
      9 C          -0.8415    2.1803   25.3445 C.3     1  UNL1        0.0722
     10 C          -0.5040    2.9473   24.1005 C.3     1  UNL1        0.0188
     11 C           2.8250    1.8589   26.7879 C.3     1  UNL1        0.1202
     12 C           3.0408    0.9214   25.6370 C.ar    1  UNL1       -0.0023
     13 C           3.6609   -0.4241   25.8718 C.ar    1  UNL1       -0.0026
     14 C           3.8767   -1.3616   24.7208 C.ar    1  UNL1       -0.0003
     15 C           3.4724   -0.9535   23.3352 C.ar    1  UNL1       -0.0000
     16 C           2.8523    0.3920   23.1005 C.ar    1  UNL1       -0.0003
     17 C           2.6365    1.3295   24.2513 C.ar    1  UNL1       -0.0026
     18 C           3.6882   -1.8910   22.1843 C.ar    1  UNL1        0.0001
     19 C           3.1756   -1.5346   20.8204 C.ar    1  UNL1        0.0009
     20 C           3.3914   -2.4721   19.6695 C.ar    1  UNL1        0.0114
     21 C           4.1198   -3.7661   19.8826 C.ar    1  UNL1        0.0577
     22 CL          4.3356   -4.7036   18.7317 Cl      1  UNL1       -0.0822
     23 C           4.6324   -4.1224   21.2465 C.ar    1  UNL1        0.0114
     24 C           4.4165   -3.1849   22.3974 C.ar    1  UNL1        0.0009
     25 C           1.9791    0.5291   30.4302 C.3     1  UNL1        0.1931
     26 N           2.5343    0.7345   31.8085 N.ar    1  UNL1       -0.3030
     27 C           2.1195    1.9303   32.6136 C.ar    1  UNL1        0.1747
     28 N           2.6747    2.1357   33.9918 N.ar    1  UNL1       -0.1847
     29 C           3.6446    1.1455   34.5650 C.ar    1  UNL1        0.2779
     30 O           4.1997    1.3509   35.9433 O.2     1  UNL1       -0.2654
     31 C           4.0594   -0.0503   33.7600 C.ar    1  UNL1        0.0474
     32 C           3.5042   -0.2558   32.3817 C.ar    1  UNL1        0.0399
     33 C           4.0930   -1.5196   31.8285 C.3     1  UNL1        0.0440
     34 C           5.0120   -2.0952   32.8648 C.3     1  UNL1        0.0111
     35 C           4.9912   -1.1872   34.0586 C.3     1  UNL1        0.0328
     36 S           1.1496    2.9207   32.0404 S.3     1  UNL1       -0.0724
     37 C           1.3749    4.3907   32.2361 C.3     1  UNL1        0.0913
     38 C           0.4785    5.1716   33.1507 C.ar    1  UNL1       -0.0108
     39 C           0.9726    5.5976   34.5014 C.ar    1  UNL1       -0.0011
     40 C           0.0760    6.3786   35.4159 C.ar    1  UNL1        0.0293
     41 C          -1.3146    6.7336   34.9798 C.ar    1  UNL1        0.1401
     42 F          -2.2111    7.5145   35.8943 F       1  UNL1       -0.2042
     43 C          -1.8086    6.3076   33.6290 C.ar    1  UNL1        0.0293
     44 C          -0.9121    5.5267   32.7145 C.ar    1  UNL1       -0.0011
@<TRIPOS>BOND
     1     7     8    1
     2     8     6    1
     3     6     9    1
     4     9    10    1
     5     6     5    1
     6     5     4    1
     7     4     1    1
     8     1    11    1
     9    11    12    1
    10    12    13   ar
    11    13    14   ar
    12    14    15   ar
    13    15    18    1
    14    18    19   ar
    15    19    20   ar
    16    20    21   ar
    17    21    22    1
    18    21    23   ar
    19    23    24   ar
    20    15    16   ar
    21    16    17   ar
    22     1     2   am
    23     2     3    2
    24     2    25    1
    25    25    26    1
    26    26    27   ar
    27    27    36    1
    28    36    37    1
    29    37    38    1
    30    38    39   ar
    31    39    40   ar
    32    40    41   ar
    33    41    42    1
    34    41    43   ar
    35    43    44   ar
    36    27    28   ar
    37    28    29   ar
    38    29    30    2
    39    29    31   ar
    40    31    32   ar
    41    32    33    1
    42    33    34    1
    43    34    35    1
    44    17    12   ar
    45    32    26   ar
    46    24    18   ar
    47    44    38   ar
    48    35    31    1
@<TRIPOS>MOLECULE
*****
 44 48 0 0 0
SMALL
GASTEIGER

@<TRIPOS>ATOM
      1 N           2.1177    1.0674   23.7750 N.am    1  UNL1       -0.2724
      2 C           2.0575    1.2784   22.2912 C.2     1  UNL1        0.2491
      3 O           3.3238    1.4534   21.5065 O.2     1  UNL1       -0.2727
      4 C           0.8514    0.8925   24.5596 C.3     1  UNL1        0.1111
      5 C           0.8039    1.2901   26.0052 C.3     1  UNL1        0.0939
      6 N          -0.4842    1.7636   26.6109 N.3     1  UNL1       -0.2712
      7 C          -0.9859   -0.0693   28.3826 C.3     1  UNL1        0.0188
      8 C          -0.8384    1.3779   28.0166 C.3     1  UNL1        0.0722
      9 C          -1.4180    2.6227   25.8110 C.3     1  UNL1        0.0722
     10 C          -2.1908    3.7184   26.4834 C.3     1  UNL1        0.0188
     11 C           3.4443    1.0313   24.4742 C.3     1  UNL1        0.1202
     12 C           4.2411   -0.2392   24.5060 C.ar    1  UNL1       -0.0023
     13 C           3.9030   -1.3601   23.5683 C.ar    1  UNL1       -0.0026
     14 C           4.6998   -2.6306   23.6001 C.ar    1  UNL1       -0.0003
     15 C           5.8346   -2.7801   24.5696 C.ar    1  UNL1       -0.0000
     16 C           6.1727   -1.6592   25.5072 C.ar    1  UNL1       -0.0003
     17 C           5.3759   -0.3887   25.4755 C.ar    1  UNL1       -0.0026
     18 C           6.6313   -4.0506   24.6014 C.ar    1  UNL1        0.0001
     19 C           6.7445   -4.8333   25.8760 C.ar    1  UNL1        0.0009
     20 C           7.5412   -6.1038   25.9078 C.ar    1  UNL1        0.0114
     21 C           8.2249   -6.5917   24.6648 C.ar    1  UNL1        0.0577
     22 CL          9.0216   -7.8622   24.6966 Cl      1  UNL1       -0.0822
     23 C           8.1117   -5.8090   23.3902 C.ar    1  UNL1        0.0114
     24 C           7.3149   -4.5385   23.3585 C.ar    1  UNL1        0.0009
     25 C           0.7309    1.3145   21.5920 C.3     1  UNL1        0.1931
     26 N           0.4496    2.3774   20.5716 N.ar    1  UNL1       -0.3030
     27 C           0.6432    2.0867   19.1128 C.ar    1  UNL1        0.1747
     28 N           0.3620    3.1494   18.0924 N.ar    1  UNL1       -0.1847
     29 C          -0.1129    4.5031   18.5307 C.ar    1  UNL1        0.2779
     30 O          -0.3941    5.5659   17.5102 O.2     1  UNL1       -0.2654
     31 C          -0.3065    4.7939   19.9894 C.ar    1  UNL1        0.0474
     32 C          -0.0253    3.7311   21.0099 C.ar    1  UNL1        0.0399
     33 C          -0.3054    4.3056   22.3669 C.3     1  UNL1        0.0440
     34 C          -0.7598    5.7235   22.1851 C.3     1  UNL1        0.0111
     35 C          -0.7605    6.0253   20.7158 C.3     1  UNL1        0.0328
     36 S           1.1181    0.7329   18.6745 S.3     1  UNL1       -0.0724
     37 C           2.5188    0.5575   18.1670 C.3     1  UNL1        0.0913
     38 C           3.2955   -0.6761   18.5203 C.ar    1  UNL1       -0.0108
     39 C           2.8948   -1.5003   19.7078 C.ar    1  UNL1       -0.0011
     40 C           3.6716   -2.7339   20.0610 C.ar    1  UNL1        0.0293
     41 C           4.8491   -3.1433   19.2268 C.ar    1  UNL1        0.1401
     42 F           5.6259   -4.3769   19.5801 F       1  UNL1       -0.2042
     43 C           5.2498   -2.3190   18.0394 C.ar    1  UNL1        0.0293
     44 C           4.4730   -1.0855   17.6861 C.ar    1  UNL1       -0.0011
@<TRIPOS>BOND
     1     7     8    1
     2     8     6    1
     3     6     9    1
     4     9    10    1
     5     6     5    1
     6     5     4    1
     7     4     1    1
     8     1    11    1
     9    11    12    1
    10    12    13   ar
    11    13    14   ar
    12    14    15   ar
    13    15    18    1
    14    18    19   ar
    15    19    20   ar
    16    20    21   ar
    17    21    22    1
    18    21    23   ar
    19    23    24   ar
    20    15    16   ar
    21    16    17   ar
    22     1     2   am
    23     2     3    2
    24     2    25    1
    25    25    26    1
    26    26    27   ar
    27    27    36    1
    28    36    37    1
    29    37    38    1
    30    38    39   ar
    31    39    40   ar
    32    40    41   ar
    33    41    42    1
    34    41    43   ar
    35    43    44   ar
    36    27    28   ar
    37    28    29   ar
    38    29    30    2
    39    29    31   ar
    40    31    32   ar
    41    32    33    1
    42    33    34    1
    43    34    35    1
    44    17    12   ar
    45    32    26   ar
    46    24    18   ar
    47    44    38   ar
    48    35    31    1
