@<TRIPOS>MOLECULE
*****
 41 46 0 0 0
SMALL
GASTEIGER

@<TRIPOS>ATOM
      1 N           2.7102    2.7554   35.0823 N.3     1  UNL1       -0.2676
      2 C           3.4697    1.6186   34.4653 C.3     1  UNL1        0.0746
      3 C           3.2094    1.2286   33.0405 C.3     1  UNL1        0.0450
      4 C           2.1897    1.9754   32.2327 C.3     1  UNL1        0.1405
      5 C           1.4303    3.1122   32.8497 C.3     1  UNL1        0.0450
      6 C           1.6905    3.5022   34.2745 C.3     1  UNL1        0.0746
      7 C           1.2057    2.6259   31.3061 C.2     1  UNL1        0.2529
      8 O           0.3092    3.7808   31.6417 O.2     1  UNL1       -0.2724
      9 N           1.2756    1.9189   29.9850 N.am    1  UNL1       -0.1907
     10 C           2.3029    0.8313   30.0951 C.2     1  UNL1        0.3231
     11 O           2.6961   -0.1235   29.0072 O.2     1  UNL1       -0.2511
     12 N           2.8678    0.8662   31.4842 N.am    1  UNL1       -0.2071
     13 C           0.4613    2.2425   28.7676 C.ar    1  UNL1        0.0622
     14 C           0.2583    3.6714   28.3592 C.ar    1  UNL1        0.0154
     15 C          -0.5560    3.9951   27.1418 C.ar    1  UNL1        0.0013
     16 C          -1.1673    2.8899   26.3327 C.ar    1  UNL1        0.0001
     17 C          -0.9642    1.4608   26.7411 C.ar    1  UNL1        0.0013
     18 C          -0.1499    1.1372   27.9585 C.ar    1  UNL1        0.0154
     19 C          -1.9816    3.2135   25.1153 C.ar    1  UNL1        0.0000
     20 C          -1.3271    3.2623   23.7665 C.ar    1  UNL1        0.0000
     21 C          -2.1414    3.5859   22.5490 C.ar    1  UNL1        0.0011
     22 C          -3.6102    3.8609   22.6804 C.ar    1  UNL1        0.0140
     23 C          -4.2647    3.8121   24.0293 C.ar    1  UNL1        0.0011
     24 C          -3.4503    3.4884   25.2468 C.ar    1  UNL1        0.0000
     25 C          -4.4245    4.1845   21.4630 C.2     1  UNL1        0.0729
     26 O          -5.1738    5.4816   21.3850 O.co2   1  UNL1       -0.5446
     27 O          -4.4896    3.2111   20.3236 O.co2   1  UNL1       -0.5446
     28 C           3.9251   -0.0475   32.0293 C.ar    1  UNL1        0.2276
     29 N           5.3715    0.3386   31.9349 N.ar    1  UNL1       -0.2117
     30 C           6.4288   -0.5752   32.4800 C.ar    1  UNL1        0.1034
     31 C           6.0397   -1.8752   33.1195 C.ar    1  UNL1        0.0414
     32 C           4.5933   -2.2612   33.2139 C.ar    1  UNL1        0.1034
     33 N           3.5361   -1.3474   32.6688 N.ar    1  UNL1       -0.2117
     34 C           2.9704    3.1455   36.5072 C.3     1  UNL1        0.1183
     35 C           3.9700    0.5924   37.7248 C.3     1  UNL1        0.0323
     36 C           2.7005    1.2153   38.2251 C.ar    1  UNL1       -0.0069
     37 C           1.9307    0.5616   39.3342 C.ar    1  UNL1       -0.0015
     38 C           0.6611    1.1845   39.8345 C.ar    1  UNL1        0.0203
     39 C           0.1614    2.4610   39.2257 C.ar    1  UNL1        0.0985
     40 N           0.9311    3.1147   38.1166 N.ar    1  UNL1       -0.2471
     41 C           2.2007    2.4919   37.6163 C.ar    1  UNL1        0.0712
@<TRIPOS>UNITY_ATOM_ATTR
26 1
charge -1
@<TRIPOS>BOND
     1    35    36    1
     2    36    37   ar
     3    37    38   ar
     4    38    39   ar
     5    39    40   ar
     6    40    41   ar
     7    41    34    1
     8    34     1    1
     9     1     2    1
    10     2     3    1
    11     3     4    1
    12     4     5    1
    13     5     6    1
    14     4     7    1
    15     7     8    2
    16     7     9   am
    17     9    13    1
    18    13    14   ar
    19    14    15   ar
    20    15    16   ar
    21    16    19    1
    22    19    20   ar
    23    20    21   ar
    24    21    22   ar
    25    22    25    1
    26    25    26   ar
    27    25    27   ar
    28    22    23   ar
    29    23    24   ar
    30    16    17   ar
    31    17    18   ar
    32     9    10   am
    33    10    11    2
    34    10    12   am
    35    12    28    1
    36    28    29   ar
    37    29    30   ar
    38    30    31   ar
    39    31    32   ar
    40    32    33   ar
    41    41    36   ar
    42     6     1    1
    43    18    13   ar
    44    33    28   ar
    45    12     4    1
    46    24    19   ar
@<TRIPOS>MOLECULE
*****
 41 46 0 0 0
SMALL
GASTEIGER

@<TRIPOS>ATOM
      1 N           6.5051   -2.6018   24.0926 N.3     1  UNL1       -0.2676
      2 C           6.0723   -2.5549   22.6572 C.3     1  UNL1        0.0746
      3 C           4.8417   -1.7898   22.2695 C.3     1  UNL1        0.0450
      4 C           4.0439   -1.0717   23.3172 C.3     1  UNL1        0.1405
      5 C           4.4766   -1.1187   24.7527 C.3     1  UNL1        0.0450
      6 C           5.7072   -1.8837   25.1403 C.3     1  UNL1        0.0746
      7 C           3.1500   -0.3086   24.2492 C.2     1  UNL1        0.2529
      8 O           3.3298   -0.1764   25.7325 O.2     1  UNL1       -0.2724
      9 N           2.0447    0.2993   23.4375 N.am    1  UNL1       -0.1907
     10 C           2.2555   -0.0882   22.0037 C.2     1  UNL1        0.3231
     11 O           1.3838    0.3029   20.8475 O.2     1  UNL1       -0.2511
     12 N           3.4910   -0.9355   21.9294 N.am    1  UNL1       -0.2071
     13 C           0.9252    1.1460   23.9665 C.ar    1  UNL1        0.0622
     14 C           0.3216    2.2150   23.1047 C.ar    1  UNL1        0.0154
     15 C          -0.7979    3.0617   23.6338 C.ar    1  UNL1        0.0013
     16 C          -1.3137    2.8394   25.0246 C.ar    1  UNL1        0.0001
     17 C          -0.7100    1.7703   25.8864 C.ar    1  UNL1        0.0013
     18 C           0.4094    0.9236   25.3574 C.ar    1  UNL1        0.0154
     19 C          -2.4332    3.6861   25.5536 C.ar    1  UNL1        0.0000
     20 C          -2.1802    4.6471   26.6772 C.ar    1  UNL1        0.0000
     21 C          -3.2997    5.4938   27.2062 C.ar    1  UNL1        0.0011
     22 C          -4.6722    5.3795   26.6117 C.ar    1  UNL1        0.0140
     23 C          -4.9251    4.4184   25.4881 C.ar    1  UNL1        0.0011
     24 C          -3.8055    3.5717   24.9591 C.ar    1  UNL1        0.0000
     25 C          -5.7916    6.2262   27.1407 C.2     1  UNL1        0.0729
     26 O          -6.5082    5.8234   28.3954 O.co2   1  UNL1       -0.5446
     27 O          -6.1945    7.4756   26.4150 O.co2   1  UNL1       -0.5446
     28 C           4.0717   -1.5405   20.6858 C.ar    1  UNL1        0.2276
     29 N           3.6343   -2.9044   20.2403 N.ar    1  UNL1       -0.2117
     30 C           4.2152   -3.5093   18.9967 C.ar    1  UNL1        0.1034
     31 C           5.2334   -2.7503   18.1984 C.ar    1  UNL1        0.0414
     32 C           5.6708   -1.3864   18.6439 C.ar    1  UNL1        0.1034
     33 N           5.0900   -0.7815   19.8875 N.ar    1  UNL1       -0.2117
     34 C           7.7357   -3.3668   24.4803 C.3     1  UNL1        0.1183
     35 C           8.8296   -5.5759   22.7705 C.3     1  UNL1        0.0323
     36 C           8.1681   -5.8969   24.0779 C.ar    1  UNL1       -0.0069
     37 C           8.0535   -7.3224   24.5305 C.ar    1  UNL1       -0.0015
     38 C           7.3920   -7.6434   25.8379 C.ar    1  UNL1        0.0203
     39 C           6.8451   -6.5389   26.6928 C.ar    1  UNL1        0.0985
     40 N           6.9596   -5.1133   26.2403 N.ar    1  UNL1       -0.2471
     41 C           7.6211   -4.7923   24.9328 C.ar    1  UNL1        0.0712
@<TRIPOS>UNITY_ATOM_ATTR
26 1
charge -1
@<TRIPOS>BOND
     1    35    36    1
     2    36    37   ar
     3    37    38   ar
     4    38    39   ar
     5    39    40   ar
     6    40    41   ar
     7    41    34    1
     8    34     1    1
     9     1     2    1
    10     2     3    1
    11     3     4    1
    12     4     5    1
    13     5     6    1
    14     4     7    1
    15     7     8    2
    16     7     9   am
    17     9    13    1
    18    13    14   ar
    19    14    15   ar
    20    15    16   ar
    21    16    19    1
    22    19    20   ar
    23    20    21   ar
    24    21    22   ar
    25    22    25    1
    26    25    26   ar
    27    25    27   ar
    28    22    23   ar
    29    23    24   ar
    30    16    17   ar
    31    17    18   ar
    32     9    10   am
    33    10    11    2
    34    10    12   am
    35    12    28    1
    36    28    29   ar
    37    29    30   ar
    38    30    31   ar
    39    31    32   ar
    40    32    33   ar
    41    41    36   ar
    42     6     1    1
    43    18    13   ar
    44    33    28   ar
    45    12     4    1
    46    24    19   ar
@<TRIPOS>MOLECULE
*****
 41 46 0 0 0
SMALL
GASTEIGER

@<TRIPOS>ATOM
      1 N           4.3199    0.8664   35.3595 N.3     1  UNL1       -0.2676
      2 C           5.0300   -0.0640   34.4214 C.3     1  UNL1        0.0746
      3 C           4.5821   -0.1761   32.9943 C.3     1  UNL1        0.0450
      4 C           3.4240    0.6422   32.5053 C.3     1  UNL1        0.1405
      5 C           2.7139    1.5727   33.4433 C.3     1  UNL1        0.0450
      6 C           3.1619    1.6847   34.8704 C.3     1  UNL1        0.0746
      7 C           2.2881    1.3932   31.8761 C.2     1  UNL1        0.2529
      8 O           1.4007    2.3881   32.5637 O.2     1  UNL1       -0.2724
      9 N           2.1953    0.9746   30.4386 N.am    1  UNL1       -0.1907
     10 C           3.2739   -0.0351   30.1794 C.2     1  UNL1        0.3231
     11 O           3.5455   -0.7192   28.8725 O.2     1  UNL1       -0.2511
     12 N           4.0333   -0.2405   31.4566 N.am    1  UNL1       -0.2071
     13 C           1.1989    1.4774   29.4364 C.ar    1  UNL1        0.0622
     14 C           0.0427    0.6128   29.0297 C.ar    1  UNL1        0.0154
     15 C          -0.9537    1.1156   28.0276 C.ar    1  UNL1        0.0013
     16 C          -0.7938    2.4829   27.4321 C.ar    1  UNL1        0.0001
     17 C           0.3625    3.3475   27.8388 C.ar    1  UNL1        0.0013
     18 C           1.3589    2.8448   28.8410 C.ar    1  UNL1        0.0154
     19 C          -1.7902    2.9857   26.4299 C.ar    1  UNL1        0.0000
     20 C          -3.1312    3.4779   26.8875 C.ar    1  UNL1        0.0000
     21 C          -4.1276    3.9807   25.8853 C.ar    1  UNL1        0.0011
     22 C          -3.7830    3.9913   24.4254 C.ar    1  UNL1        0.0140
     23 C          -2.4420    3.4991   23.9678 C.ar    1  UNL1        0.0011
     24 C          -1.4456    2.9963   24.9700 C.ar    1  UNL1        0.0000
     25 C          -4.7794    4.4940   23.4232 C.2     1  UNL1        0.0729
     26 O          -4.8226    5.9525   23.0754 O.co2   1  UNL1       -0.5446
     27 O          -5.7325    3.5383   22.7688 O.co2   1  UNL1       -0.5446
     28 C           5.1975   -1.1661   31.6511 C.ar    1  UNL1        0.2276
     29 N           6.5850   -0.7074   31.3130 N.ar    1  UNL1       -0.2117
     30 C           7.7492   -1.6331   31.5075 C.ar    1  UNL1        0.1034
     31 C           7.5259   -3.0175   32.0401 C.ar    1  UNL1        0.0414
     32 C           6.1384   -3.4761   32.3782 C.ar    1  UNL1        0.1034
     33 N           4.9742   -2.5505   32.1837 N.ar    1  UNL1       -0.2117
     34 C           4.7679    0.9785   36.7867 C.3     1  UNL1        0.1183
     35 C           2.4378    1.0192   38.6759 C.3     1  UNL1        0.0323
     36 C           3.2969    2.2386   38.5182 C.ar    1  UNL1       -0.0069
     37 C           2.9909    3.4784   39.3051 C.ar    1  UNL1       -0.0015
     38 C           3.8500    4.6979   39.1475 C.ar    1  UNL1        0.0203
     39 C           5.0150    4.6776   38.2029 C.ar    1  UNL1        0.0985
     40 N           5.3210    3.4378   37.4160 N.ar    1  UNL1       -0.2471
     41 C           4.4619    2.2183   37.5736 C.ar    1  UNL1        0.0712
@<TRIPOS>UNITY_ATOM_ATTR
26 1
charge -1
@<TRIPOS>BOND
     1    35    36    1
     2    36    37   ar
     3    37    38   ar
     4    38    39   ar
     5    39    40   ar
     6    40    41   ar
     7    41    34    1
     8    34     1    1
     9     1     2    1
    10     2     3    1
    11     3     4    1
    12     4     5    1
    13     5     6    1
    14     4     7    1
    15     7     8    2
    16     7     9   am
    17     9    13    1
    18    13    14   ar
    19    14    15   ar
    20    15    16   ar
    21    16    19    1
    22    19    20   ar
    23    20    21   ar
    24    21    22   ar
    25    22    25    1
    26    25    26   ar
    27    25    27   ar
    28    22    23   ar
    29    23    24   ar
    30    16    17   ar
    31    17    18   ar
    32     9    10   am
    33    10    11    2
    34    10    12   am
    35    12    28    1
    36    28    29   ar
    37    29    30   ar
    38    30    31   ar
    39    31    32   ar
    40    32    33   ar
    41    41    36   ar
    42     6     1    1
    43    18    13   ar
    44    33    28   ar
    45    12     4    1
    46    24    19   ar
@<TRIPOS>MOLECULE
*****
 41 46 0 0 0
SMALL
GASTEIGER

@<TRIPOS>ATOM
      1 N           2.8657    3.2416   35.2637 N.3     1  UNL1       -0.2676
      2 C           1.9044    4.1996   34.6248 C.3     1  UNL1        0.0746
      3 C           1.6081    4.0983   33.1579 C.3     1  UNL1        0.0450
      4 C           2.2731    3.0391   32.3298 C.3     1  UNL1        0.1405
      5 C           3.2344    2.0811   32.9686 C.3     1  UNL1        0.0450
      6 C           3.5307    2.1824   34.4356 C.3     1  UNL1        0.0746
      7 C           2.8586    2.0373   31.3791 C.2     1  UNL1        0.2529
      8 O           3.8432    0.9610   31.7285 O.2     1  UNL1       -0.2724
      9 N           2.2867    2.3009   30.0177 N.am    1  UNL1       -0.1907
     10 C           1.3477    3.4656   30.1269 C.2     1  UNL1        0.3231
     11 O           0.5561    4.0682   29.0044 O.2     1  UNL1       -0.2511
     12 N           1.3393    3.9218   31.5559 N.am    1  UNL1       -0.2071
     13 C           2.5989    1.5345   28.7667 C.ar    1  UNL1        0.0622
     14 C           2.6269    0.0350   28.7931 C.ar    1  UNL1        0.0154
     15 C           2.9391   -0.7314   27.5421 C.ar    1  UNL1        0.0013
     16 C           3.2233    0.0015   26.2647 C.ar    1  UNL1        0.0001
     17 C           3.1953    1.5010   26.2382 C.ar    1  UNL1        0.0013
     18 C           2.8831    2.2675   27.4892 C.ar    1  UNL1        0.0154
     19 C           3.5355   -0.7650   25.0137 C.ar    1  UNL1        0.0000
     20 C           4.5260   -1.8908   25.0514 C.ar    1  UNL1        0.0000
     21 C           4.8382   -2.6573   23.8004 C.ar    1  UNL1        0.0011
     22 C           4.1599   -2.2979   22.5116 C.ar    1  UNL1        0.0140
     23 C           3.1694   -1.1721   22.4739 C.ar    1  UNL1        0.0011
     24 C           2.8572   -0.4056   23.7250 C.ar    1  UNL1        0.0000
     25 C           4.4721   -3.0644   21.2606 C.2     1  UNL1        0.0729
     26 O           3.7831   -2.7145   19.9750 O.co2   1  UNL1       -0.5446
     27 O           5.4734   -4.1808   21.2952 O.co2   1  UNL1       -0.5446
     28 C           0.5379    5.0607   32.1131 C.ar    1  UNL1        0.2276
     29 N           1.0576    6.4641   32.0113 N.ar    1  UNL1       -0.2117
     30 C           0.2562    7.6030   32.5686 C.ar    1  UNL1        0.1034
     31 C          -1.0651    7.3385   33.2277 C.ar    1  UNL1        0.0414
     32 C          -1.5849    5.9351   33.3295 C.ar    1  UNL1        0.1034
     33 N          -0.7834    4.7963   32.7722 N.ar    1  UNL1       -0.2117
     34 C           3.1620    3.3429   36.7307 C.3     1  UNL1        0.1183
     35 C           4.1605    0.6855   37.7010 C.3     1  UNL1        0.0323
     36 C           2.8524    1.2232   38.2007 C.ar    1  UNL1       -0.0069
     37 C           2.0435    0.4322   39.1856 C.ar    1  UNL1       -0.0015
     38 C           0.7353    0.9698   39.6853 C.ar    1  UNL1        0.0203
     39 C           0.2360    2.2984   39.2001 C.ar    1  UNL1        0.0985
     40 N           1.0449    3.0895   38.2152 N.ar    1  UNL1       -0.2471
     41 C           2.3531    2.5519   37.7155 C.ar    1  UNL1        0.0712
@<TRIPOS>UNITY_ATOM_ATTR
26 1
charge -1
@<TRIPOS>BOND
     1    35    36    1
     2    36    37   ar
     3    37    38   ar
     4    38    39   ar
     5    39    40   ar
     6    40    41   ar
     7    41    34    1
     8    34     1    1
     9     1     2    1
    10     2     3    1
    11     3     4    1
    12     4     5    1
    13     5     6    1
    14     4     7    1
    15     7     8    2
    16     7     9   am
    17     9    13    1
    18    13    14   ar
    19    14    15   ar
    20    15    16   ar
    21    16    19    1
    22    19    20   ar
    23    20    21   ar
    24    21    22   ar
    25    22    25    1
    26    25    26   ar
    27    25    27   ar
    28    22    23   ar
    29    23    24   ar
    30    16    17   ar
    31    17    18   ar
    32     9    10   am
    33    10    11    2
    34    10    12   am
    35    12    28    1
    36    28    29   ar
    37    29    30   ar
    38    30    31   ar
    39    31    32   ar
    40    32    33   ar
    41    41    36   ar
    42     6     1    1
    43    18    13   ar
    44    33    28   ar
    45    12     4    1
    46    24    19   ar
@<TRIPOS>MOLECULE
*****
 41 46 0 0 0
SMALL
GASTEIGER

@<TRIPOS>ATOM
      1 N           6.9381   -2.5362   24.0957 N.3     1  UNL1       -0.2676
      2 C           7.3134   -3.8448   24.7255 C.3     1  UNL1        0.0746
      3 C           7.1697   -4.0328   26.2067 C.3     1  UNL1        0.0450
      4 C           6.6509   -2.9121   27.0581 C.3     1  UNL1        0.1405
      5 C           6.2756   -1.6035   26.4283 C.3     1  UNL1        0.0450
      6 C           6.4193   -1.4155   24.9471 C.3     1  UNL1        0.0746
      7 C           6.1488   -1.8879   28.0322 C.2     1  UNL1        0.2529
      8 O           5.7023   -0.4959   27.6962 O.2     1  UNL1       -0.2724
      9 N           6.1718   -2.5001   29.4015 N.am    1  UNL1       -0.1907
     10 C           6.6880   -3.9027   29.2735 C.2     1  UNL1        0.3231
     11 O           6.8752   -4.8791   30.3966 O.2     1  UNL1       -0.2511
     12 N           6.9841   -4.1573   27.8253 N.am    1  UNL1       -0.2071
     13 C           5.7521   -1.8278   30.6750 C.ar    1  UNL1        0.0622
     14 C           6.6780   -1.8119   31.8550 C.ar    1  UNL1        0.0154
     15 C           6.2583   -1.1396   33.1286 C.ar    1  UNL1        0.0013
     16 C           4.9129   -0.4831   33.2221 C.ar    1  UNL1        0.0001
     17 C           3.9871   -0.4990   32.0420 C.ar    1  UNL1        0.0013
     18 C           4.4067   -1.1713   30.7685 C.ar    1  UNL1        0.0154
     19 C           4.4933    0.1892   34.4956 C.ar    1  UNL1        0.0000
     20 C           3.5781    1.3768   34.4505 C.ar    1  UNL1        0.0000
     21 C           3.1585    2.0491   35.7240 C.ar    1  UNL1        0.0011
     22 C           3.6541    1.5338   37.0427 C.ar    1  UNL1        0.0140
     23 C           4.5693    0.3463   37.0879 C.ar    1  UNL1        0.0011
     24 C           4.9889   -0.3261   35.8143 C.ar    1  UNL1        0.0000
     25 C           3.2345    2.2062   38.3163 C.2     1  UNL1        0.0729
     26 O           4.0291    1.9979   39.5714 O.co2   1  UNL1       -0.5446
     27 O           2.0203    3.0868   38.3347 O.co2   1  UNL1       -0.5446
     28 C           7.5194   -5.4331   27.2458 C.ar    1  UNL1        0.2276
     29 N           6.5736   -6.4923   26.7625 N.ar    1  UNL1       -0.2117
     30 C           7.1090   -7.7680   26.1831 C.ar    1  UNL1        0.1034
     31 C           8.5902   -7.9847   26.0869 C.ar    1  UNL1        0.0414
     32 C           9.5360   -6.9255   26.5703 C.ar    1  UNL1        0.1034
     33 N           9.0006   -5.6498   27.1497 N.ar    1  UNL1       -0.2117
     34 C           7.0818   -2.3482   22.6144 C.3     1  UNL1        0.1183
     35 C           5.4654   -0.0277   21.6129 C.3     1  UNL1        0.0323
     36 C           5.1000   -1.4257   21.2102 C.ar    1  UNL1       -0.0069
     37 C           3.9265   -1.6635   20.3067 C.ar    1  UNL1       -0.0015
     38 C           3.5611   -3.0614   19.9040 C.ar    1  UNL1        0.0203
     39 C           4.3693   -4.2216   20.4047 C.ar    1  UNL1        0.0985
     40 N           5.5429   -3.9839   21.3082 N.ar    1  UNL1       -0.2471
     41 C           5.9082   -2.5860   21.7109 C.ar    1  UNL1        0.0712
@<TRIPOS>UNITY_ATOM_ATTR
26 1
charge -1
@<TRIPOS>BOND
     1    35    36    1
     2    36    37   ar
     3    37    38   ar
     4    38    39   ar
     5    39    40   ar
     6    40    41   ar
     7    41    34    1
     8    34     1    1
     9     1     2    1
    10     2     3    1
    11     3     4    1
    12     4     5    1
    13     5     6    1
    14     4     7    1
    15     7     8    2
    16     7     9   am
    17     9    13    1
    18    13    14   ar
    19    14    15   ar
    20    15    16   ar
    21    16    19    1
    22    19    20   ar
    23    20    21   ar
    24    21    22   ar
    25    22    25    1
    26    25    26   ar
    27    25    27   ar
    28    22    23   ar
    29    23    24   ar
    30    16    17   ar
    31    17    18   ar
    32     9    10   am
    33    10    11    2
    34    10    12   am
    35    12    28    1
    36    28    29   ar
    37    29    30   ar
    38    30    31   ar
    39    31    32   ar
    40    32    33   ar
    41    41    36   ar
    42     6     1    1
    43    18    13   ar
    44    33    28   ar
    45    12     4    1
    46    24    19   ar
@<TRIPOS>MOLECULE
*****
 41 46 0 0 0
SMALL
GASTEIGER

@<TRIPOS>ATOM
      1 N           6.5164   -2.1656   28.8031 N.3     1  UNL1       -0.2676
      2 C           6.0986   -1.7792   30.1910 C.3     1  UNL1        0.0746
      3 C           4.8540   -0.9689   30.4012 C.3     1  UNL1        0.0450
      4 C           4.0272   -0.5449   29.2237 C.3     1  UNL1        0.1405
      5 C           4.4450   -0.9313   27.8359 C.3     1  UNL1        0.0450
      6 C           5.6896   -1.7416   27.6256 C.3     1  UNL1        0.0746
      7 C           3.1046   -0.0510   28.1490 C.2     1  UNL1        0.2529
      8 O           3.2646   -0.2808   26.6754 O.2     1  UNL1       -0.2724
      9 N           1.9938    0.7130   28.8068 N.am    1  UNL1       -0.1907
     10 C           2.2299    0.6913   30.2880 C.2     1  UNL1        0.3231
     11 O           1.3619    1.3341   31.3287 O.2     1  UNL1       -0.2511
     12 N           3.4866   -0.0861   30.5456 N.am    1  UNL1       -0.2071
     13 C           0.8481    1.3814   28.1064 C.ar    1  UNL1        0.0622
     14 C          -0.5593    0.9431   28.3840 C.ar    1  UNL1        0.0154
     15 C          -1.7050    1.6114   27.6836 C.ar    1  UNL1        0.0013
     16 C          -1.4434    2.7181   26.7055 C.ar    1  UNL1        0.0001
     17 C          -0.0360    3.1564   26.4278 C.ar    1  UNL1        0.0013
     18 C           1.1098    2.4880   27.1282 C.ar    1  UNL1        0.0154
     19 C          -2.5891    3.3864   26.0050 C.ar    1  UNL1        0.0000
     20 C          -2.5731    3.5326   24.5123 C.ar    1  UNL1        0.0000
     21 C          -3.7188    4.2010   23.8118 C.ar    1  UNL1        0.0011
     22 C          -4.8806    4.7231   24.6042 C.ar    1  UNL1        0.0140
     23 C          -4.8966    4.5769   26.0970 C.ar    1  UNL1        0.0011
     24 C          -3.7508    3.9085   26.7974 C.ar    1  UNL1        0.0000
     25 C          -6.0263    5.3915   23.9037 C.2     1  UNL1        0.0729
     26 O          -6.1062    6.8886   23.8570 O.co2   1  UNL1       -0.5446
     27 O          -7.0921    4.5627   23.2501 O.co2   1  UNL1       -0.5446
     28 C           4.0958   -0.3572   31.8892 C.ar    1  UNL1        0.2276
     29 N           3.7392   -1.6083   32.6359 N.ar    1  UNL1       -0.2117
     30 C           4.3485   -1.8793   33.9795 C.ar    1  UNL1        0.1034
     31 C           5.3144   -0.8992   34.5765 C.ar    1  UNL1        0.0414
     32 C           5.6711    0.3519   33.8299 C.ar    1  UNL1        0.1034
     33 N           5.0618    0.6229   32.4863 N.ar    1  UNL1       -0.2117
     34 C           7.7611   -2.9760   28.5928 C.3     1  UNL1        0.1183
     35 C           6.9270   -5.6926   29.5543 C.3     1  UNL1        0.0323
     36 C           7.3316   -5.4950   28.1235 C.ar    1  UNL1       -0.0069
     37 C           7.3192   -6.6557   27.1735 C.ar    1  UNL1       -0.0015
     38 C           7.7239   -6.4581   25.7427 C.ar    1  UNL1        0.0203
     39 C           8.1409   -5.0999   25.2619 C.ar    1  UNL1        0.0985
     40 N           8.1533   -3.9391   26.2119 N.ar    1  UNL1       -0.2471
     41 C           7.7487   -4.1367   27.6427 C.ar    1  UNL1        0.0712
@<TRIPOS>UNITY_ATOM_ATTR
26 1
charge -1
@<TRIPOS>BOND
     1    35    36    1
     2    36    37   ar
     3    37    38   ar
     4    38    39   ar
     5    39    40   ar
     6    40    41   ar
     7    41    34    1
     8    34     1    1
     9     1     2    1
    10     2     3    1
    11     3     4    1
    12     4     5    1
    13     5     6    1
    14     4     7    1
    15     7     8    2
    16     7     9   am
    17     9    13    1
    18    13    14   ar
    19    14    15   ar
    20    15    16   ar
    21    16    19    1
    22    19    20   ar
    23    20    21   ar
    24    21    22   ar
    25    22    25    1
    26    25    26   ar
    27    25    27   ar
    28    22    23   ar
    29    23    24   ar
    30    16    17   ar
    31    17    18   ar
    32     9    10   am
    33    10    11    2
    34    10    12   am
    35    12    28    1
    36    28    29   ar
    37    29    30   ar
    38    30    31   ar
    39    31    32   ar
    40    32    33   ar
    41    41    36   ar
    42     6     1    1
    43    18    13   ar
    44    33    28   ar
    45    12     4    1
    46    24    19   ar
@<TRIPOS>MOLECULE
*****
 41 46 0 0 0
SMALL
GASTEIGER

@<TRIPOS>ATOM
      1 N           6.5839   -1.9661   28.7533 N.3     1  UNL1       -0.2676
      2 C           6.1457   -1.6345   30.1490 C.3     1  UNL1        0.0746
      3 C           4.8794   -0.8624   30.3739 C.3     1  UNL1        0.0450
      4 C           4.0515   -0.4221   29.2032 C.3     1  UNL1        0.1405
      5 C           4.4898   -0.7537   27.8075 C.3     1  UNL1        0.0450
      6 C           5.7560   -1.5257   27.5826 C.3     1  UNL1        0.0746
      7 C           3.1253    0.0825   28.1366 C.2     1  UNL1        0.2529
      8 O           3.3026   -0.0964   26.6579 O.2     1  UNL1       -0.2724
      9 N           1.9904    0.7974   28.8085 N.am    1  UNL1       -0.1907
     10 C           2.2154    0.7346   30.2902 C.2     1  UNL1        0.3231
     11 O           1.3233    1.3223   31.3431 O.2     1  UNL1       -0.2511
     12 N           3.4892   -0.0190   30.5341 N.am    1  UNL1       -0.2071
     13 C           0.8338    1.4589   28.1195 C.ar    1  UNL1        0.0622
     14 C           1.0739    2.6115   27.1903 C.ar    1  UNL1        0.0154
     15 C          -0.0827    3.2730   26.5013 C.ar    1  UNL1        0.0013
     16 C          -1.4794    2.7819   26.7416 C.ar    1  UNL1        0.0001
     17 C          -1.7195    1.6291   27.6710 C.ar    1  UNL1        0.0013
     18 C          -0.5629    0.9677   28.3599 C.ar    1  UNL1        0.0154
     19 C          -2.6360    3.4433   26.0527 C.ar    1  UNL1        0.0000
     20 C          -3.7911    3.9620   26.8569 C.ar    1  UNL1        0.0000
     21 C          -4.9477    4.6235   26.1680 C.ar    1  UNL1        0.0011
     22 C          -4.9493    4.7663   24.6747 C.ar    1  UNL1        0.0140
     23 C          -3.7942    4.2477   23.8705 C.ar    1  UNL1        0.0011
     24 C          -2.6375    3.5861   24.5595 C.ar    1  UNL1        0.0000
     25 C          -6.1059    5.4278   23.9858 C.2     1  UNL1        0.0729
     26 O          -6.0055    6.8634   23.5628 O.co2   1  UNL1       -0.5446
     27 O          -7.3629    4.6537   23.7198 O.co2   1  UNL1       -0.5446
     28 C           4.0944   -0.3173   31.8738 C.ar    1  UNL1        0.2276
     29 N           5.0844    0.6339   32.4781 N.ar    1  UNL1       -0.2117
     30 C           5.6896    0.3355   33.8178 C.ar    1  UNL1        0.1034
     31 C           5.3049   -0.9140   34.5531 C.ar    1  UNL1        0.0414
     32 C           4.3150   -1.8652   33.9488 C.ar    1  UNL1        0.1034
     33 N           3.7098   -1.5669   32.6091 N.ar    1  UNL1       -0.2117
     34 C           7.8502   -2.7382   28.5284 C.3     1  UNL1        0.1183
     35 C           6.4711   -5.3694   28.1104 C.3     1  UNL1        0.0323
     36 C           7.4927   -5.2227   29.1989 C.ar    1  UNL1       -0.0069
     37 C           7.8247   -6.3915   30.0784 C.ar    1  UNL1       -0.0015
     38 C           8.8464   -6.2448   31.1668 C.ar    1  UNL1        0.0203
     39 C           9.5359   -4.9292   31.3758 C.ar    1  UNL1        0.0985
     40 N           9.2039   -3.7603   30.4963 N.ar    1  UNL1       -0.2471
     41 C           8.1823   -3.9070   29.4079 C.ar    1  UNL1        0.0712
@<TRIPOS>UNITY_ATOM_ATTR
26 1
charge -1
@<TRIPOS>BOND
     1    35    36    1
     2    36    37   ar
     3    37    38   ar
     4    38    39   ar
     5    39    40   ar
     6    40    41   ar
     7    41    34    1
     8    34     1    1
     9     1     2    1
    10     2     3    1
    11     3     4    1
    12     4     5    1
    13     5     6    1
    14     4     7    1
    15     7     8    2
    16     7     9   am
    17     9    13    1
    18    13    14   ar
    19    14    15   ar
    20    15    16   ar
    21    16    19    1
    22    19    20   ar
    23    20    21   ar
    24    21    22   ar
    25    22    25    1
    26    25    26   ar
    27    25    27   ar
    28    22    23   ar
    29    23    24   ar
    30    16    17   ar
    31    17    18   ar
    32     9    10   am
    33    10    11    2
    34    10    12   am
    35    12    28    1
    36    28    29   ar
    37    29    30   ar
    38    30    31   ar
    39    31    32   ar
    40    32    33   ar
    41    41    36   ar
    42     6     1    1
    43    18    13   ar
    44    33    28   ar
    45    12     4    1
    46    24    19   ar
@<TRIPOS>MOLECULE
*****
 41 46 0 0 0
SMALL
GASTEIGER

@<TRIPOS>ATOM
      1 N           2.5558   -0.2667   29.8861 N.3     1  UNL1       -0.2676
      2 C           3.8552   -0.9972   30.0532 C.3     1  UNL1        0.0746
      3 C           4.6537   -0.8288   31.3117 C.3     1  UNL1        0.0450
      4 C           4.1529    0.0701   32.4032 C.3     1  UNL1        0.1405
      5 C           2.8535    0.8005   32.2360 C.3     1  UNL1        0.0450
      6 C           2.0550    0.6322   30.9775 C.3     1  UNL1        0.0746
      7 C           3.7814    0.9301   33.5747 C.2     1  UNL1        0.2529
      8 O           2.5461    1.7727   33.6933 O.2     1  UNL1       -0.2724
      9 N           4.8621    0.7995   34.6068 N.am    1  UNL1       -0.1907
     10 C           5.9015   -0.1412   34.0731 C.2     1  UNL1        0.3231
     11 O           7.1584   -0.5579   34.7776 O.2     1  UNL1       -0.2511
     12 N           5.4632   -0.5920   32.7112 N.am    1  UNL1       -0.2071
     13 C           4.8972    1.4886   35.9386 C.ar    1  UNL1        0.0622
     14 C           5.6360    2.7848   36.0931 C.ar    1  UNL1        0.0154
     15 C           5.6711    3.4740   37.4250 C.ar    1  UNL1        0.0013
     16 C           4.9674    2.8669   38.6023 C.ar    1  UNL1        0.0001
     17 C           4.2286    1.5706   38.4478 C.ar    1  UNL1        0.0013
     18 C           4.1935    0.8815   37.1160 C.ar    1  UNL1        0.0154
     19 C           5.0026    3.5560   39.9342 C.ar    1  UNL1        0.0000
     20 C           3.8953    4.4893   40.3251 C.ar    1  UNL1        0.0000
     21 C           3.9304    5.1785   41.6570 C.ar    1  UNL1        0.0011
     22 C           5.0728    4.9343   42.5979 C.ar    1  UNL1        0.0140
     23 C           6.1801    4.0010   42.2070 C.ar    1  UNL1        0.0011
     24 C           6.1450    3.3118   40.8750 C.ar    1  UNL1        0.0000
     25 C           5.1079    5.6234   43.9298 C.2     1  UNL1        0.0729
     26 O           5.3735    4.8328   45.1765 O.co2   1  UNL1       -0.5446
     27 O           4.8775    7.1032   44.0149 O.co2   1  UNL1       -0.5446
     28 C           6.2049   -1.5387   31.8148 C.ar    1  UNL1        0.2276
     29 N           7.1856   -1.0085   30.8113 N.ar    1  UNL1       -0.2117
     30 C           7.9273   -1.9552   29.9149 C.ar    1  UNL1        0.1034
     31 C           7.6882   -3.4322   30.0218 C.ar    1  UNL1        0.0414
     32 C           6.7075   -3.9624   31.0253 C.ar    1  UNL1        0.1034
     33 N           5.9658   -3.0157   31.9218 N.ar    1  UNL1       -0.2117
     34 C           1.7572   -0.4350   28.6275 C.3     1  UNL1        0.1183
     35 C          -1.2416   -0.4322   28.7128 C.3     1  UNL1        0.0323
     36 C          -0.5074    0.7269   28.1066 C.ar    1  UNL1       -0.0069
     37 C          -1.2727    1.8874   27.5430 C.ar    1  UNL1       -0.0015
     38 C          -0.5385    3.0465   26.9368 C.ar    1  UNL1        0.0203
     39 C           0.9608    3.0451   26.8941 C.ar    1  UNL1        0.0985
     40 N           1.7261    1.8846   27.4577 N.ar    1  UNL1       -0.2471
     41 C           0.9920    0.7255   28.0639 C.ar    1  UNL1        0.0712
@<TRIPOS>UNITY_ATOM_ATTR
26 1
charge -1
@<TRIPOS>BOND
     1    35    36    1
     2    36    37   ar
     3    37    38   ar
     4    38    39   ar
     5    39    40   ar
     6    40    41   ar
     7    41    34    1
     8    34     1    1
     9     1     2    1
    10     2     3    1
    11     3     4    1
    12     4     5    1
    13     5     6    1
    14     4     7    1
    15     7     8    2
    16     7     9   am
    17     9    13    1
    18    13    14   ar
    19    14    15   ar
    20    15    16   ar
    21    16    19    1
    22    19    20   ar
    23    20    21   ar
    24    21    22   ar
    25    22    25    1
    26    25    26   ar
    27    25    27   ar
    28    22    23   ar
    29    23    24   ar
    30    16    17   ar
    31    17    18   ar
    32     9    10   am
    33    10    11    2
    34    10    12   am
    35    12    28    1
    36    28    29   ar
    37    29    30   ar
    38    30    31   ar
    39    31    32   ar
    40    32    33   ar
    41    41    36   ar
    42     6     1    1
    43    18    13   ar
    44    33    28   ar
    45    12     4    1
    46    24    19   ar
@<TRIPOS>MOLECULE
*****
 41 46 0 0 0
SMALL
GASTEIGER

@<TRIPOS>ATOM
      1 N          -3.1923    4.0883   20.8215 N.3     1  UNL1       -0.2676
      2 C          -4.2559    4.6290   21.7305 C.3     1  UNL1        0.0746
      3 C          -4.1121    4.4930   23.2173 C.3     1  UNL1        0.0450
      4 C          -2.9045    3.8162   23.7952 C.3     1  UNL1        0.1405
      5 C          -1.8409    3.2755   22.8862 C.3     1  UNL1        0.0450
      6 C          -1.9848    3.4116   21.3994 C.3     1  UNL1        0.0746
      7 C          -1.7592    3.1676   24.5145 C.2     1  UNL1        0.2529
      8 O          -0.5565    2.5412   23.8733 O.2     1  UNL1       -0.2724
      9 N          -2.0276    3.2554   25.9878 N.am    1  UNL1       -0.1907
     10 C          -3.3389    3.9584   26.1789 C.2     1  UNL1        0.3231
     11 O          -3.9932    4.2615   27.4941 O.2     1  UNL1       -0.2511
     12 N          -3.8809    4.3049   24.8239 N.am    1  UNL1       -0.2071
     13 C          -1.1405    2.7322   27.0783 C.ar    1  UNL1        0.0622
     14 C          -0.1663    3.6487   27.7572 C.ar    1  UNL1        0.0154
     15 C           0.7208    3.1255   28.8477 C.ar    1  UNL1        0.0013
     16 C           0.6337    1.6858   29.2594 C.ar    1  UNL1        0.0001
     17 C          -0.3405    0.7693   28.5805 C.ar    1  UNL1        0.0013
     18 C          -1.2276    1.2925   27.4900 C.ar    1  UNL1        0.0154
     19 C           1.5208    1.1626   30.3499 C.ar    1  UNL1        0.0000
     20 C           1.6551    1.9219   31.6366 C.ar    1  UNL1        0.0000
     21 C           2.5421    1.3987   32.7271 C.ar    1  UNL1        0.0011
     22 C           3.2951    0.1162   32.5310 C.ar    1  UNL1        0.0140
     23 C           3.1608   -0.6431   31.2444 C.ar    1  UNL1        0.0011
     24 C           2.2737   -0.1198   30.1538 C.ar    1  UNL1        0.0000
     25 C           4.1822   -0.4070   33.6216 C.2     1  UNL1        0.0729
     26 O           4.0047   -1.8089   34.1249 O.co2   1  UNL1       -0.5446
     27 O           5.2467    0.4716   34.2088 O.co2   1  UNL1       -0.5446
     28 C          -5.1723    5.0155   24.5462 C.ar    1  UNL1        0.2276
     29 N          -6.4364    4.2292   24.3619 N.ar    1  UNL1       -0.2117
     30 C          -7.7279    4.9398   24.0842 C.ar    1  UNL1        0.1034
     31 C          -7.7554    6.4367   23.9907 C.ar    1  UNL1        0.0414
     32 C          -6.4913    7.2229   24.1750 C.ar    1  UNL1        0.1034
     33 N          -5.1998    6.5123   24.4527 N.ar    1  UNL1       -0.2117
     34 C          -3.3361    4.2244   19.3346 C.3     1  UNL1        0.1183
     35 C          -6.1148    3.2329   18.7908 C.3     1  UNL1        0.0323
     36 C          -5.7548    4.6577   18.4906 C.ar    1  UNL1       -0.0069
     37 C          -6.7840    5.5868   17.9185 C.ar    1  UNL1       -0.0015
     38 C          -6.4240    7.0117   17.6184 C.ar    1  UNL1        0.0203
     39 C          -5.0347    7.5075   17.8903 C.ar    1  UNL1        0.0985
     40 N          -4.0053    6.5783   18.4624 N.ar    1  UNL1       -0.2471
     41 C          -4.3653    5.1535   18.7625 C.ar    1  UNL1        0.0712
@<TRIPOS>UNITY_ATOM_ATTR
26 1
charge -1
@<TRIPOS>BOND
     1    35    36    1
     2    36    37   ar
     3    37    38   ar
     4    38    39   ar
     5    39    40   ar
     6    40    41   ar
     7    41    34    1
     8    34     1    1
     9     1     2    1
    10     2     3    1
    11     3     4    1
    12     4     5    1
    13     5     6    1
    14     4     7    1
    15     7     8    2
    16     7     9   am
    17     9    13    1
    18    13    14   ar
    19    14    15   ar
    20    15    16   ar
    21    16    19    1
    22    19    20   ar
    23    20    21   ar
    24    21    22   ar
    25    22    25    1
    26    25    26   ar
    27    25    27   ar
    28    22    23   ar
    29    23    24   ar
    30    16    17   ar
    31    17    18   ar
    32     9    10   am
    33    10    11    2
    34    10    12   am
    35    12    28    1
    36    28    29   ar
    37    29    30   ar
    38    30    31   ar
    39    31    32   ar
    40    32    33   ar
    41    41    36   ar
    42     6     1    1
    43    18    13   ar
    44    33    28   ar
    45    12     4    1
    46    24    19   ar
