@<TRIPOS>MOLECULE
*****
 42 45 0 0 0
SMALL
GASTEIGER

@<TRIPOS>ATOM
      1 C           7.5225   -6.6618   25.9888 C.3     1  UNL1        0.0889
      2 C           6.8441   -5.4256   26.5003 C.3     1  UNL1        0.0383
      3 C           7.3893   -4.2508   25.7435 C.3     1  UNL1        0.0739
      4 N           8.4047   -4.7610   24.7642 N.3     1  UNL1       -0.2712
      5 C           8.4870   -6.2511   24.9159 C.3     1  UNL1        0.0919
      6 O           9.3953   -7.9189   27.9668 O.2     1  UNL1       -0.2733
      7 C           8.2155   -8.6913   27.4554 C.2     1  UNL1        0.2425
      8 N           7.2791   -8.0628   26.4664 N.am    1  UNL1       -0.3032
      9 H           6.5048   -8.5698   26.1308 H       1  UNL1        0.1495
     10 C           7.9721  -10.0923   27.9329 C.3     1  UNL1        0.1759
     11 N           6.6245  -10.7244   27.7476 N.am    1  UNL1       -0.2931
     12 C           6.4147  -12.1640   28.1126 C.2     1  UNL1        0.2462
     13 O           7.5526  -12.9717   28.6630 O.2     1  UNL1       -0.2701
     14 H           5.8776  -10.1943   27.3863 H       1  UNL1        0.1502
     15 C           5.0671  -12.7962   27.9272 C.ar    1  UNL1        0.0533
     16 C           4.7440  -13.5125   26.6496 C.ar    1  UNL1        0.0045
     17 C           3.3963  -14.1445   26.4643 C.ar    1  UNL1        0.0001
     18 C           2.3718  -14.0603   27.5566 C.ar    1  UNL1        0.0039
     19 C           2.6949  -13.3440   28.8343 C.ar    1  UNL1        0.0716
     20 C           4.0425  -12.7119   29.0196 C.ar    1  UNL1        0.0084
     21 C           1.6704  -13.2597   29.9267 C.3     1  UNL1        0.4186
     22 F           0.6459  -13.1754   31.0190 F       1  UNL1       -0.1659
     23 F           0.8616  -14.3267   29.2504 F       1  UNL1       -0.1659
     24 F           2.4792  -12.1927   30.6029 F       1  UNL1       -0.1659
     25 C           9.1984   -3.9275   23.8023 C.3     1  UNL1        0.0721
     26 C           8.6366   -2.6346   23.2897 C.3     1  UNL1        0.0174
     27 C           7.4610   -2.6447   22.3582 C.3     1  UNL1        0.0048
     28 C           6.6488   -1.3989   22.1621 C.3     1  UNL1        0.0216
     29 C           5.4731   -1.4089   21.2305 C.3     1  UNL1        0.0937
     30 N           5.1097   -2.6647   20.4952 N.am    1  UNL1       -0.2760
     31 C           3.9339   -2.6748   19.5636 C.2     1  UNL1        0.2513
     32 O           3.5704   -3.9306   18.8283 O.2     1  UNL1       -0.2698
     33 C           5.9218   -3.9105   20.6913 C.3     1  UNL1        0.0937
     34 C           7.0974   -3.9005   21.6228 C.3     1  UNL1        0.0216
     35 C           3.1218   -1.4290   19.3675 C.ar    1  UNL1        0.0832
     36 C           1.9303   -1.1654   20.2396 C.ar    1  UNL1        0.0364
     37 C           1.1181    0.0803   20.0435 C.ar    1  UNL1        0.1404
     38 F          -0.0735    0.3439   20.9156 F       1  UNL1       -0.2042
     39 C           1.4977    1.0626   18.9752 C.ar    1  UNL1        0.0319
     40 C           2.6893    0.7990   18.1031 C.ar    1  UNL1        0.0321
     41 C           3.5014   -0.4468   18.2992 C.ar    1  UNL1        0.1446
     42 F           4.6930   -0.7103   17.4272 F       1  UNL1       -0.2040
@<TRIPOS>BOND
     1     6     7    2
     2     7    10    1
     3    10    11    1
     4    11    12   am
     5    12    13    2
     6    12    15    1
     7    15    16   ar
     8    16    17   ar
     9    17    18   ar
    10    18    19   ar
    11    19    21    1
    12    21    22    1
    13    21    23    1
    14    21    24    1
    15    19    20   ar
    16     7     8   am
    17     1     8    1
    18     1     2    1
    19     2     3    1
    20     3     4    1
    21     4    25    1
    22    25    26    1
    23    26    27    1
    24    27    28    1
    25    28    29    1
    26    29    30    1
    27    30    31   am
    28    31    32    2
    29    31    35    1
    30    35    36   ar
    31    36    37   ar
    32    37    38    1
    33    37    39   ar
    34    39    40   ar
    35    40    41   ar
    36    41    42    1
    37    30    33    1
    38    33    34    1
    39     4     5    1
    40    20    15   ar
    41     5     1    1
    42    34    27    1
    43    41    35   ar
    44    11    14    1
    45     8     9    1
@<TRIPOS>MOLECULE
*****
 42 45 0 0 0
SMALL
GASTEIGER

@<TRIPOS>ATOM
      1 C           7.0594   -6.1902   26.7499 C.3     1  UNL1        0.0889
      2 C           6.8963   -5.1364   27.8049 C.3     1  UNL1        0.0383
      3 C           7.0956   -3.7979   27.1578 C.3     1  UNL1        0.0739
      4 N           7.3819   -4.0245   25.7028 N.3     1  UNL1       -0.2712
      5 C           7.3595   -5.5030   25.4508 C.3     1  UNL1        0.0919
      6 O           9.2328   -7.6793   28.1849 O.2     1  UNL1       -0.2733
      7 C           8.0295   -8.4157   27.6751 C.2     1  UNL1        0.2425
      8 N           6.9429   -7.6712   26.9576 N.am    1  UNL1       -0.3032
      9 H           6.1532   -8.1546   26.6230 H       1  UNL1        0.1495
     10 C           7.9130   -9.8967   27.8827 C.3     1  UNL1        0.1759
     11 N           6.5827  -10.5730   27.7306 N.am    1  UNL1       -0.2931
     12 C           6.4543  -12.0437   27.9960 C.2     1  UNL1        0.2462
     13 O           7.6562  -12.8382   28.4135 O.2     1  UNL1       -0.2701
     14 H           5.7939  -10.0515   27.4566 H       1  UNL1        0.1502
     15 C           5.1240  -12.7200   27.8439 C.ar    1  UNL1        0.0533
     16 C           4.8119  -13.4884   26.5941 C.ar    1  UNL1        0.0045
     17 C           3.4817  -14.1646   26.4420 C.ar    1  UNL1        0.0001
     18 C           2.4636  -14.0724   27.5398 C.ar    1  UNL1        0.0039
     19 C           2.7758  -13.3041   28.7896 C.ar    1  UNL1        0.0716
     20 C           4.1060  -12.6278   28.9416 C.ar    1  UNL1        0.0084
     21 C           1.7577  -13.2119   29.8874 C.3     1  UNL1        0.4186
     22 F           0.7397  -13.1198   30.9851 F       1  UNL1       -0.1659
     23 F           2.6043  -12.1900   30.5867 F       1  UNL1       -0.1659
     24 F           0.9112  -14.2338   29.1881 F       1  UNL1       -0.1659
     25 C           7.6444   -2.9595   24.6796 C.3     1  UNL1        0.0721
     26 C           6.5137   -2.1185   24.1654 C.3     1  UNL1        0.0174
     27 C           5.7016   -1.2909   25.1170 C.3     1  UNL1        0.0048
     28 C           4.2192   -1.4981   25.2141 C.3     1  UNL1        0.0216
     29 C           3.4069   -0.6705   26.1657 C.3     1  UNL1        0.0937
     30 N           4.0773    0.3642   27.0201 N.am    1  UNL1       -0.2760
     31 C           3.2651    1.1918   27.9718 C.2     1  UNL1        0.2513
     32 O           3.9354    2.2265   28.8262 O.2     1  UNL1       -0.2698
     33 C           5.5598    0.5713   26.9231 C.3     1  UNL1        0.0937
     34 C           6.3719   -0.2562   25.9715 C.3     1  UNL1        0.0216
     35 C           1.7826    0.9847   28.0689 C.ar    1  UNL1        0.0832
     36 C           0.8515    1.8392   27.2611 C.ar    1  UNL1        0.0364
     37 C          -0.6310    1.6321   27.3582 C.ar    1  UNL1        0.1404
     38 F          -1.5622    2.4867   26.5503 F       1  UNL1       -0.2042
     39 C          -1.1822    0.5704   28.2631 C.ar    1  UNL1        0.0319
     40 C          -0.2510   -0.2842   29.0709 C.ar    1  UNL1        0.0321
     41 C           1.2315   -0.0771   28.9738 C.ar    1  UNL1        0.1446
     42 F           2.1626   -0.9316   29.7816 F       1  UNL1       -0.2040
@<TRIPOS>BOND
     1     6     7    2
     2     7    10    1
     3    10    11    1
     4    11    12   am
     5    12    13    2
     6    12    15    1
     7    15    16   ar
     8    16    17   ar
     9    17    18   ar
    10    18    19   ar
    11    19    21    1
    12    21    22    1
    13    21    23    1
    14    21    24    1
    15    19    20   ar
    16     7     8   am
    17     1     8    1
    18     1     2    1
    19     2     3    1
    20     3     4    1
    21     4    25    1
    22    25    26    1
    23    26    27    1
    24    27    28    1
    25    28    29    1
    26    29    30    1
    27    30    31   am
    28    31    32    2
    29    31    35    1
    30    35    36   ar
    31    36    37   ar
    32    37    38    1
    33    37    39   ar
    34    39    40   ar
    35    40    41   ar
    36    41    42    1
    37    30    33    1
    38    33    34    1
    39     4     5    1
    40    20    15   ar
    41     5     1    1
    42    34    27    1
    43    41    35   ar
    44    11    14    1
    45     8     9    1
@<TRIPOS>MOLECULE
*****
 42 45 0 0 0
SMALL
GASTEIGER

@<TRIPOS>ATOM
      1 C           7.8286   -5.8415   28.9031 C.3     1  UNL1        0.0889
      2 C           8.9500   -4.9615   29.3699 C.3     1  UNL1        0.0383
      3 C           8.5580   -3.5363   29.1144 C.3     1  UNL1        0.0739
      4 N           7.1942   -3.5356   28.4897 N.3     1  UNL1       -0.2712
      5 C           6.7435   -4.9603   28.3592 C.3     1  UNL1        0.0919
      6 O           8.3531   -7.4624   26.4338 O.2     1  UNL1       -0.2733
      7 C           8.0600   -8.1502   27.7342 C.2     1  UNL1        0.2425
      8 N           7.7977   -7.3398   28.9688 N.am    1  UNL1       -0.3032
      9 H           7.6053   -7.7913   29.8223 H       1  UNL1        0.1495
     10 C           8.0291   -9.6484   27.7999 C.3     1  UNL1        0.1759
     11 N           6.7330  -10.3807   27.6153 N.am    1  UNL1       -0.2931
     12 C           6.6138  -11.8137   28.0422 C.2     1  UNL1        0.2462
     13 O           7.7907  -12.5145   28.6535 O.2     1  UNL1       -0.2701
     14 H           5.9605   -9.9207   27.2141 H       1  UNL1        0.1502
     15 C           5.3177  -12.5460   27.8576 C.ar    1  UNL1        0.0533
     16 C           5.0681  -13.3234   26.5994 C.ar    1  UNL1        0.0045
     17 C           3.7720  -14.0556   26.4149 C.ar    1  UNL1        0.0001
     18 C           2.7256  -14.0104   27.4887 C.ar    1  UNL1        0.0039
     19 C           2.9753  -13.2330   28.7470 C.ar    1  UNL1        0.0716
     20 C           4.2713  -12.5008   28.9314 C.ar    1  UNL1        0.0084
     21 C           1.9289  -13.1878   29.8208 C.3     1  UNL1        0.4186
     22 F           0.8825  -13.1427   30.8946 F       1  UNL1       -0.1659
     23 F           1.2011  -14.3203   29.1592 F       1  UNL1       -0.1659
     24 F           2.6567  -12.0553   30.4824 F       1  UNL1       -0.1659
     25 C           6.4176   -2.3231   28.0694 C.3     1  UNL1        0.0721
     26 C           6.8807   -1.5035   26.9016 C.3     1  UNL1        0.0174
     27 C           6.0768   -1.4808   25.6355 C.3     1  UNL1        0.0048
     28 C           6.6705   -2.0028   24.3607 C.3     1  UNL1        0.0216
     29 C           5.8666   -1.9801   23.0944 C.3     1  UNL1        0.0937
     30 N           4.4690   -1.4353   23.1031 N.am    1  UNL1       -0.2760
     31 C           3.6651   -1.4126   21.8369 C.2     1  UNL1        0.2513
     32 O           2.2675   -0.8679   21.8455 O.2     1  UNL1       -0.2698
     33 C           3.8753   -0.9133   24.3779 C.3     1  UNL1        0.0937
     34 C           4.6792   -0.9360   25.6441 C.3     1  UNL1        0.0216
     35 C           4.2588   -1.9347   20.5621 C.ar    1  UNL1        0.0832
     36 C           4.1547   -3.3933   20.2285 C.ar    1  UNL1        0.0364
     37 C           4.7483   -3.9154   18.9538 C.ar    1  UNL1        0.1404
     38 F           4.6443   -5.3741   18.6201 F       1  UNL1       -0.2042
     39 C           5.4461   -2.9787   18.0126 C.ar    1  UNL1        0.0319
     40 C           5.5502   -1.5200   18.3463 C.ar    1  UNL1        0.0321
     41 C           4.9565   -0.9979   19.6210 C.ar    1  UNL1        0.1446
     42 F           5.0606    0.4607   19.9546 F       1  UNL1       -0.2040
@<TRIPOS>BOND
     1     6     7    2
     2     7    10    1
     3    10    11    1
     4    11    12   am
     5    12    13    2
     6    12    15    1
     7    15    16   ar
     8    16    17   ar
     9    17    18   ar
    10    18    19   ar
    11    19    21    1
    12    21    22    1
    13    21    23    1
    14    21    24    1
    15    19    20   ar
    16     7     8   am
    17     1     8    1
    18     1     2    1
    19     2     3    1
    20     3     4    1
    21     4    25    1
    22    25    26    1
    23    26    27    1
    24    27    28    1
    25    28    29    1
    26    29    30    1
    27    30    31   am
    28    31    32    2
    29    31    35    1
    30    35    36   ar
    31    36    37   ar
    32    37    38    1
    33    37    39   ar
    34    39    40   ar
    35    40    41   ar
    36    41    42    1
    37    30    33    1
    38    33    34    1
    39     4     5    1
    40    20    15   ar
    41     5     1    1
    42    34    27    1
    43    41    35   ar
    44    11    14    1
    45     8     9    1
@<TRIPOS>MOLECULE
*****
 42 45 0 0 0
SMALL
GASTEIGER

@<TRIPOS>ATOM
      1 C           1.6481    0.7394   27.9194 C.3     1  UNL1        0.0889
      2 C           0.5374    0.1546   28.7406 C.3     1  UNL1        0.0383
      3 C           0.0264    1.2253   29.6585 C.3     1  UNL1        0.0739
      4 N           0.8213    2.4718   29.4045 N.3     1  UNL1       -0.2712
      5 C           1.8235    2.1715   28.3297 C.3     1  UNL1        0.0919
      6 O           3.9927   -0.9537   28.7169 O.2     1  UNL1       -0.2733
      7 C           3.6160   -0.8279   27.2704 C.2     1  UNL1        0.2425
      8 N           2.4437    0.0186   26.8717 N.am    1  UNL1       -0.3032
      9 H           2.1964    0.1011   25.9223 H       1  UNL1        0.1495
     10 C           4.4115   -1.5487   26.2228 C.3     1  UNL1        0.1759
     11 N           3.9548   -1.5367   24.7940 N.am    1  UNL1       -0.2931
     12 C           4.6037   -2.4446   23.7916 C.2     1  UNL1        0.2462
     13 O           5.7091   -3.3645   24.2180 O.2     1  UNL1       -0.2701
     14 H           3.2293   -0.9330   24.5141 H       1  UNL1        0.1502
     15 C           4.1470   -2.4327   22.3628 C.ar    1  UNL1        0.0533
     16 C           3.3147   -1.2946   21.8510 C.ar    1  UNL1        0.0045
     17 C           2.8581   -1.2827   20.4222 C.ar    1  UNL1        0.0001
     18 C           3.2338   -2.4089   19.5054 C.ar    1  UNL1        0.0039
     19 C           4.0661   -3.5469   20.0172 C.ar    1  UNL1        0.0716
     20 C           4.5227   -3.5588   21.4460 C.ar    1  UNL1        0.0084
     21 C           4.4418   -4.6731   19.1004 C.3     1  UNL1        0.4186
     22 F           4.8176   -5.7992   18.1835 F       1  UNL1       -0.1659
     23 F           5.3895   -3.7653   18.3737 F       1  UNL1       -0.1659
     24 F           3.4942   -5.5808   19.8270 F       1  UNL1       -0.1659
     25 C           0.6449    3.7876   30.1028 C.3     1  UNL1        0.0721
     26 C           1.8452    4.5507   30.5791 C.3     1  UNL1        0.0174
     27 C           2.2503    4.4872   32.0219 C.3     1  UNL1        0.0048
     28 C           1.6927    3.4154   32.9109 C.3     1  UNL1        0.0216
     29 C           2.0979    3.3518   34.3539 C.3     1  UNL1        0.0937
     30 N           3.0606    4.3600   34.9076 N.am    1  UNL1       -0.2760
     31 C           3.4658    4.2964   36.3505 C.2     1  UNL1        0.2513
     32 O           4.4285    5.3046   36.9043 O.2     1  UNL1       -0.2698
     33 C           3.6182    5.4318   34.0185 C.3     1  UNL1        0.0937
     34 C           3.2131    5.4954   32.5757 C.3     1  UNL1        0.0216
     35 C           2.9081    3.2247   37.2395 C.ar    1  UNL1        0.0832
     36 C           1.6273    3.4590   37.9840 C.ar    1  UNL1        0.0364
     37 C           1.0697    2.3872   38.8730 C.ar    1  UNL1        0.1404
     38 F          -0.2113    2.6215   39.6175 F       1  UNL1       -0.2042
     39 C           1.7930    1.0811   39.0175 C.ar    1  UNL1        0.0319
     40 C           3.0740    0.8468   38.2730 C.ar    1  UNL1        0.0321
     41 C           3.6316    1.9186   37.3840 C.ar    1  UNL1        0.1446
     42 F           4.9124    1.6843   36.6395 F       1  UNL1       -0.2040
@<TRIPOS>BOND
     1     6     7    2
     2     7    10    1
     3    10    11    1
     4    11    12   am
     5    12    13    2
     6    12    15    1
     7    15    16   ar
     8    16    17   ar
     9    17    18   ar
    10    18    19   ar
    11    19    21    1
    12    21    22    1
    13    21    23    1
    14    21    24    1
    15    19    20   ar
    16     7     8   am
    17     1     8    1
    18     1     2    1
    19     2     3    1
    20     3     4    1
    21     4    25    1
    22    25    26    1
    23    26    27    1
    24    27    28    1
    25    28    29    1
    26    29    30    1
    27    30    31   am
    28    31    32    2
    29    31    35    1
    30    35    36   ar
    31    36    37   ar
    32    37    38    1
    33    37    39   ar
    34    39    40   ar
    35    40    41   ar
    36    41    42    1
    37    30    33    1
    38    33    34    1
    39     4     5    1
    40    20    15   ar
    41     5     1    1
    42    34    27    1
    43    41    35   ar
    44    11    14    1
    45     8     9    1
@<TRIPOS>MOLECULE
*****
 42 45 0 0 0
SMALL
GASTEIGER

@<TRIPOS>ATOM
      1 C           7.6446   -4.6042   29.1724 C.3     1  UNL1        0.0889
      2 C           7.6467   -5.8130   30.0605 C.3     1  UNL1        0.0383
      3 C           7.0483   -5.4207   31.3788 C.3     1  UNL1        0.0739
      4 N           6.6764   -3.9693   31.3055 N.3     1  UNL1       -0.2712
      5 C           7.0450   -3.4648   29.9419 C.3     1  UNL1        0.0919
      6 O           6.3267   -6.2429   27.0328 O.2     1  UNL1       -0.2733
      7 C           7.4941   -5.3645   26.6926 C.2     1  UNL1        0.2425
      8 N           8.1530   -4.5451   27.7624 N.am    1  UNL1       -0.3032
      9 H           8.9192   -3.9686   27.5391 H       1  UNL1        0.1495
     10 C           8.0025   -5.3054   25.2827 C.3     1  UNL1        0.1759
     11 N           7.0858   -4.8860   24.1718 N.am    1  UNL1       -0.2931
     12 C           6.3190   -3.6012   24.2769 C.2     1  UNL1        0.2462
     13 O           6.4687   -2.7356   25.4928 O.2     1  UNL1       -0.2701
     14 H           6.9875   -5.4541   23.3738 H       1  UNL1        0.1502
     15 C           5.4023   -3.1818   23.1660 C.ar    1  UNL1        0.0533
     16 C           4.4547   -2.0367   23.3675 C.ar    1  UNL1        0.0045
     17 C           3.5381   -1.6174   22.2566 C.ar    1  UNL1        0.0001
     18 C           3.5692   -2.3432   20.9443 C.ar    1  UNL1        0.0039
     19 C           4.5168   -3.4883   20.7428 C.ar    1  UNL1        0.0716
     20 C           5.4333   -3.9076   21.8537 C.ar    1  UNL1        0.0084
     21 C           4.5478   -4.2142   19.4305 C.3     1  UNL1        0.4186
     22 F           4.5788   -4.9400   18.1182 F       1  UNL1       -0.1659
     23 F           3.2168   -4.8322   19.7409 F       1  UNL1       -0.1659
     24 F           5.8788   -3.5961   19.1201 F       1  UNL1       -0.1659
     25 C           6.0465   -3.1640   32.4031 C.3     1  UNL1        0.0721
     26 C           6.1362   -1.6669   32.3811 C.3     1  UNL1        0.0174
     27 C           5.9230   -0.8841   33.6427 C.3     1  UNL1        0.0048
     28 C           4.5307   -0.5733   34.1062 C.3     1  UNL1        0.0216
     29 C           4.3174    0.2095   35.3679 C.3     1  UNL1        0.0937
     30 N           5.4966    0.6814   36.1660 N.am    1  UNL1       -0.2760
     31 C           5.2833    1.4642   37.4278 C.2     1  UNL1        0.2513
     32 O           6.4624    1.9361   38.2259 O.2     1  UNL1       -0.2698
     33 C           6.8889    0.3705   35.7026 C.3     1  UNL1        0.0937
     34 C           7.1021   -0.4122   34.4409 C.3     1  UNL1        0.0216
     35 C           3.8910    1.7750   37.8912 C.ar    1  UNL1        0.0832
     36 C           3.1215    0.7622   38.6861 C.ar    1  UNL1        0.0364
     37 C           1.7292    1.0731   39.1496 C.ar    1  UNL1        0.1404
     38 F           0.9596    0.0602   39.9445 F       1  UNL1       -0.2042
     39 C           1.1064    2.3968   38.8181 C.ar    1  UNL1        0.0319
     40 C           1.8760    3.4097   38.0232 C.ar    1  UNL1        0.0321
     41 C           3.2683    3.0988   37.5597 C.ar    1  UNL1        0.1446
     42 F           4.0378    4.1116   36.7648 F       1  UNL1       -0.2040
@<TRIPOS>BOND
     1     6     7    2
     2     7    10    1
     3    10    11    1
     4    11    12   am
     5    12    13    2
     6    12    15    1
     7    15    16   ar
     8    16    17   ar
     9    17    18   ar
    10    18    19   ar
    11    19    21    1
    12    21    22    1
    13    21    23    1
    14    21    24    1
    15    19    20   ar
    16     7     8   am
    17     1     8    1
    18     1     2    1
    19     2     3    1
    20     3     4    1
    21     4    25    1
    22    25    26    1
    23    26    27    1
    24    27    28    1
    25    28    29    1
    26    29    30    1
    27    30    31   am
    28    31    32    2
    29    31    35    1
    30    35    36   ar
    31    36    37   ar
    32    37    38    1
    33    37    39   ar
    34    39    40   ar
    35    40    41   ar
    36    41    42    1
    37    30    33    1
    38    33    34    1
    39     4     5    1
    40    20    15   ar
    41     5     1    1
    42    34    27    1
    43    41    35   ar
    44    11    14    1
    45     8     9    1
@<TRIPOS>MOLECULE
*****
 42 45 0 0 0
SMALL
GASTEIGER

@<TRIPOS>ATOM
      1 C           8.4526   -5.9906   24.6547 C.3     1  UNL1        0.0889
      2 C           7.7472   -7.2772   24.9659 C.3     1  UNL1        0.0383
      3 C           7.6790   -7.4193   26.4576 C.3     1  UNL1        0.0739
      4 N           8.3422   -6.2205   27.0683 N.3     1  UNL1       -0.2712
      5 C           8.8204   -5.3375   25.9540 C.3     1  UNL1        0.0919
      6 O           6.3246   -4.5038   23.1510 O.2     1  UNL1       -0.2733
      7 C           7.6759   -4.7082   22.5328 C.2     1  UNL1        0.2425
      8 N           8.7399   -5.4515   23.2846 N.am    1  UNL1       -0.3032
      9 H           9.6268   -5.5857   22.8789 H       1  UNL1        0.1495
     10 C           7.9632   -4.1692   21.1628 C.3     1  UNL1        0.1759
     11 N           7.0814   -3.1080   20.5742 N.am    1  UNL1       -0.2931
     12 C           5.8233   -3.4927   19.8539 C.2     1  UNL1        0.2462
     13 O           5.4467   -4.9387   19.7222 O.2     1  UNL1       -0.2701
     14 H           7.3286   -2.1589   20.6607 H       1  UNL1        0.1502
     15 C           4.9415   -2.4315   19.2653 C.ar    1  UNL1        0.0533
     16 C           5.3073   -1.7923   17.9586 C.ar    1  UNL1        0.0045
     17 C           4.4255   -0.7311   17.3700 C.ar    1  UNL1        0.0001
     18 C           3.1781   -0.3092   18.0882 C.ar    1  UNL1        0.0039
     19 C           2.8124   -0.9484   19.3950 C.ar    1  UNL1        0.0716
     20 C           3.6941   -2.0095   19.9835 C.ar    1  UNL1        0.0084
     21 C           1.5649   -0.5264   20.1132 C.3     1  UNL1        0.4186
     22 F           0.3175   -0.1044   20.8314 F       1  UNL1       -0.1659
     23 F           2.1195   -1.0706   21.3962 F       1  UNL1       -0.1659
     24 F           1.0103    0.0179   18.8301 F       1  UNL1       -0.1659
     25 C           8.4997   -5.9518   28.5356 C.3     1  UNL1        0.0721
     26 C           7.2865   -5.7956   29.4039 C.3     1  UNL1        0.0174
     27 C           7.0058   -4.4818   30.0709 C.3     1  UNL1        0.0048
     28 C           6.9828   -4.3905   31.5680 C.3     1  UNL1        0.0216
     29 C           6.7021   -3.0766   32.2351 C.3     1  UNL1        0.0937
     30 N           6.4444   -1.8541   31.4050 N.am    1  UNL1       -0.2760
     31 C           6.1636   -0.5402   32.0721 C.2     1  UNL1        0.2513
     32 O           5.9059    0.6824   31.2421 O.2     1  UNL1       -0.2698
     33 C           6.4674   -1.9454   29.9080 C.3     1  UNL1        0.0937
     34 C           6.7481   -3.2592   29.2409 C.3     1  UNL1        0.0216
     35 C           6.1407   -0.4489   33.5692 C.ar    1  UNL1        0.0832
     36 C           7.4260   -0.3301   34.3331 C.ar    1  UNL1        0.0364
     37 C           7.4030   -0.2389   35.8301 C.ar    1  UNL1        0.1404
     38 F           8.6884   -0.1200   36.5942 F       1  UNL1       -0.2042
     39 C           6.0946   -0.2664   36.5632 C.ar    1  UNL1        0.0319
     40 C           4.8092   -0.3852   35.7992 C.ar    1  UNL1        0.0321
     41 C           4.8322   -0.4765   34.3021 C.ar    1  UNL1        0.1446
     42 F           3.5469   -0.5953   33.5382 F       1  UNL1       -0.2040
@<TRIPOS>BOND
     1     6     7    2
     2     7    10    1
     3    10    11    1
     4    11    12   am
     5    12    13    2
     6    12    15    1
     7    15    16   ar
     8    16    17   ar
     9    17    18   ar
    10    18    19   ar
    11    19    21    1
    12    21    22    1
    13    21    23    1
    14    21    24    1
    15    19    20   ar
    16     7     8   am
    17     1     8    1
    18     1     2    1
    19     2     3    1
    20     3     4    1
    21     4    25    1
    22    25    26    1
    23    26    27    1
    24    27    28    1
    25    28    29    1
    26    29    30    1
    27    30    31   am
    28    31    32    2
    29    31    35    1
    30    35    36   ar
    31    36    37   ar
    32    37    38    1
    33    37    39   ar
    34    39    40   ar
    35    40    41   ar
    36    41    42    1
    37    30    33    1
    38    33    34    1
    39     4     5    1
    40    20    15   ar
    41     5     1    1
    42    34    27    1
    43    41    35   ar
    44    11    14    1
    45     8     9    1
@<TRIPOS>MOLECULE
*****
 42 45 0 0 0
SMALL
GASTEIGER

@<TRIPOS>ATOM
      1 C           1.2957    1.3434   27.2576 C.3     1  UNL1        0.0889
      2 C           0.9903    2.5852   28.0417 C.3     1  UNL1        0.0383
      3 C           1.7567    2.5205   29.3295 C.3     1  UNL1        0.0739
      4 N           2.5358    1.2387   29.3414 N.3     1  UNL1       -0.2712
      5 C           2.2508    0.5112   28.0609 C.3     1  UNL1        0.0919
      6 O           2.9491    1.8004   24.7964 O.2     1  UNL1       -0.2733
      7 C           1.5697    1.2234   24.6768 C.2     1  UNL1        0.2425
      8 N           0.7430    0.9949   25.9074 N.am    1  UNL1       -0.3032
      9 H          -0.1624    0.6163   25.8288 H       1  UNL1        0.1495
     10 C           1.0170    0.8750   23.3266 C.3     1  UNL1        0.1759
     11 N           1.9299    0.3643   22.2515 N.am    1  UNL1       -0.2931
     12 C           1.3757    0.0071   20.9042 C.2     1  UNL1        0.2462
     13 O          -0.0914    0.1605   20.6320 O.2     1  UNL1       -0.2701
     14 H           2.8928    0.2636   22.4301 H       1  UNL1        0.1502
     15 C           2.2886   -0.5036   19.8290 C.ar    1  UNL1        0.0533
     16 C           2.5936    0.3519   18.6353 C.ar    1  UNL1        0.0045
     17 C           3.5064   -0.1588   17.5602 C.ar    1  UNL1        0.0001
     18 C           4.1143   -1.5250   17.6789 C.ar    1  UNL1        0.0039
     19 C           3.8093   -2.3804   18.8726 C.ar    1  UNL1        0.0716
     20 C           2.8964   -1.8698   19.9477 C.ar    1  UNL1        0.0084
     21 C           4.4171   -3.7466   18.9913 C.3     1  UNL1        0.4186
     22 F           5.0250   -5.1128   19.1099 F       1  UNL1       -0.1659
     23 F           5.7625   -3.1274   19.2293 F       1  UNL1       -0.1659
     24 F           3.0718   -4.3659   18.7532 F       1  UNL1       -0.1659
     25 C           3.4408    0.7672   30.4407 C.3     1  UNL1        0.0721
     26 C           4.3864    1.7285   31.0978 C.3     1  UNL1        0.0174
     27 C           4.3323    1.9371   32.5822 C.3     1  UNL1        0.0048
     28 C           3.0664    1.6509   33.3342 C.3     1  UNL1        0.0216
     29 C           3.0122    1.8596   34.8187 C.3     1  UNL1        0.0937
     30 N           4.2242    2.3544   35.5511 N.am    1  UNL1       -0.2760
     31 C           4.1701    2.5631   37.0356 C.2     1  UNL1        0.2513
     32 O           5.3819    3.0580   37.7680 O.2     1  UNL1       -0.2698
     33 C           5.4901    2.6406   34.7991 C.3     1  UNL1        0.0937
     34 C           5.5442    2.4320   33.3147 C.3     1  UNL1        0.0216
     35 C           2.9041    2.2769   37.7875 C.ar    1  UNL1        0.0832
     36 C           2.6687    0.9143   38.3686 C.ar    1  UNL1        0.0364
     37 C           1.4027    0.6281   39.1206 C.ar    1  UNL1        0.1404
     38 F           1.1673   -0.7346   39.7017 F       1  UNL1       -0.2042
     39 C           0.3722    1.7046   39.2914 C.ar    1  UNL1        0.0319
     40 C           0.6076    3.0673   38.7102 C.ar    1  UNL1        0.0321
     41 C           1.8736    3.3535   37.9583 C.ar    1  UNL1        0.1446
     42 F           2.1090    4.7160   37.3771 F       1  UNL1       -0.2040
@<TRIPOS>BOND
     1     6     7    2
     2     7    10    1
     3    10    11    1
     4    11    12   am
     5    12    13    2
     6    12    15    1
     7    15    16   ar
     8    16    17   ar
     9    17    18   ar
    10    18    19   ar
    11    19    21    1
    12    21    22    1
    13    21    23    1
    14    21    24    1
    15    19    20   ar
    16     7     8   am
    17     1     8    1
    18     1     2    1
    19     2     3    1
    20     3     4    1
    21     4    25    1
    22    25    26    1
    23    26    27    1
    24    27    28    1
    25    28    29    1
    26    29    30    1
    27    30    31   am
    28    31    32    2
    29    31    35    1
    30    35    36   ar
    31    36    37   ar
    32    37    38    1
    33    37    39   ar
    34    39    40   ar
    35    40    41   ar
    36    41    42    1
    37    30    33    1
    38    33    34    1
    39     4     5    1
    40    20    15   ar
    41     5     1    1
    42    34    27    1
    43    41    35   ar
    44    11    14    1
    45     8     9    1
@<TRIPOS>MOLECULE
*****
 42 45 0 0 0
SMALL
GASTEIGER

@<TRIPOS>ATOM
      1 C           7.4390   -5.1185   31.0328 C.3     1  UNL1        0.0889
      2 C           8.9365   -5.2035   31.0449 C.3     1  UNL1        0.0383
      3 C           9.3709   -5.9088   29.7944 C.3     1  UNL1        0.0739
      4 N           8.1418   -6.2598   29.0094 N.3     1  UNL1       -0.2712
      5 C           6.9479   -5.7714   29.7748 C.3     1  UNL1        0.0919
      6 O           6.3298   -2.3608   30.6270 O.2     1  UNL1       -0.2733
      7 C           6.0283   -3.1121   31.8898 C.2     1  UNL1        0.2425
      8 N           6.5829   -4.4910   32.0927 N.am    1  UNL1       -0.3032
      9 H           6.3849   -4.9841   32.9215 H       1  UNL1        0.1495
     10 C           5.1722   -2.4846   32.9496 C.3     1  UNL1        0.1759
     11 N           3.9688   -1.6776   32.5613 N.am    1  UNL1       -0.2931
     12 C           4.1106   -0.2136   32.2674 C.2     1  UNL1        0.2462
     13 O           5.4556    0.4436   32.3619 O.2     1  UNL1       -0.2701
     14 H           3.0860   -2.1089   32.4992 H       1  UNL1        0.1502
     15 C           2.9072    0.5934   31.8791 C.ar    1  UNL1        0.0533
     16 C           2.3815    1.6495   32.8055 C.ar    1  UNL1        0.0045
     17 C           1.1782    2.4564   32.4172 C.ar    1  UNL1        0.0001
     18 C           0.5005    2.2072   31.1024 C.ar    1  UNL1        0.0039
     19 C           1.0262    1.1512   30.1759 C.ar    1  UNL1        0.0716
     20 C           2.2295    0.3443   30.5643 C.ar    1  UNL1        0.0084
     21 C           0.3486    0.9021   28.8611 C.3     1  UNL1        0.4186
     22 F          -0.3290    0.6530   27.5462 F       1  UNL1       -0.1659
     23 F           0.5499   -0.5739   29.0370 F       1  UNL1       -0.1659
     24 F           0.1473    2.3781   28.6851 F       1  UNL1       -0.1659
     25 C           8.1120   -6.9738   27.6906 C.3     1  UNL1        0.0721
     26 C           8.7426   -6.3457   26.4832 C.3     1  UNL1        0.0174
     27 C           7.9425   -5.4204   25.6150 C.3     1  UNL1        0.0048
     28 C           7.8491   -5.6704   24.1390 C.3     1  UNL1        0.0216
     29 C           7.0490   -4.7451   23.2707 C.3     1  UNL1        0.0937
     30 N           6.3424   -3.5699   23.8786 N.am    1  UNL1       -0.2760
     31 C           5.5423   -2.6446   23.0104 C.2     1  UNL1        0.2513
     32 O           4.8357   -1.4694   23.6182 O.2     1  UNL1       -0.2698
     33 C           6.4358   -3.3199   25.3547 C.3     1  UNL1        0.0937
     34 C           7.2359   -4.2452   26.2229 C.3     1  UNL1        0.0216
     35 C           5.4489   -2.8947   21.5343 C.ar    1  UNL1        0.0832
     36 C           4.2833   -3.6549   20.9747 C.ar    1  UNL1        0.0364
     37 C           4.1898   -3.9049   19.4986 C.ar    1  UNL1        0.1404
     38 F           3.0241   -4.6651   18.9390 F       1  UNL1       -0.2042
     39 C           5.2621   -3.3946   18.5822 C.ar    1  UNL1        0.0319
     40 C           6.4278   -2.6344   19.1419 C.ar    1  UNL1        0.0321
     41 C           6.5212   -2.3844   20.6179 C.ar    1  UNL1        0.1446
     42 F           7.6869   -1.6242   21.1775 F       1  UNL1       -0.2040
@<TRIPOS>BOND
     1     6     7    2
     2     7    10    1
     3    10    11    1
     4    11    12   am
     5    12    13    2
     6    12    15    1
     7    15    16   ar
     8    16    17   ar
     9    17    18   ar
    10    18    19   ar
    11    19    21    1
    12    21    22    1
    13    21    23    1
    14    21    24    1
    15    19    20   ar
    16     7     8   am
    17     1     8    1
    18     1     2    1
    19     2     3    1
    20     3     4    1
    21     4    25    1
    22    25    26    1
    23    26    27    1
    24    27    28    1
    25    28    29    1
    26    29    30    1
    27    30    31   am
    28    31    32    2
    29    31    35    1
    30    35    36   ar
    31    36    37   ar
    32    37    38    1
    33    37    39   ar
    34    39    40   ar
    35    40    41   ar
    36    41    42    1
    37    30    33    1
    38    33    34    1
    39     4     5    1
    40    20    15   ar
    41     5     1    1
    42    34    27    1
    43    41    35   ar
    44    11    14    1
    45     8     9    1
@<TRIPOS>MOLECULE
*****
 42 45 0 0 0
SMALL
GASTEIGER

@<TRIPOS>ATOM
      1 C           7.8015   -5.3653   25.3889 C.3     1  UNL1        0.0889
      2 C           6.6340   -5.5877   26.3040 C.3     1  UNL1        0.0383
      3 C           7.1115   -5.4137   27.7153 C.3     1  UNL1        0.0739
      4 N           8.5742   -5.0838   27.6724 N.3     1  UNL1       -0.2712
      5 C           9.0006   -5.0538   26.2346 C.3     1  UNL1        0.0919
      6 O           7.3534   -2.8802   23.7691 O.2     1  UNL1       -0.2733
      7 C           7.5506   -4.1985   23.0811 C.2     1  UNL1        0.2425
      8 N           7.7746   -5.4410   23.8910 N.am    1  UNL1       -0.3032
      9 H           7.9041   -6.3062   23.4395 H       1  UNL1        0.1495
     10 C           7.5238   -4.2742   21.5833 C.3     1  UNL1        0.1759
     11 N           6.8133   -3.2167   20.7915 N.am    1  UNL1       -0.2931
     12 C           5.3759   -3.4064   20.4071 C.2     1  UNL1        0.2462
     13 O           4.6488   -4.6535   20.8146 O.2     1  UNL1       -0.2701
     14 H           7.2905   -2.3982   20.5240 H       1  UNL1        0.1502
     15 C           4.6654   -2.3488   19.6153 C.ar    1  UNL1        0.0533
     16 C           5.2856   -1.8071   18.3616 C.ar    1  UNL1        0.0045
     17 C           4.5752   -0.7496   17.5698 C.ar    1  UNL1        0.0001
     18 C           3.2445   -0.2339   18.0317 C.ar    1  UNL1        0.0039
     19 C           2.6242   -0.7757   19.2853 C.ar    1  UNL1        0.0716
     20 C           3.3347   -1.8332   20.0771 C.ar    1  UNL1        0.0084
     21 C           1.2935   -0.2601   19.7472 C.3     1  UNL1        0.4186
     22 F          -0.0372    0.2556   20.2091 F       1  UNL1       -0.1659
     23 F           1.5594   -0.8034   21.1198 F       1  UNL1       -0.1659
     24 F           1.0277    0.2833   18.3746 F       1  UNL1       -0.1659
     25 C           9.4557   -4.8286   28.8589 C.3     1  UNL1        0.0721
     26 C           9.3741   -3.5191   29.5860 C.3     1  UNL1        0.0174
     27 C           8.1238   -3.1498   30.3278 C.3     1  UNL1        0.0048
     28 C           7.3372   -1.9407   29.9164 C.3     1  UNL1        0.0216
     29 C           6.0868   -1.5713   30.6581 C.3     1  UNL1        0.0937
     30 N           5.6232   -2.4111   31.8113 N.am    1  UNL1       -0.2760
     31 C           4.3728   -2.0417   32.5531 C.2     1  UNL1        0.2513
     32 O           3.9091   -2.8814   33.7063 O.2     1  UNL1       -0.2698
     33 C           6.4098   -3.6202   32.2227 C.3     1  UNL1        0.0937
     34 C           7.6601   -3.9895   31.4809 C.3     1  UNL1        0.0216
     35 C           3.5862   -0.8326   32.1417 C.ar    1  UNL1        0.0832
     36 C           2.8655   -0.8186   30.8263 C.ar    1  UNL1        0.0364
     37 C           2.0789    0.3905   30.4149 C.ar    1  UNL1        0.1404
     38 F           1.3582    0.4045   29.0995 F       1  UNL1       -0.2042
     39 C           2.0130    1.5857   31.3190 C.ar    1  UNL1        0.0319
     40 C           2.7337    1.5717   32.6344 C.ar    1  UNL1        0.0321
     41 C           3.5203    0.3625   33.0458 C.ar    1  UNL1        0.1446
     42 F           4.2410    0.3486   34.3612 F       1  UNL1       -0.2040
@<TRIPOS>BOND
     1     6     7    2
     2     7    10    1
     3    10    11    1
     4    11    12   am
     5    12    13    2
     6    12    15    1
     7    15    16   ar
     8    16    17   ar
     9    17    18   ar
    10    18    19   ar
    11    19    21    1
    12    21    22    1
    13    21    23    1
    14    21    24    1
    15    19    20   ar
    16     7     8   am
    17     1     8    1
    18     1     2    1
    19     2     3    1
    20     3     4    1
    21     4    25    1
    22    25    26    1
    23    26    27    1
    24    27    28    1
    25    28    29    1
    26    29    30    1
    27    30    31   am
    28    31    32    2
    29    31    35    1
    30    35    36   ar
    31    36    37   ar
    32    37    38    1
    33    37    39   ar
    34    39    40   ar
    35    40    41   ar
    36    41    42    1
    37    30    33    1
    38    33    34    1
    39     4     5    1
    40    20    15   ar
    41     5     1    1
    42    34    27    1
    43    41    35   ar
    44    11    14    1
    45     8     9    1
