@<TRIPOS>MOLECULE
*****
 31 34 0 0 0
SMALL
GASTEIGER

@<TRIPOS>ATOM
      1 N          -2.9402    2.6132   20.5750 N.am    1  UNL1       -0.2681
      2 C          -1.7179    3.3296   20.0824 C.2     1  UNL1        0.3077
      3 O          -1.8134    4.7605   19.6427 O.2     1  UNL1       -0.2522
      4 N          -0.4001    2.6151   20.0296 N.am    1  UNL1       -0.2640
      5 C          -0.1518    1.1922   20.4341 C.3     1  UNL1        0.0950
      6 C           1.3026    0.8958   20.2175 C.3     1  UNL1        0.0219
      7 C           2.3549   -0.1668   20.3336 C.3     1  UNL1        0.0061
      8 C           3.6559    0.4162   19.8670 C.3     1  UNL1        0.0224
      9 C           3.4076    1.8392   19.4626 C.3     1  UNL1        0.0061
     10 C           1.9532    2.1355   19.6792 C.3     1  UNL1        0.0219
     11 C           0.9009    3.1982   19.5631 C.3     1  UNL1        0.0950
     12 H          -2.8775    1.6741   20.8636 H       1  UNL1        0.1564
     13 C          -4.7629    3.8748   21.9300 C.ar    1  UNL1        0.0275
     14 C          -6.0808    4.5892   21.9828 C.ar    1  UNL1        0.0024
     15 C          -6.8939    4.7564   20.7334 C.ar    1  UNL1        0.0001
     16 C          -6.3891    4.2092   19.4312 C.ar    1  UNL1        0.0013
     17 C          -5.0712    3.4948   19.3785 C.ar    1  UNL1        0.0147
     18 C          -4.2582    3.3276   20.6279 C.ar    1  UNL1        0.0526
     19 O          -4.5610    3.0707   24.3923 O.co2   1  UNL1       -0.5446
     20 C          -3.9499    3.7076   23.1795 C.2     1  UNL1        0.0741
     21 O          -2.5258    4.1773   23.2160 O.co2   1  UNL1       -0.5446
     22 C           4.9737   -0.2983   19.8142 C.ar    1  UNL1       -0.0186
     23 C           5.8831   -0.2837   21.0070 C.ar    1  UNL1       -0.0043
     24 C           7.2010   -0.9981   20.9542 C.ar    1  UNL1       -0.0003
     25 C           7.6094   -1.7272   19.7086 C.ar    1  UNL1       -0.0001
     26 C           6.7000   -1.7418   18.5157 C.ar    1  UNL1        0.0035
     27 C           5.3822   -1.0274   18.5685 C.ar    1  UNL1        0.0675
     28 C           4.4728   -1.0420   17.3758 C.3     1  UNL1        0.4183
     29 F           3.5634   -1.0566   16.1830 F       1  UNL1       -0.1659
     30 F           3.7452   -2.2238   17.9450 F       1  UNL1       -0.1659
     31 F           5.2004    0.1398   16.8066 F       1  UNL1       -0.1659
@<TRIPOS>UNITY_ATOM_ATTR
19 1
charge -1
@<TRIPOS>BOND
     1    19    20   ar
     2    20    21   ar
     3    20    13    1
     4    13    14   ar
     5    14    15   ar
     6    15    16   ar
     7    16    17   ar
     8    17    18   ar
     9    18     1    1
    10     1     2   am
    11     2     3    2
    12     2     4   am
    13     4     5    1
    14     6     5    1
    15     6     7    1
    16     7     8    1
    17     8    22    1
    18    22    23   ar
    19    23    24   ar
    20    24    25   ar
    21    25    26   ar
    22    26    27   ar
    23    27    28    1
    24    28    29    1
    25    28    30    1
    26    28    31    1
    27     8     9    1
    28    10     9    1
    29    10    11    1
    30    18    13   ar
    31    11     4    1
    32    10     6    1
    33    27    22   ar
    34     1    12    1
@<TRIPOS>MOLECULE
*****
 31 34 0 0 0
SMALL
GASTEIGER

@<TRIPOS>ATOM
      1 N           6.3366   -2.3007   28.0831 N.am    1  UNL1       -0.2681
      2 C           5.0540   -1.8663   27.4380 C.2     1  UNL1        0.3077
      3 O           3.8236   -1.6693   28.2731 O.2     1  UNL1       -0.2522
      4 N           5.0017   -1.6289   25.9578 N.am    1  UNL1       -0.2640
      5 C           6.1448   -1.7843   24.9991 C.3     1  UNL1        0.0950
      6 C           5.6467   -1.4460   23.6253 C.3     1  UNL1        0.0219
      7 C           6.0453   -1.3329   22.1836 C.3     1  UNL1        0.0061
      8 C           4.8408   -0.8984   21.4023 C.3     1  UNL1        0.0224
      9 C           3.6977   -0.7431   22.3611 C.3     1  UNL1        0.0061
     10 C           4.1958   -1.0814   23.7349 C.3     1  UNL1        0.0219
     11 C           3.7972   -1.1945   25.1766 C.3     1  UNL1        0.0950
     12 H           7.1441   -2.4299   27.5350 H       1  UNL1        0.1564
     13 C           6.6348   -3.9196   30.0931 C.ar    1  UNL1        0.0275
     14 C           6.6871   -4.1569   31.5733 C.ar    1  UNL1        0.0024
     15 C           6.4936   -3.0126   32.5236 C.ar    1  UNL1        0.0001
     16 C           6.2478   -1.6310   31.9938 C.ar    1  UNL1        0.0013
     17 C           6.1954   -1.3937   30.5136 C.ar    1  UNL1        0.0147
     18 C           6.3890   -2.5380   29.5633 C.ar    1  UNL1        0.0526
     19 O           5.9065   -5.2299   27.9711 O.co2   1  UNL1       -0.5446
     20 C           6.8283   -5.0639   29.1428 C.2     1  UNL1        0.0741
     21 O           7.9437   -6.0422   29.3641 O.co2   1  UNL1       -0.5446
     22 C           4.7885   -0.6611   19.9222 C.ar    1  UNL1       -0.0186
     23 C           5.1419    0.6863   19.3657 C.ar    1  UNL1       -0.0043
     24 C           5.0896    0.9237   17.8855 C.ar    1  UNL1       -0.0003
     25 C           4.6839   -0.1863   16.9618 C.ar    1  UNL1       -0.0001
     26 C           4.3306   -1.5338   17.5183 C.ar    1  UNL1        0.0035
     27 C           4.3828   -1.7711   18.9984 C.ar    1  UNL1        0.0675
     28 C           4.0295   -3.1185   19.5549 C.3     1  UNL1        0.4183
     29 F           3.6761   -4.4659   20.1114 F       1  UNL1       -0.1659
     30 F           5.4547   -3.5582   19.3954 F       1  UNL1       -0.1659
     31 F           2.6043   -2.6789   19.7144 F       1  UNL1       -0.1659
@<TRIPOS>UNITY_ATOM_ATTR
19 1
charge -1
@<TRIPOS>BOND
     1    19    20   ar
     2    20    21   ar
     3    20    13    1
     4    13    14   ar
     5    14    15   ar
     6    15    16   ar
     7    16    17   ar
     8    17    18   ar
     9    18     1    1
    10     1     2   am
    11     2     3    2
    12     2     4   am
    13     4     5    1
    14     6     5    1
    15     6     7    1
    16     7     8    1
    17     8    22    1
    18    22    23   ar
    19    23    24   ar
    20    24    25   ar
    21    25    26   ar
    22    26    27   ar
    23    27    28    1
    24    28    29    1
    25    28    30    1
    26    28    31    1
    27     8     9    1
    28    10     9    1
    29    10    11    1
    30    18    13   ar
    31    11     4    1
    32    10     6    1
    33    27    22   ar
    34     1    12    1
@<TRIPOS>MOLECULE
*****
 31 34 0 0 0
SMALL
GASTEIGER

@<TRIPOS>ATOM
      1 N          -2.7064    2.4904   20.4890 N.am    1  UNL1       -0.2681
      2 C          -1.3570    2.9793   20.9249 C.2     1  UNL1        0.3077
      3 O          -1.1971    4.3785   21.4414 O.2     1  UNL1       -0.2522
      4 N          -0.1675    2.0691   20.8443 N.am    1  UNL1       -0.2640
      5 C          -0.1733    0.6522   20.3521 C.3     1  UNL1        0.0950
      6 C           1.2273    0.1234   20.4454 C.3     1  UNL1        0.0219
      7 C           2.0894   -1.0791   20.1989 C.3     1  UNL1        0.0061
      8 C           3.4936   -0.7323   20.5964 C.3     1  UNL1        0.0224
      9 C           3.4993    0.6847   21.0886 C.3     1  UNL1        0.0061
     10 C           2.0987    1.2135   20.9953 C.3     1  UNL1        0.0219
     11 C           1.2367    2.4160   21.2418 C.3     1  UNL1        0.0950
     12 H          -2.8113    1.5721   20.1500 H       1  UNL1        0.1564
     13 C          -4.3624    4.1352   19.3477 C.ar    1  UNL1        0.0275
     14 C          -5.5520    5.0453   19.4284 C.ar    1  UNL1        0.0024
     15 C          -6.2752    5.2208   20.7308 C.ar    1  UNL1        0.0001
     16 C          -5.8088    4.4862   21.9525 C.ar    1  UNL1        0.0013
     17 C          -4.6192    3.5761   21.8719 C.ar    1  UNL1        0.0147
     18 C          -3.8960    3.4006   20.5695 C.ar    1  UNL1        0.0526
     19 O          -2.2252    4.4393   17.9021 O.co2   1  UNL1       -0.5446
     20 C          -3.6392    3.9597   18.0454 C.2     1  UNL1        0.0741
     21 O          -4.3301    3.3046   16.8862 O.co2   1  UNL1       -0.5446
     22 C           4.6831   -1.6425   20.5158 C.ar    1  UNL1       -0.0186
     23 C           5.0580   -2.4927   21.6933 C.ar    1  UNL1       -0.0043
     24 C           6.2475   -3.4030   21.6128 C.ar    1  UNL1       -0.0003
     25 C           7.0622   -3.4629   20.3547 C.ar    1  UNL1       -0.0001
     26 C           6.6872   -2.6126   19.1771 C.ar    1  UNL1        0.0035
     27 C           5.4978   -1.7025   19.2577 C.ar    1  UNL1        0.0675
     28 C           5.1228   -0.8522   18.0802 C.3     1  UNL1        0.4183
     29 F           4.7479   -0.0019   16.9027 F       1  UNL1       -0.1659
     30 F           6.0271    0.2361   18.5781 F       1  UNL1       -0.1659
     31 F           4.2186   -1.9405   17.5823 F       1  UNL1       -0.1659
@<TRIPOS>UNITY_ATOM_ATTR
19 1
charge -1
@<TRIPOS>BOND
     1    19    20   ar
     2    20    21   ar
     3    20    13    1
     4    13    14   ar
     5    14    15   ar
     6    15    16   ar
     7    16    17   ar
     8    17    18   ar
     9    18     1    1
    10     1     2   am
    11     2     3    2
    12     2     4   am
    13     4     5    1
    14     6     5    1
    15     6     7    1
    16     7     8    1
    17     8    22    1
    18    22    23   ar
    19    23    24   ar
    20    24    25   ar
    21    25    26   ar
    22    26    27   ar
    23    27    28    1
    24    28    29    1
    25    28    30    1
    26    28    31    1
    27     8     9    1
    28    10     9    1
    29    10    11    1
    30    18    13   ar
    31    11     4    1
    32    10     6    1
    33    27    22   ar
    34     1    12    1
@<TRIPOS>MOLECULE
*****
 31 34 0 0 0
SMALL
GASTEIGER

@<TRIPOS>ATOM
      1 N          -2.0005    4.0038   20.7890 N.am    1  UNL1       -0.2681
      2 C          -1.1838    3.7030   19.5674 C.2     1  UNL1        0.3077
      3 O          -1.3271    4.5547   18.3410 O.2     1  UNL1       -0.2522
      4 N          -0.2239    2.5504   19.5720 N.am    1  UNL1       -0.2640
      5 C           0.0258    1.6156   20.7182 C.3     1  UNL1        0.0950
      6 C           1.0590    0.6177   20.2859 C.3     1  UNL1        0.0219
      7 C           1.8518   -0.5767   20.7270 C.3     1  UNL1        0.0061
      8 C           2.7307   -0.9969   19.5863 C.3     1  UNL1        0.0224
      9 C           2.4809   -0.0620   18.4401 C.3     1  UNL1        0.0061
     10 C           1.4478    0.9359   18.8725 C.3     1  UNL1        0.0219
     11 C           0.6549    2.1303   18.4313 C.3     1  UNL1        0.0950
     12 H          -1.9065    3.4447   21.5939 H       1  UNL1        0.1564
     13 C          -4.4308    4.9072   20.6229 C.ar    1  UNL1        0.0275
     14 C          -5.3908    6.0598   20.6183 C.ar    1  UNL1        0.0024
     15 C          -4.8804    7.4615   20.7753 C.ar    1  UNL1        0.0001
     16 C          -3.4101    7.7107   20.9369 C.ar    1  UNL1        0.0013
     17 C          -2.4502    6.5581   20.9415 C.ar    1  UNL1        0.0147
     18 C          -2.9606    5.1564   20.7845 C.ar    1  UNL1        0.0526
     19 O          -4.6342    2.4740   21.5108 O.co2   1  UNL1       -0.5446
     20 C          -4.9412    3.5054   20.4658 C.2     1  UNL1        0.0741
     21 O          -5.7586    3.1351   19.2638 O.co2   1  UNL1       -0.5446
     22 C           3.6906   -2.1494   19.5910 C.ar    1  UNL1       -0.0186
     23 C           3.2390   -3.5035   19.1301 C.ar    1  UNL1       -0.0043
     24 C           4.1990   -4.6561   19.1347 C.ar    1  UNL1       -0.0003
     25 C           5.6106   -4.4546   19.6002 C.ar    1  UNL1       -0.0001
     26 C           6.0622   -3.1004   20.0612 C.ar    1  UNL1        0.0035
     27 C           5.1023   -1.9479   20.0565 C.ar    1  UNL1        0.0675
     28 C           5.5539   -0.5938   20.5174 C.3     1  UNL1        0.4183
     29 F           6.0055    0.7603   20.9783 F       1  UNL1       -0.1659
     30 F           5.9251   -0.2380   19.1083 F       1  UNL1       -0.1659
     31 F           5.1826   -0.9496   21.9265 F       1  UNL1       -0.1659
@<TRIPOS>UNITY_ATOM_ATTR
19 1
charge -1
@<TRIPOS>BOND
     1    19    20   ar
     2    20    21   ar
     3    20    13    1
     4    13    14   ar
     5    14    15   ar
     6    15    16   ar
     7    16    17   ar
     8    17    18   ar
     9    18     1    1
    10     1     2   am
    11     2     3    2
    12     2     4   am
    13     4     5    1
    14     6     5    1
    15     6     7    1
    16     7     8    1
    17     8    22    1
    18    22    23   ar
    19    23    24   ar
    20    24    25   ar
    21    25    26   ar
    22    26    27   ar
    23    27    28    1
    24    28    29    1
    25    28    30    1
    26    28    31    1
    27     8     9    1
    28    10     9    1
    29    10    11    1
    30    18    13   ar
    31    11     4    1
    32    10     6    1
    33    27    22   ar
    34     1    12    1
@<TRIPOS>MOLECULE
*****
 31 34 0 0 0
SMALL
GASTEIGER

@<TRIPOS>ATOM
      1 N           7.2495   -4.9901   26.8875 N.am    1  UNL1       -0.2681
      2 C           8.0525   -4.2163   25.8843 C.2     1  UNL1        0.3077
      3 O           9.5359   -4.0768   26.0580 O.2     1  UNL1       -0.2522
      4 N           7.3722   -3.5821   24.7075 N.am    1  UNL1       -0.2640
      5 C           5.9044   -3.6359   24.4032 C.3     1  UNL1        0.0950
      6 C           5.6654   -2.8697   23.1360 C.3     1  UNL1        0.0219
      7 C           4.6105   -2.4294   22.1647 C.3     1  UNL1        0.0061
      8 C           5.2786   -1.6300   21.0855 C.3     1  UNL1        0.0224
      9 C           6.7465   -1.5763   21.3898 C.3     1  UNL1        0.0061
     10 C           6.9855   -2.3424   22.6571 C.3     1  UNL1        0.0219
     11 C           8.0404   -2.7827   23.6283 C.3     1  UNL1        0.0950
     12 H           6.2759   -5.0817   26.7735 H       1  UNL1        0.1564
     13 C           8.4657   -7.0212   27.9576 C.ar    1  UNL1        0.0275
     14 C           9.1459   -7.6554   29.1346 C.ar    1  UNL1        0.0024
     15 C           9.2900   -6.8928   30.4181 C.ar    1  UNL1        0.0001
     16 C           8.7540   -5.4959   30.5249 C.ar    1  UNL1        0.0013
     17 C           8.0738   -4.8617   29.3479 C.ar    1  UNL1        0.0147
     18 C           7.9297   -5.6244   28.0644 C.ar    1  UNL1        0.0526
     19 O           6.9665   -7.9629   26.0561 O.co2   1  UNL1       -0.5446
     20 C           8.3216   -7.7839   26.6741 C.2     1  UNL1        0.0741
     21 O           9.5325   -8.3675   26.0084 O.co2   1  UNL1       -0.5446
     22 C           4.5984   -0.9958   19.9087 C.ar    1  UNL1       -0.0186
     23 C           4.2157    0.4538   19.9552 C.ar    1  UNL1       -0.0043
     24 C           3.5355    1.0881   18.7783 C.ar    1  UNL1       -0.0003
     25 C           3.2379    0.2728   17.5550 C.ar    1  UNL1       -0.0001
     26 C           3.6206   -1.1769   17.5085 C.ar    1  UNL1        0.0035
     27 C           4.3008   -1.8112   18.6853 C.ar    1  UNL1        0.0675
     28 C           4.6835   -3.2608   18.6388 C.3     1  UNL1        0.4183
     29 F           5.0662   -4.7104   18.5923 F       1  UNL1       -0.1659
     30 F           6.0202   -2.8896   18.0684 F       1  UNL1       -0.1659
     31 F           3.3467   -3.6319   19.2091 F       1  UNL1       -0.1659
@<TRIPOS>UNITY_ATOM_ATTR
19 1
charge -1
@<TRIPOS>BOND
     1    19    20   ar
     2    20    21   ar
     3    20    13    1
     4    13    14   ar
     5    14    15   ar
     6    15    16   ar
     7    16    17   ar
     8    17    18   ar
     9    18     1    1
    10     1     2   am
    11     2     3    2
    12     2     4   am
    13     4     5    1
    14     6     5    1
    15     6     7    1
    16     7     8    1
    17     8    22    1
    18    22    23   ar
    19    23    24   ar
    20    24    25   ar
    21    25    26   ar
    22    26    27   ar
    23    27    28    1
    24    28    29    1
    25    28    30    1
    26    28    31    1
    27     8     9    1
    28    10     9    1
    29    10    11    1
    30    18    13   ar
    31    11     4    1
    32    10     6    1
    33    27    22   ar
    34     1    12    1
@<TRIPOS>MOLECULE
*****
 31 34 0 0 0
SMALL
GASTEIGER

@<TRIPOS>ATOM
      1 N           2.1229    1.3499   27.8108 N.am    1  UNL1       -0.2681
      2 C           3.0595    0.1852   27.6829 C.2     1  UNL1        0.3077
      3 O           3.7074   -0.3940   28.9055 O.2     1  UNL1       -0.2522
      4 N           3.3481   -0.4003   26.3324 N.am    1  UNL1       -0.2640
      5 C           2.7776    0.0701   25.0273 C.3     1  UNL1        0.0950
      6 C           3.3348   -0.7979   23.9382 C.3     1  UNL1        0.0219
      7 C           3.3266   -1.0437   22.4585 C.3     1  UNL1        0.0061
      8 C           4.2364   -2.2024   22.1759 C.3     1  UNL1        0.0224
      9 C           4.8068   -2.6728   23.4811 C.3     1  UNL1        0.0061
     10 C           4.2496   -1.8048   24.5702 C.3     1  UNL1        0.0219
     11 C           4.2578   -1.5590   26.0499 C.3     1  UNL1        0.0950
     12 H           1.6977    1.7300   27.0084 H       1  UNL1        0.1564
     13 C           0.4983    1.7120   29.8057 C.ar    1  UNL1        0.0275
     14 C           0.2097    2.2976   31.1562 C.ar    1  UNL1        0.0024
     15 C           1.2571    3.1066   31.8622 C.ar    1  UNL1        0.0001
     16 C           2.5930    3.3300   31.2179 C.ar    1  UNL1        0.0013
     17 C           2.8816    2.7444   29.8674 C.ar    1  UNL1        0.0147
     18 C           1.8342    1.9354   29.1613 C.ar    1  UNL1        0.0526
     19 O          -0.9375    1.2441   27.6915 O.co2   1  UNL1       -0.5446
     20 C          -0.5491    0.9030   29.0996 C.2     1  UNL1        0.0741
     21 O          -1.2081   -0.2471   29.8017 O.co2   1  UNL1       -0.5446
     22 C           4.5250   -2.7879   20.8255 C.ar    1  UNL1       -0.0186
     23 C           3.9089   -4.0964   20.4281 C.ar    1  UNL1       -0.0043
     24 C           4.1975   -4.6820   19.0776 C.ar    1  UNL1       -0.0003
     25 C           5.1022   -3.9589   18.1245 C.ar    1  UNL1       -0.0001
     26 C           5.7184   -2.6503   18.5219 C.ar    1  UNL1        0.0035
     27 C           5.4298   -2.0648   19.8723 C.ar    1  UNL1        0.0675
     28 C           6.0460   -0.7562   20.2697 C.3     1  UNL1        0.4183
     29 F           6.6621    0.5524   20.6671 F       1  UNL1       -0.1659
     30 F           7.1964   -1.4878   20.8952 F       1  UNL1       -0.1659
     31 F           4.8956   -0.0246   19.6442 F       1  UNL1       -0.1659
@<TRIPOS>UNITY_ATOM_ATTR
19 1
charge -1
@<TRIPOS>BOND
     1    19    20   ar
     2    20    21   ar
     3    20    13    1
     4    13    14   ar
     5    14    15   ar
     6    15    16   ar
     7    16    17   ar
     8    17    18   ar
     9    18     1    1
    10     1     2   am
    11     2     3    2
    12     2     4   am
    13     4     5    1
    14     6     5    1
    15     6     7    1
    16     7     8    1
    17     8    22    1
    18    22    23   ar
    19    23    24   ar
    20    24    25   ar
    21    25    26   ar
    22    26    27   ar
    23    27    28    1
    24    28    29    1
    25    28    30    1
    26    28    31    1
    27     8     9    1
    28    10     9    1
    29    10    11    1
    30    18    13   ar
    31    11     4    1
    32    10     6    1
    33    27    22   ar
    34     1    12    1
@<TRIPOS>MOLECULE
*****
 31 34 0 0 0
SMALL
GASTEIGER

@<TRIPOS>ATOM
      1 N           6.0008   -3.3767   27.5851 N.am    1  UNL1       -0.2681
      2 C           6.9931   -3.5017   26.4672 C.2     1  UNL1        0.3077
      3 O           8.3376   -4.1156   26.7230 O.2     1  UNL1       -0.2522
      4 N           6.6410   -3.0129   25.0935 N.am    1  UNL1       -0.2640
      5 C           5.3424   -2.3804   24.6888 C.3     1  UNL1        0.0950
      6 C           5.4245   -2.0473   23.2285 C.3     1  UNL1        0.0219
      7 C           4.6726   -1.4506   22.0759 C.3     1  UNL1        0.0061
      8 C           5.5572   -1.5083   20.8657 C.3     1  UNL1        0.0224
      9 C           6.8557   -2.1408   21.2706 C.3     1  UNL1        0.0061
     10 C           6.7737   -2.4739   22.7308 C.3     1  UNL1        0.0219
     11 C           7.5255   -3.0706   23.8835 C.3     1  UNL1        0.0950
     12 H           5.1183   -2.9738   27.4171 H       1  UNL1        0.1564
     13 C           6.4169   -2.9001   30.1049 C.ar    1  UNL1        0.0275
     14 C           6.7690   -3.3890   31.4786 C.ar    1  UNL1        0.0024
     15 C           7.0571   -4.8434   31.7061 C.ar    1  UNL1        0.0001
     16 C           6.9931   -5.8089   30.5600 C.ar    1  UNL1        0.0013
     17 C           6.6410   -5.3200   29.1863 C.ar    1  UNL1        0.0147
     18 C           6.3529   -3.8656   28.9588 C.ar    1  UNL1        0.0526
     19 O           6.9712   -0.6549   28.9209 O.co2   1  UNL1       -0.5446
     20 C           6.1287   -1.4457   29.8774 C.2     1  UNL1        0.0741
     21 O           4.9982   -0.7821   30.6065 O.co2   1  UNL1       -0.5446
     22 C           5.2050   -1.0195   19.4921 C.ar    1  UNL1       -0.0186
     23 C           5.7129    0.3091   19.0157 C.ar    1  UNL1       -0.0043
     24 C           5.3608    0.7980   17.6420 C.ar    1  UNL1       -0.0003
     25 C           4.5008   -0.0417   16.7447 C.ar    1  UNL1       -0.0001
     26 C           3.9928   -1.3704   17.2211 C.ar    1  UNL1        0.0035
     27 C           4.3450   -1.8592   18.5947 C.ar    1  UNL1        0.0675
     28 C           3.8371   -3.1878   19.0711 C.3     1  UNL1        0.4183
     29 F           3.3292   -4.5163   19.5475 F       1  UNL1       -0.1659
     30 F           2.6271   -2.5173   19.6511 F       1  UNL1       -0.1659
     31 F           5.0470   -3.8583   18.4911 F       1  UNL1       -0.1659
@<TRIPOS>UNITY_ATOM_ATTR
19 1
charge -1
@<TRIPOS>BOND
     1    19    20   ar
     2    20    21   ar
     3    20    13    1
     4    13    14   ar
     5    14    15   ar
     6    15    16   ar
     7    16    17   ar
     8    17    18   ar
     9    18     1    1
    10     1     2   am
    11     2     3    2
    12     2     4   am
    13     4     5    1
    14     6     5    1
    15     6     7    1
    16     7     8    1
    17     8    22    1
    18    22    23   ar
    19    23    24   ar
    20    24    25   ar
    21    25    26   ar
    22    26    27   ar
    23    27    28    1
    24    28    29    1
    25    28    30    1
    26    28    31    1
    27     8     9    1
    28    10     9    1
    29    10    11    1
    30    18    13   ar
    31    11     4    1
    32    10     6    1
    33    27    22   ar
    34     1    12    1
@<TRIPOS>MOLECULE
*****
 31 34 0 0 0
SMALL
GASTEIGER

@<TRIPOS>ATOM
      1 N         -12.7360   -4.1597   19.3435 N.am    1  UNL1       -0.2681
      2 C         -12.8119   -2.9178   18.5056 C.2     1  UNL1        0.3077
      3 O         -11.8693   -2.7315   17.3538 O.2     1  UNL1       -0.2522
      4 N         -13.8304   -1.8623   18.8196 N.am    1  UNL1       -0.2640
      5 C         -14.8339   -1.9090   19.9335 C.3     1  UNL1        0.0950
      6 C         -15.6479   -0.6503   19.8771 C.3     1  UNL1        0.0219
      7 C         -16.7712    0.0987   20.5306 C.3     1  UNL1        0.0061
      8 C         -16.9650    1.3863   19.7858 C.3     1  UNL1        0.0224
      9 C         -15.9614    1.4329   18.6718 C.3     1  UNL1        0.0061
     10 C         -15.1475    0.1742   18.7283 C.3     1  UNL1        0.0219
     11 C         -14.0242   -0.5748   18.0747 C.3     1  UNL1        0.0950
     12 H         -13.3547   -4.2820   20.0995 H       1  UNL1        0.1564
     13 C         -12.1610   -6.5706   18.5644 C.ar    1  UNL1        0.0275
     14 C         -11.1425   -7.6261   18.2505 C.ar    1  UNL1        0.0024
     15 C          -9.6806   -7.3262   18.4019 C.ar    1  UNL1        0.0001
     16 C          -9.2371   -5.9709   18.8671 C.ar    1  UNL1        0.0013
     17 C         -10.2556   -4.9154   19.1809 C.ar    1  UNL1        0.0147
     18 C         -11.7175   -5.2153   19.0296 C.ar    1  UNL1        0.0526
     19 O         -14.1327   -7.4998   17.1505 O.co2   1  UNL1       -0.5446
     20 C         -13.6229   -6.8704   18.4131 C.2     1  UNL1        0.0741
     21 O         -14.5750   -6.5409   19.5243 O.co2   1  UNL1       -0.5446
     22 C         -17.9834    2.4417   20.0997 C.ar    1  UNL1       -0.0186
     23 C         -19.4102    2.2571   19.6753 C.ar    1  UNL1       -0.0043
     24 C         -20.4288    3.3126   19.9892 C.ar    1  UNL1       -0.0003
     25 C         -20.0205    4.5528   20.7276 C.ar    1  UNL1       -0.0001
     26 C         -18.5936    4.7374   21.1521 C.ar    1  UNL1        0.0035
     27 C         -17.5752    3.6820   20.8381 C.ar    1  UNL1        0.0675
     28 C         -16.1484    3.8666   21.2626 C.3     1  UNL1        0.4183
     29 F         -14.7216    4.0512   21.6870 F       1  UNL1       -0.1659
     30 F         -15.8500    4.5512   19.9617 F       1  UNL1       -0.1659
     31 F         -16.4468    3.1820   22.5635 F       1  UNL1       -0.1659
@<TRIPOS>UNITY_ATOM_ATTR
19 1
charge -1
@<TRIPOS>BOND
     1    19    20   ar
     2    20    21   ar
     3    20    13    1
     4    13    14   ar
     5    14    15   ar
     6    15    16   ar
     7    16    17   ar
     8    17    18   ar
     9    18     1    1
    10     1     2   am
    11     2     3    2
    12     2     4   am
    13     4     5    1
    14     6     5    1
    15     6     7    1
    16     7     8    1
    17     8    22    1
    18    22    23   ar
    19    23    24   ar
    20    24    25   ar
    21    25    26   ar
    22    26    27   ar
    23    27    28    1
    24    28    29    1
    25    28    30    1
    26    28    31    1
    27     8     9    1
    28    10     9    1
    29    10    11    1
    30    18    13   ar
    31    11     4    1
    32    10     6    1
    33    27    22   ar
    34     1    12    1
@<TRIPOS>MOLECULE
*****
 31 34 0 0 0
SMALL
GASTEIGER

@<TRIPOS>ATOM
      1 N           7.1692   -5.7453   25.8456 N.am    1  UNL1       -0.2681
      2 C           7.8787   -4.7979   24.9242 C.2     1  UNL1        0.3077
      3 O           9.3771   -4.7303   24.9266 O.2     1  UNL1       -0.2522
      4 N           7.0897   -3.9180   24.0004 N.am    1  UNL1       -0.2640
      5 C           5.5946   -3.8750   23.8867 C.3     1  UNL1        0.0950
      6 C           5.2382   -2.8571   22.8441 C.3     1  UNL1        0.0219
      7 C           4.0940   -2.2015   22.1295 C.3     1  UNL1        0.0061
      8 C           4.6615   -1.2102   21.1572 C.3     1  UNL1        0.0224
      9 C           6.1566   -1.2532   21.2709 C.3     1  UNL1        0.0061
     10 C           6.5130   -2.2711   22.3135 C.3     1  UNL1        0.0219
     11 C           7.6573   -2.9268   23.0281 C.3     1  UNL1        0.0950
     12 H           6.1857   -5.7896   25.8440 H       1  UNL1        0.1564
     13 C           8.0095   -6.3172   28.2366 C.ar    1  UNL1        0.0275
     14 C           8.7985   -7.1971   29.1604 C.ar    1  UNL1        0.0024
     15 C           9.5359   -8.3849   28.6170 C.ar    1  UNL1        0.0001
     16 C           9.4845   -8.6929   27.1499 C.ar    1  UNL1        0.0013
     17 C           8.6956   -7.8130   26.2261 C.ar    1  UNL1        0.0147
     18 C           7.9581   -6.6252   26.7695 C.ar    1  UNL1        0.0526
     19 O           6.5321   -5.2365   30.0803 O.co2   1  UNL1       -0.5446
     20 C           7.2721   -5.1294   28.7800 C.2     1  UNL1        0.0741
     21 O           7.2746   -3.8344   28.0229 O.co2   1  UNL1       -0.5446
     22 C           3.8726   -0.3304   20.2334 C.ar    1  UNL1       -0.0186
     23 C           3.2158    0.9114   20.7592 C.ar    1  UNL1       -0.0043
     24 C           2.4268    1.7913   19.8354 C.ar    1  UNL1       -0.0003
     25 C           2.2946    1.4293   18.3858 C.ar    1  UNL1       -0.0001
     26 C           2.9515    0.1874   17.8599 C.ar    1  UNL1        0.0035
     27 C           3.7404   -0.6924   18.7837 C.ar    1  UNL1        0.0675
     28 C           4.3972   -1.9342   18.2579 C.3     1  UNL1        0.4183
     29 F           5.0540   -3.1760   17.7321 F       1  UNL1       -0.1659
     30 F           5.5156   -1.1058   17.6986 F       1  UNL1       -0.1659
     31 F           3.2787   -2.7625   18.8171 F       1  UNL1       -0.1659
@<TRIPOS>UNITY_ATOM_ATTR
19 1
charge -1
@<TRIPOS>BOND
     1    19    20   ar
     2    20    21   ar
     3    20    13    1
     4    13    14   ar
     5    14    15   ar
     6    15    16   ar
     7    16    17   ar
     8    17    18   ar
     9    18     1    1
    10     1     2   am
    11     2     3    2
    12     2     4   am
    13     4     5    1
    14     6     5    1
    15     6     7    1
    16     7     8    1
    17     8    22    1
    18    22    23   ar
    19    23    24   ar
    20    24    25   ar
    21    25    26   ar
    22    26    27   ar
    23    27    28    1
    24    28    29    1
    25    28    30    1
    26    28    31    1
    27     8     9    1
    28    10     9    1
    29    10    11    1
    30    18    13   ar
    31    11     4    1
    32    10     6    1
    33    27    22   ar
    34     1    12    1
