@<TRIPOS>MOLECULE
*****
 45 50 0 0 0
SMALL
GASTEIGER

@<TRIPOS>ATOM
      1 C          -2.0295    3.4395   20.4515 C.ar    1  UNL1        0.1200
      2 N          -1.1615    2.2542   20.7541 N.ar    1  UNL1       -0.2309
      3 C          -0.1651    2.1133   19.6418 C.ar    1  UNL1        0.0997
      4 C          -0.4173    3.2116   18.6517 C.ar    1  UNL1        0.0961
      5 N          -1.5696    4.0312   19.1522 N.ar    1  UNL1       -0.3123
      6 C           0.8970    1.0592   19.5378 C.ar    1  UNL1        0.0193
      7 C           0.8821   -0.1152   20.4708 C.ar    1  UNL1        0.0038
      8 C           1.9442   -1.1693   20.3668 C.ar    1  UNL1        0.0296
      9 C           3.0212   -1.0489   19.3297 C.ar    1  UNL1        0.1440
     10 F           4.0834   -2.1030   19.2257 F       1  UNL1       -0.2042
     11 C           3.0361    0.1255   18.3966 C.ar    1  UNL1        0.0988
     12 C           1.9740    1.1795   18.5007 C.ar    1  UNL1        0.0077
     13 C           4.1131    0.2457   17.3596 C.3     1  UNL1        0.4207
     14 F           5.1902    0.3660   16.3225 F       1  UNL1       -0.1658
     15 F           3.4333   -0.8043   16.5317 F       1  UNL1       -0.1658
     16 F           4.7931    1.2957   18.1874 F       1  UNL1       -0.1658
     17 N          -5.4183    4.9545   22.9952 N.pl3   1  UNL1       -0.2931
     18 C          -4.2678    5.8578   22.6633 C.3     1  UNL1        0.0926
     19 C          -3.1381    5.3528   21.8154 C.3     1  UNL1        0.0290
     20 C          -3.1591    3.9445   21.2994 C.3     1  UNL1        0.0603
     21 C          -4.3097    3.0412   21.6314 C.3     1  UNL1        0.0290
     22 C          -5.4393    3.5462   22.4793 C.3     1  UNL1        0.0926
     23 N          -7.2482    6.4670   27.6174 N.pl3   1  UNL1       -0.3425
     24 C          -7.4629    6.2157   26.1542 C.ar    1  UNL1        0.1298
     25 N          -8.8071    6.4694   25.5390 N.ar    1  UNL1       -0.2094
     26 C          -9.0218    6.2182   24.0759 C.ar    1  UNL1        0.2012
     27 N          -7.8923    5.7132   23.2280 N.ar    1  UNL1       -0.2089
     28 C          -6.5480    5.4595   23.8432 C.ar    1  UNL1        0.1361
     29 C          -6.3333    5.7108   25.3063 C.ar    1  UNL1        0.0628
     30 H          -7.9896    6.7984   28.1739 H       1  UNL1        0.1437
     31 H          -6.3659    6.3004   28.0212 H       1  UNL1        0.1437
     32 C          -4.9890    5.4570   25.9215 C.ar    1  UNL1        0.0055
     33 C          -4.5372    4.0508   26.1829 C.ar    1  UNL1        0.0025
     34 C          -3.1929    3.7970   26.7981 C.ar    1  UNL1        0.0296
     35 C          -2.3003    4.9495   27.1519 C.ar    1  UNL1        0.1401
     36 F          -0.9561    4.6957   27.7671 F       1  UNL1       -0.2042
     37 C          -2.7521    6.3557   26.8906 C.ar    1  UNL1        0.0296
     38 C          -4.0965    6.6095   26.2753 C.ar    1  UNL1        0.0025
     39 C          -2.1585    5.2317   18.4725 C.3     1  UNL1        0.1245
     40 C          -3.3676    5.0806   17.5977 C.3     1  UNL1        0.0969
     41 N          -4.7089    4.8104   18.2123 N.3     1  UNL1       -0.2711
     42 C          -5.4621    3.5147   18.1506 C.3     1  UNL1        0.0722
     43 C          -6.7513    3.6919   18.8967 C.3     1  UNL1        0.0188
     44 C          -6.7948    5.0973   19.4194 C.3     1  UNL1        0.0188
     45 C          -5.5326    5.7885   18.9965 C.3     1  UNL1        0.0722
@<TRIPOS>BOND
     1    23    24    1
     2    24    25   ar
     3    25    26   ar
     4    26    27   ar
     5    27    28   ar
     6    28    17    1
     7    17    18    1
     8    18    19    1
     9    19    20    1
    10    20     1    1
    11     1     2   ar
    12     2     3   ar
    13     3     6    1
    14     6     7   ar
    15     7     8   ar
    16     8     9   ar
    17     9    10    1
    18     9    11   ar
    19    11    13    1
    20    13    14    1
    21    13    15    1
    22    13    16    1
    23    11    12   ar
    24     3     4   ar
    25     4     5   ar
    26     5    39    1
    27    39    40    1
    28    40    41    1
    29    41    42    1
    30    42    43    1
    31    43    44    1
    32    44    45    1
    33    20    21    1
    34    21    22    1
    35    28    29   ar
    36    29    32    1
    37    32    33   ar
    38    33    34   ar
    39    34    35   ar
    40    35    36    1
    41    35    37   ar
    42    37    38   ar
    43    29    24   ar
    44    38    32   ar
    45    22    17    1
    46     5     1   ar
    47    45    41    1
    48    12     6   ar
    49    23    30    1
    50    23    31    1
@<TRIPOS>MOLECULE
*****
 45 50 0 0 0
SMALL
GASTEIGER

@<TRIPOS>ATOM
      1 C           4.0860   -0.9625   26.5786 C.ar    1  UNL1        0.1200
      2 N           3.5351   -0.9786   25.1835 N.ar    1  UNL1       -0.2309
      3 C           4.3655   -1.9249   24.3681 C.ar    1  UNL1        0.0997
      4 C           5.4297   -2.4937   25.2594 C.ar    1  UNL1        0.0961
      5 N           5.2569   -1.8988   26.6255 N.ar    1  UNL1       -0.3123
      6 C           4.1668   -2.2462   22.9165 C.ar    1  UNL1        0.0193
      7 C           4.7086   -3.5252   22.3503 C.ar    1  UNL1        0.0038
      8 C           4.5098   -3.8464   20.8987 C.ar    1  UNL1        0.0296
      9 C           3.7692   -2.8886   20.0132 C.ar    1  UNL1        0.1440
     10 F           3.5704   -3.2099   18.5616 F       1  UNL1       -0.2042
     11 C           3.2274   -1.6096   20.5794 C.ar    1  UNL1        0.0988
     12 C           3.4262   -1.2884   22.0310 C.ar    1  UNL1        0.0077
     13 C           2.4868   -0.6519   19.6939 C.3     1  UNL1        0.4207
     14 F           1.7462    0.3059   18.8083 F       1  UNL1       -0.1658
     15 F           1.1829   -1.2249   20.1645 F       1  UNL1       -0.1658
     16 F           3.7906   -0.0787   19.2232 F       1  UNL1       -0.1658
     17 N           2.5038    1.4683   30.0192 N.pl3   1  UNL1       -0.2931
     18 C           3.6046    2.0142   29.1589 C.3     1  UNL1        0.0926
     19 C           4.1320    1.2039   28.0120 C.3     1  UNL1        0.0290
     20 C           3.5586   -0.1522   27.7254 C.3     1  UNL1        0.0603
     21 C           2.4578   -0.6981   28.5858 C.3     1  UNL1        0.0290
     22 C           1.9304    0.1121   29.7327 C.3     1  UNL1        0.0926
     23 N           2.7672    2.9169   35.0024 N.pl3   1  UNL1       -0.3425
     24 C           2.1080    3.0028   33.6577 C.ar    1  UNL1        0.1298
     25 N           0.9215    3.8989   33.4599 N.ar    1  UNL1       -0.2094
     26 C           0.2624    3.9848   32.1153 C.ar    1  UNL1        0.2012
     27 N           0.7898    3.1746   30.9684 N.ar    1  UNL1       -0.2089
     28 C           1.9763    2.2785   31.1662 C.ar    1  UNL1        0.1361
     29 C           2.6354    2.1926   32.5108 C.ar    1  UNL1        0.0628
     30 H           2.4210    3.4487   35.7552 H       1  UNL1        0.1437
     31 H           3.5459    2.3288   35.1322 H       1  UNL1        0.1437
     32 C           3.8220    1.2965   32.7086 C.ar    1  UNL1        0.0055
     33 C           5.2091    1.8377   32.5268 C.ar    1  UNL1        0.0025
     34 C           6.3957    0.9416   32.7245 C.ar    1  UNL1        0.0296
     35 C           6.1952   -0.4957   33.1041 C.ar    1  UNL1        0.1401
     36 F           7.3817   -1.3917   33.3018 F       1  UNL1       -0.2042
     37 C           4.8081   -1.0369   33.2859 C.ar    1  UNL1        0.0296
     38 C           3.6215   -0.1407   33.0881 C.ar    1  UNL1        0.0025
     39 C           6.1060   -2.1893   27.8274 C.3     1  UNL1        0.1245
     40 C           6.6488   -3.5705   28.0462 C.3     1  UNL1        0.0969
     41 N           6.7318   -4.1324   29.4345 N.3     1  UNL1       -0.2711
     42 C           6.6120   -3.3523   30.7100 C.3     1  UNL1        0.0722
     43 C           6.7553   -4.3108   31.8549 C.3     1  UNL1        0.0188
     44 C           6.9637   -5.6834   31.2868 C.3     1  UNL1        0.0188
     45 C           6.9491   -5.5732   29.7909 C.3     1  UNL1        0.0722
@<TRIPOS>BOND
     1    23    24    1
     2    24    25   ar
     3    25    26   ar
     4    26    27   ar
     5    27    28   ar
     6    28    17    1
     7    17    18    1
     8    18    19    1
     9    19    20    1
    10    20     1    1
    11     1     2   ar
    12     2     3   ar
    13     3     6    1
    14     6     7   ar
    15     7     8   ar
    16     8     9   ar
    17     9    10    1
    18     9    11   ar
    19    11    13    1
    20    13    14    1
    21    13    15    1
    22    13    16    1
    23    11    12   ar
    24     3     4   ar
    25     4     5   ar
    26     5    39    1
    27    39    40    1
    28    40    41    1
    29    41    42    1
    30    42    43    1
    31    43    44    1
    32    44    45    1
    33    20    21    1
    34    21    22    1
    35    28    29   ar
    36    29    32    1
    37    32    33   ar
    38    33    34   ar
    39    34    35   ar
    40    35    36    1
    41    35    37   ar
    42    37    38   ar
    43    29    24   ar
    44    38    32   ar
    45    22    17    1
    46     5     1   ar
    47    45    41    1
    48    12     6   ar
    49    23    30    1
    50    23    31    1
@<TRIPOS>MOLECULE
*****
 45 50 0 0 0
SMALL
GASTEIGER

@<TRIPOS>ATOM
      1 C           4.3611   -1.1490   26.2069 C.ar    1  UNL1        0.1200
      2 N           3.7137   -0.8780   24.8812 N.ar    1  UNL1       -0.2309
      3 C           4.4074   -1.7141   23.8470 C.ar    1  UNL1        0.0997
      4 C           5.4836   -2.5019   24.5336 C.ar    1  UNL1        0.0961
      5 N           5.4550   -2.1526   25.9920 N.ar    1  UNL1       -0.3123
      6 C           4.0821   -1.7553   22.3833 C.ar    1  UNL1        0.0193
      7 C           3.4265   -0.5764   21.7272 C.ar    1  UNL1        0.0038
      8 C           3.1012   -0.6176   20.2635 C.ar    1  UNL1        0.0296
      9 C           3.4315   -1.8376   19.4559 C.ar    1  UNL1        0.1440
     10 F           3.1063   -1.8788   17.9922 F       1  UNL1       -0.2042
     11 C           4.0872   -3.0165   20.1119 C.ar    1  UNL1        0.0988
     12 C           4.4125   -2.9753   21.5756 C.ar    1  UNL1        0.0077
     13 C           4.4175   -4.2365   19.3042 C.3     1  UNL1        0.4207
     14 F           4.7478   -5.4566   18.4965 F       1  UNL1       -0.1658
     15 F           2.9581   -4.5704   19.2116 F       1  UNL1       -0.1658
     16 F           5.8770   -3.9027   19.3967 F       1  UNL1       -0.1658
     17 N           3.2218    0.7206   30.1384 N.pl3   1  UNL1       -0.2931
     18 C           4.4462    1.1913   29.4110 C.3     1  UNL1        0.0926
     19 C           4.8260    0.5681   28.1004 C.3     1  UNL1        0.0290
     20 C           3.9813   -0.5258   27.5174 C.3     1  UNL1        0.0603
     21 C           2.7568   -0.9964   28.2448 C.3     1  UNL1        0.0290
     22 C           2.3771   -0.3732   29.5553 C.3     1  UNL1        0.0926
     23 N           3.8437    1.1143   35.2821 N.pl3   1  UNL1       -0.3425
     24 C           3.1529    1.5406   34.0208 C.ar    1  UNL1        0.1298
     25 N           2.0824    2.5901   34.0699 N.ar    1  UNL1       -0.2094
     26 C           1.3916    3.0164   32.8085 C.ar    1  UNL1        0.2012
     27 N           1.7714    2.3933   31.4980 N.ar    1  UNL1       -0.2089
     28 C           2.8419    1.3438   31.4489 C.ar    1  UNL1        0.1361
     29 C           3.5327    0.9175   32.7103 C.ar    1  UNL1        0.0628
     30 H           3.5945    1.5233   36.1423 H       1  UNL1        0.1437
     31 H           4.5464    0.4255   35.2499 H       1  UNL1        0.1437
     32 C           4.6033   -0.1321   32.6611 C.ar    1  UNL1        0.0055
     33 C           4.2310   -1.5849   32.6854 C.ar    1  UNL1        0.0025
     34 C           5.3015   -2.6344   32.6362 C.ar    1  UNL1        0.0296
     35 C           6.7444   -2.2311   32.5628 C.ar    1  UNL1        0.1401
     36 F           7.8149   -3.2807   32.5136 F       1  UNL1       -0.2042
     37 C           7.1168   -0.7783   32.5385 C.ar    1  UNL1        0.0296
     38 C           6.0462    0.2713   32.5877 C.ar    1  UNL1        0.0025
     39 C           6.3611   -2.7093   27.0499 C.3     1  UNL1        0.1245
     40 C           6.9440   -4.0823   26.8917 C.3     1  UNL1        0.0969
     41 N           7.2790   -4.8992   28.1043 N.3     1  UNL1       -0.2711
     42 C           6.6533   -4.7613   29.4605 C.3     1  UNL1        0.0722
     43 C           7.2860   -5.7742   30.3681 C.3     1  UNL1        0.0188
     44 C           8.3028   -6.5381   29.5726 C.3     1  UNL1        0.0188
     45 C           8.2984   -5.9973   28.1736 C.3     1  UNL1        0.0722
@<TRIPOS>BOND
     1    23    24    1
     2    24    25   ar
     3    25    26   ar
     4    26    27   ar
     5    27    28   ar
     6    28    17    1
     7    17    18    1
     8    18    19    1
     9    19    20    1
    10    20     1    1
    11     1     2   ar
    12     2     3   ar
    13     3     6    1
    14     6     7   ar
    15     7     8   ar
    16     8     9   ar
    17     9    10    1
    18     9    11   ar
    19    11    13    1
    20    13    14    1
    21    13    15    1
    22    13    16    1
    23    11    12   ar
    24     3     4   ar
    25     4     5   ar
    26     5    39    1
    27    39    40    1
    28    40    41    1
    29    41    42    1
    30    42    43    1
    31    43    44    1
    32    44    45    1
    33    20    21    1
    34    21    22    1
    35    28    29   ar
    36    29    32    1
    37    32    33   ar
    38    33    34   ar
    39    34    35   ar
    40    35    36    1
    41    35    37   ar
    42    37    38   ar
    43    29    24   ar
    44    38    32   ar
    45    22    17    1
    46     5     1   ar
    47    45    41    1
    48    12     6   ar
    49    23    30    1
    50    23    31    1
@<TRIPOS>MOLECULE
*****
 45 50 0 0 0
SMALL
GASTEIGER

@<TRIPOS>ATOM
      1 C           4.4581   -1.1414   26.4134 C.ar    1  UNL1        0.1200
      2 N           3.7585   -1.2393   25.0902 N.ar    1  UNL1       -0.2309
      3 C           4.6159   -2.0589   24.1720 C.ar    1  UNL1        0.0997
      4 C           5.8455   -2.4676   24.9279 C.ar    1  UNL1        0.0961
      5 N           5.7479   -1.9005   26.3131 N.ar    1  UNL1       -0.3123
      6 C           4.2994   -2.4085   22.7481 C.ar    1  UNL1        0.0193
      7 C           4.7083   -3.7413   22.1943 C.ar    1  UNL1        0.0038
      8 C           4.3918   -4.0909   20.7704 C.ar    1  UNL1        0.0296
      9 C           3.6664   -3.1077   19.9002 C.ar    1  UNL1        0.1440
     10 F           3.3499   -3.4573   18.4763 F       1  UNL1       -0.2042
     11 C           3.2574   -1.7750   20.4540 C.ar    1  UNL1        0.0988
     12 C           3.5739   -1.4254   21.8779 C.ar    1  UNL1        0.0077
     13 C           2.5320   -0.7920   19.5838 C.3     1  UNL1        0.4207
     14 F           1.8065    0.1912   18.7136 F       1  UNL1       -0.1658
     15 F           1.2262   -1.2289   20.1787 F       1  UNL1       -0.1658
     16 F           3.8378   -0.3549   18.9889 F       1  UNL1       -0.1658
     17 N           2.9520    1.0457   30.0463 N.pl3   1  UNL1       -0.2931
     18 C           2.2881   -0.2258   29.6076 C.3     1  UNL1        0.0926
     19 C           2.7902   -0.9549   28.3966 C.3     1  UNL1        0.0290
     20 C           3.9560   -0.4124   27.6244 C.3     1  UNL1        0.0603
     21 C           4.6199    0.8592   28.0631 C.3     1  UNL1        0.0290
     22 C           4.1178    1.5883   29.2740 C.3     1  UNL1        0.0926
     23 N           3.2059    2.0080   35.1463 N.pl3   1  UNL1       -0.3425
     24 C           2.5769    2.2559   33.8073 C.ar    1  UNL1        0.1298
     25 N           1.4460    3.2329   33.6792 N.ar    1  UNL1       -0.2094
     26 C           0.8170    3.4809   32.3402 C.ar    1  UNL1        0.2012
     27 N           1.3190    2.7518   31.1293 N.ar    1  UNL1       -0.2089
     28 C           2.4499    1.7748   31.2573 C.ar    1  UNL1        0.1361
     29 C           3.0789    1.5269   32.5963 C.ar    1  UNL1        0.0628
     30 H           2.8764    2.4865   35.9411 H       1  UNL1        0.1437
     31 H           3.9481    1.3667   35.2303 H       1  UNL1        0.1437
     32 C           4.2099    0.5498   32.7243 C.ar    1  UNL1        0.0055
     33 C           3.9229   -0.9009   32.9754 C.ar    1  UNL1        0.0025
     34 C           5.0538   -1.8779   33.1034 C.ar    1  UNL1        0.0296
     35 C           6.4718   -1.4043   32.9803 C.ar    1  UNL1        0.1401
     36 F           7.6027   -2.3813   33.1083 F       1  UNL1       -0.2042
     37 C           6.7587    0.0465   32.7293 C.ar    1  UNL1        0.0296
     38 C           5.6277    1.0235   32.6013 C.ar    1  UNL1        0.0025
     39 C           6.7621   -2.0639   27.4061 C.3     1  UNL1        0.1245
     40 C           7.5595   -3.3305   27.5062 C.3     1  UNL1        0.0969
     41 N           7.5669   -4.1129   28.7860 N.3     1  UNL1       -0.2711
     42 C           8.5381   -3.9444   29.9167 C.3     1  UNL1        0.0722
     43 C           8.1760   -4.9284   30.9894 C.3     1  UNL1        0.0188
     44 C           6.9810   -5.7050   30.5215 C.3     1  UNL1        0.0188
     45 C           6.6046   -5.2010   29.1598 C.3     1  UNL1        0.0722
@<TRIPOS>BOND
     1    23    24    1
     2    24    25   ar
     3    25    26   ar
     4    26    27   ar
     5    27    28   ar
     6    28    17    1
     7    17    18    1
     8    18    19    1
     9    19    20    1
    10    20     1    1
    11     1     2   ar
    12     2     3   ar
    13     3     6    1
    14     6     7   ar
    15     7     8   ar
    16     8     9   ar
    17     9    10    1
    18     9    11   ar
    19    11    13    1
    20    13    14    1
    21    13    15    1
    22    13    16    1
    23    11    12   ar
    24     3     4   ar
    25     4     5   ar
    26     5    39    1
    27    39    40    1
    28    40    41    1
    29    41    42    1
    30    42    43    1
    31    43    44    1
    32    44    45    1
    33    20    21    1
    34    21    22    1
    35    28    29   ar
    36    29    32    1
    37    32    33   ar
    38    33    34   ar
    39    34    35   ar
    40    35    36    1
    41    35    37   ar
    42    37    38   ar
    43    29    24   ar
    44    38    32   ar
    45    22    17    1
    46     5     1   ar
    47    45    41    1
    48    12     6   ar
    49    23    30    1
    50    23    31    1
@<TRIPOS>MOLECULE
*****
 45 50 0 0 0
SMALL
GASTEIGER

@<TRIPOS>ATOM
      1 C           4.8061   -1.0787   24.9519 C.ar    1  UNL1        0.1200
      2 N           4.1304   -0.7306   23.6588 N.ar    1  UNL1       -0.2309
      3 C           4.8631   -1.4271   22.5506 C.ar    1  UNL1        0.0997
      4 C           5.9917   -2.2057   23.1589 C.ar    1  UNL1        0.0961
      5 N           5.9565   -1.9903   24.6430 N.ar    1  UNL1       -0.3123
      6 C           4.5263   -1.3573   21.0906 C.ar    1  UNL1        0.0193
      7 C           5.3709   -2.0894   20.0902 C.ar    1  UNL1        0.0038
      8 C           5.0341   -2.0196   18.6302 C.ar    1  UNL1        0.0296
      9 C           3.8527   -1.2177   18.1706 C.ar    1  UNL1        0.1440
     10 F           3.5160   -1.1479   16.7105 F       1  UNL1       -0.2042
     11 C           3.0082   -0.4856   19.1709 C.ar    1  UNL1        0.0988
     12 C           3.3449   -0.5554   20.6309 C.ar    1  UNL1        0.0077
     13 C           1.8269    0.3163   18.7112 C.3     1  UNL1        0.4207
     14 F           0.6455    1.1183   18.2514 F       1  UNL1       -0.1658
     15 F           2.7405    1.2162   17.9331 F       1  UNL1       -0.1658
     16 F           0.9131   -0.5835   19.4893 F       1  UNL1       -0.1658
     17 N           3.5950    0.3596   29.0402 N.pl3   1  UNL1       -0.2931
     18 C           3.1264   -0.9769   28.5461 C.3     1  UNL1        0.0926
     19 C           3.5301   -1.4564   27.1833 C.3     1  UNL1        0.0290
     20 C           4.4024   -0.5993   26.3146 C.3     1  UNL1        0.0603
     21 C           4.8710    0.7373   26.8089 C.3     1  UNL1        0.0290
     22 C           4.4673    1.2166   28.1716 C.3     1  UNL1        0.0926
     23 N           0.1776    2.7495   32.1402 N.pl3   1  UNL1       -0.3425
     24 C           1.4826    2.0340   31.9530 C.ar    1  UNL1        0.1298
     25 N           2.3839    1.7979   33.1285 N.ar    1  UNL1       -0.2094
     26 C           3.6889    1.0824   32.9413 C.ar    1  UNL1        0.2012
     27 N           4.0926    0.6029   31.5786 N.ar    1  UNL1       -0.2089
     28 C           3.1913    0.8390   30.4031 C.ar    1  UNL1        0.1361
     29 C           1.8863    1.5545   30.5903 C.ar    1  UNL1        0.0628
     30 H          -0.0873    3.0642   33.0346 H       1  UNL1        0.1437
     31 H          -0.4139    2.9044   31.3686 H       1  UNL1        0.1437
     32 C           0.9851    1.7906   29.4146 C.ar    1  UNL1        0.0055
     33 C          -0.0693    0.7831   29.0637 C.ar    1  UNL1        0.0025
     34 C          -0.9706    1.0191   27.8882 C.ar    1  UNL1        0.0296
     35 C          -0.8175    2.2627   27.0634 C.ar    1  UNL1        0.1401
     36 F          -1.7187    2.4987   25.8879 F       1  UNL1       -0.2042
     37 C           0.2369    3.2702   27.4143 C.ar    1  UNL1        0.0296
     38 C           1.1382    3.0341   28.5900 C.ar    1  UNL1        0.0025
     39 C           6.9052   -2.5826   25.6425 C.3     1  UNL1        0.1245
     40 C           6.5700   -3.8795   26.3177 C.3     1  UNL1        0.0969
     41 N           7.0893   -5.1715   25.7600 N.3     1  UNL1       -0.2711
     42 C           7.7022   -5.3636   24.4046 C.3     1  UNL1        0.0722
     43 C           8.0785   -6.8091   24.2666 C.3     1  UNL1        0.0188
     44 C           7.6981   -7.5103   25.5369 C.3     1  UNL1        0.0188
     45 C           7.0867   -6.4983   26.4599 C.3     1  UNL1        0.0722
@<TRIPOS>BOND
     1    23    24    1
     2    24    25   ar
     3    25    26   ar
     4    26    27   ar
     5    27    28   ar
     6    28    17    1
     7    17    18    1
     8    18    19    1
     9    19    20    1
    10    20     1    1
    11     1     2   ar
    12     2     3   ar
    13     3     6    1
    14     6     7   ar
    15     7     8   ar
    16     8     9   ar
    17     9    10    1
    18     9    11   ar
    19    11    13    1
    20    13    14    1
    21    13    15    1
    22    13    16    1
    23    11    12   ar
    24     3     4   ar
    25     4     5   ar
    26     5    39    1
    27    39    40    1
    28    40    41    1
    29    41    42    1
    30    42    43    1
    31    43    44    1
    32    44    45    1
    33    20    21    1
    34    21    22    1
    35    28    29   ar
    36    29    32    1
    37    32    33   ar
    38    33    34   ar
    39    34    35   ar
    40    35    36    1
    41    35    37   ar
    42    37    38   ar
    43    29    24   ar
    44    38    32   ar
    45    22    17    1
    46     5     1   ar
    47    45    41    1
    48    12     6   ar
    49    23    30    1
    50    23    31    1
@<TRIPOS>MOLECULE
*****
 45 50 0 0 0
SMALL
GASTEIGER

@<TRIPOS>ATOM
      1 C           0.6504    2.3395   21.6112 C.ar    1  UNL1        0.1200
      2 N           1.7359    1.3137   21.4721 N.ar    1  UNL1       -0.2309
      3 C           1.7504    0.8444   20.0474 C.ar    1  UNL1        0.0997
      4 C           0.6738    1.5803   19.3061 C.ar    1  UNL1        0.0961
      5 N          -0.0060    2.5043   20.2726 N.ar    1  UNL1       -0.3123
      6 C           2.6785   -0.1807   19.4662 C.ar    1  UNL1        0.0193
      7 C           3.6311    0.2040   18.3732 C.ar    1  UNL1        0.0038
      8 C           4.5591   -0.8210   17.7920 C.ar    1  UNL1        0.0296
      9 C           4.5346   -2.2308   18.3037 C.ar    1  UNL1        0.1440
     10 F           5.4627   -3.2559   17.7225 F       1  UNL1       -0.2042
     11 C           3.5820   -2.6155   19.3967 C.ar    1  UNL1        0.0988
     12 C           2.6539   -1.5904   19.9780 C.ar    1  UNL1        0.0077
     13 C           3.5575   -4.0253   19.9084 C.3     1  UNL1        0.4207
     14 F           3.5330   -5.4352   20.4201 F       1  UNL1       -0.1658
     15 F           2.7539   -4.4451   18.7134 F       1  UNL1       -0.1658
     16 F           4.3611   -3.6056   21.1034 F       1  UNL1       -0.1658
     17 N          -0.4447    4.5370   25.3824 N.pl3   1  UNL1       -0.2931
     18 C          -0.5169    3.0394   25.3392 C.3     1  UNL1        0.0926
     19 C          -0.1519    2.3069   24.0821 C.3     1  UNL1        0.0290
     20 C           0.2854    3.0720   22.8682 C.3     1  UNL1        0.0603
     21 C           0.3576    4.5697   22.9115 C.3     1  UNL1        0.0290
     22 C          -0.0074    5.3022   24.1686 C.3     1  UNL1        0.0926
     23 N          -4.0383    6.7115   28.4414 N.pl3   1  UNL1       -0.3425
     24 C          -2.6065    6.3568   28.1689 C.ar    1  UNL1        0.1298
     25 N          -1.5398    6.7346   29.1535 N.ar    1  UNL1       -0.2094
     26 C          -0.1080    6.3799   28.8810 C.ar    1  UNL1        0.2012
     27 N           0.2570    5.6474   27.6240 N.ar    1  UNL1       -0.2089
     28 C          -0.8097    5.2696   26.6395 C.ar    1  UNL1        0.1361
     29 C          -2.2414    5.6243   26.9119 C.ar    1  UNL1        0.0628
     30 H          -4.2778    7.1923   29.2664 H       1  UNL1        0.1437
     31 H          -4.7384    6.4636   27.7952 H       1  UNL1        0.1437
     32 C          -3.3082    5.2465   25.9273 C.ar    1  UNL1        0.0055
     33 C          -3.6130    6.1491   24.7687 C.ar    1  UNL1        0.0025
     34 C          -4.6797    5.7713   23.7841 C.ar    1  UNL1        0.0296
     35 C          -5.4416    4.4909   23.9581 C.ar    1  UNL1        0.1401
     36 F          -6.5082    4.1131   22.9735 F       1  UNL1       -0.2042
     37 C          -5.1367    3.5883   25.1167 C.ar    1  UNL1        0.0296
     38 C          -4.0700    3.9661   26.1013 C.ar    1  UNL1        0.0025
     39 C          -1.1426    3.4305   19.9559 C.3     1  UNL1        0.1245
     40 C          -2.4875    3.2089   20.5822 C.3     1  UNL1        0.0969
     41 N          -3.7343    3.4179   19.7749 N.3     1  UNL1       -0.2711
     42 C          -3.7954    3.9003   18.3559 C.3     1  UNL1        0.0722
     43 C          -5.2377    3.9618   17.9488 C.3     1  UNL1        0.0188
     44 C          -6.0681    3.5173   19.1163 C.3     1  UNL1        0.0188
     45 C          -5.1390    3.1811   20.2448 C.3     1  UNL1        0.0722
@<TRIPOS>BOND
     1    23    24    1
     2    24    25   ar
     3    25    26   ar
     4    26    27   ar
     5    27    28   ar
     6    28    17    1
     7    17    18    1
     8    18    19    1
     9    19    20    1
    10    20     1    1
    11     1     2   ar
    12     2     3   ar
    13     3     6    1
    14     6     7   ar
    15     7     8   ar
    16     8     9   ar
    17     9    10    1
    18     9    11   ar
    19    11    13    1
    20    13    14    1
    21    13    15    1
    22    13    16    1
    23    11    12   ar
    24     3     4   ar
    25     4     5   ar
    26     5    39    1
    27    39    40    1
    28    40    41    1
    29    41    42    1
    30    42    43    1
    31    43    44    1
    32    44    45    1
    33    20    21    1
    34    21    22    1
    35    28    29   ar
    36    29    32    1
    37    32    33   ar
    38    33    34   ar
    39    34    35   ar
    40    35    36    1
    41    35    37   ar
    42    37    38   ar
    43    29    24   ar
    44    38    32   ar
    45    22    17    1
    46     5     1   ar
    47    45    41    1
    48    12     6   ar
    49    23    30    1
    50    23    31    1
@<TRIPOS>MOLECULE
*****
 45 50 0 0 0
SMALL
GASTEIGER

@<TRIPOS>ATOM
      1 C           4.5213   -1.2062   25.7486 C.ar    1  UNL1        0.1200
      2 N           3.9549   -0.8924   24.3955 N.ar    1  UNL1       -0.2309
      3 C           4.6693   -1.7411   23.3859 C.ar    1  UNL1        0.0997
      4 C           5.6772   -2.5794   24.1150 C.ar    1  UNL1        0.0961
      5 N           5.5856   -2.2488   25.5752 N.ar    1  UNL1       -0.3123
      6 C           4.4197   -1.7499   21.9068 C.ar    1  UNL1        0.0193
      7 C           3.9951   -0.4911   21.2103 C.ar    1  UNL1        0.0038
      8 C           3.7455   -0.4999   19.7313 C.ar    1  UNL1        0.0296
      9 C           3.9205   -1.7676   18.9487 C.ar    1  UNL1        0.1440
     10 F           3.6709   -1.7764   17.4697 F       1  UNL1       -0.2042
     11 C           4.3451   -3.0264   19.6453 C.ar    1  UNL1        0.0988
     12 C           4.5947   -3.0176   21.1243 C.ar    1  UNL1        0.0077
     13 C           4.5200   -4.2940   18.8627 C.3     1  UNL1        0.4207
     14 F           4.6949   -5.5617   18.0800 F       1  UNL1       -0.1658
     15 F           3.3088   -4.8739   19.5311 F       1  UNL1       -0.1658
     16 F           5.7312   -3.7143   18.1942 F       1  UNL1       -0.1658
     17 N           3.2502    0.6536   29.6442 N.pl3   1  UNL1       -0.2931
     18 C           4.2146    1.3735   28.7489 C.3     1  UNL1        0.0926
     19 C           4.6383    0.7535   27.4503 C.3     1  UNL1        0.0290
     20 C           4.0976   -0.5863   27.0471 C.3     1  UNL1        0.0603
     21 C           3.1331   -1.3061   27.9425 C.3     1  UNL1        0.0290
     22 C           2.7094   -0.6862   29.2410 C.3     1  UNL1        0.0926
     23 N          -0.1476    3.4663   32.3909 N.pl3   1  UNL1       -0.3425
     24 C           1.1276    2.6799   32.3161 C.ar    1  UNL1        0.1298
     25 N           1.9789    2.5134   33.5397 N.ar    1  UNL1       -0.2094
     26 C           3.2541    1.7269   33.4649 C.ar    1  UNL1        0.2012
     27 N           3.6778    1.1070   32.1664 N.ar    1  UNL1       -0.2089
     28 C           2.8264    1.2735   30.9428 C.ar    1  UNL1        0.1361
     29 C           1.5513    2.0599   31.0176 C.ar    1  UNL1        0.0628
     30 H          -0.4257    3.8732   33.2431 H       1  UNL1        0.1437
     31 H          -0.7064    3.5756   31.5877 H       1  UNL1        0.1437
     32 C           0.6999    2.2264   29.7938 C.ar    1  UNL1        0.0055
     33 C          -0.2479    1.1378   29.3858 C.ar    1  UNL1        0.0025
     34 C          -1.0992    1.3042   28.1621 C.ar    1  UNL1        0.0296
     35 C          -1.0028    2.5594   27.3464 C.ar    1  UNL1        0.1401
     36 F          -1.8542    2.7258   26.1227 F       1  UNL1       -0.2042
     37 C          -0.0550    3.6480   27.7544 C.ar    1  UNL1        0.0296
     38 C           0.7964    3.4815   28.9782 C.ar    1  UNL1        0.0025
     39 C           6.4132   -2.8545   26.6699 C.3     1  UNL1        0.1245
     40 C           7.6773   -3.5896   26.3353 C.3     1  UNL1        0.0969
     41 N           7.6468   -5.0735   26.1183 N.3     1  UNL1       -0.2711
     42 C           6.7349   -6.0464   26.8051 C.3     1  UNL1        0.0722
     43 C           7.0474   -7.4193   26.2877 C.3     1  UNL1        0.0188
     44 C           8.1525   -7.2946   25.2810 C.3     1  UNL1        0.0188
     45 C           8.5230   -5.8449   25.1763 C.3     1  UNL1        0.0722
@<TRIPOS>BOND
     1    23    24    1
     2    24    25   ar
     3    25    26   ar
     4    26    27   ar
     5    27    28   ar
     6    28    17    1
     7    17    18    1
     8    18    19    1
     9    19    20    1
    10    20     1    1
    11     1     2   ar
    12     2     3   ar
    13     3     6    1
    14     6     7   ar
    15     7     8   ar
    16     8     9   ar
    17     9    10    1
    18     9    11   ar
    19    11    13    1
    20    13    14    1
    21    13    15    1
    22    13    16    1
    23    11    12   ar
    24     3     4   ar
    25     4     5   ar
    26     5    39    1
    27    39    40    1
    28    40    41    1
    29    41    42    1
    30    42    43    1
    31    43    44    1
    32    44    45    1
    33    20    21    1
    34    21    22    1
    35    28    29   ar
    36    29    32    1
    37    32    33   ar
    38    33    34   ar
    39    34    35   ar
    40    35    36    1
    41    35    37   ar
    42    37    38   ar
    43    29    24   ar
    44    38    32   ar
    45    22    17    1
    46     5     1   ar
    47    45    41    1
    48    12     6   ar
    49    23    30    1
    50    23    31    1
@<TRIPOS>MOLECULE
*****
 45 50 0 0 0
SMALL
GASTEIGER

@<TRIPOS>ATOM
      1 C           3.2526   -0.0306   26.4057 C.ar    1  UNL1        0.1200
      2 N           3.9660   -1.1268   25.6712 N.ar    1  UNL1       -0.2309
      3 C           3.6472   -0.9906   24.2118 C.ar    1  UNL1        0.0997
      4 C           2.7368    0.1898   24.0444 C.ar    1  UNL1        0.0961
      5 N           2.4930    0.7830   25.4003 N.ar    1  UNL1       -0.3123
      6 C           4.1505   -1.8788   23.1128 C.ar    1  UNL1        0.0193
      7 C           4.9996   -3.0709   23.4413 C.ar    1  UNL1        0.0038
      8 C           5.5028   -3.9590   22.3423 C.ar    1  UNL1        0.0296
      9 C           5.1570   -3.6551   20.9147 C.ar    1  UNL1        0.1440
     10 F           5.6603   -4.5432   19.8157 F       1  UNL1       -0.2042
     11 C           4.3079   -2.4629   20.5861 C.ar    1  UNL1        0.0988
     12 C           3.8047   -1.5748   21.6852 C.ar    1  UNL1        0.0077
     13 C           3.9621   -2.1590   19.1586 C.3     1  UNL1        0.4207
     14 F           3.6163   -1.8551   17.7309 F       1  UNL1       -0.1658
     15 F           4.8354   -0.9404   19.2064 F       1  UNL1       -0.1658
     16 F           3.0888   -3.3777   19.1106 F       1  UNL1       -0.1658
     17 N           3.3707    0.6903   30.8460 N.pl3   1  UNL1       -0.2931
     18 C           2.6435   -0.5021   30.2989 C.3     1  UNL1        0.0926
     19 C           2.6041   -0.7424   28.8188 C.3     1  UNL1        0.0290
     20 C           3.2920    0.2096   27.8858 C.3     1  UNL1        0.0603
     21 C           4.0192    1.4021   28.4330 C.3     1  UNL1        0.0290
     22 C           4.0585    1.6424   29.9131 C.3     1  UNL1        0.0926
     23 N           5.4444   -0.2847   35.5096 N.pl3   1  UNL1       -0.3425
     24 C           4.4470    0.4431   34.6579 C.ar    1  UNL1        0.1298
     25 N           3.4889    1.4112   35.2863 N.ar    1  UNL1       -0.2094
     26 C           2.4915    2.1390   34.4346 C.ar    1  UNL1        0.2012
     27 N           2.4520    1.8987   32.9546 N.ar    1  UNL1       -0.2089
     28 C           3.4101    0.9306   32.3262 C.ar    1  UNL1        0.1361
     29 C           4.4075    0.2028   33.1779 C.ar    1  UNL1        0.0628
     30 H           5.4703   -0.1269   36.4811 H       1  UNL1        0.1437
     31 H           6.0732   -0.9201   35.0972 H       1  UNL1        0.1437
     32 C           5.3656   -0.7653   32.5494 C.ar    1  UNL1        0.0055
     33 C           6.6139   -0.2621   31.8871 C.ar    1  UNL1        0.0025
     34 C           7.5719   -1.2301   31.2587 C.ar    1  UNL1        0.0296
     35 C           7.2818   -2.7015   31.2925 C.ar    1  UNL1        0.1401
     36 F           8.2398   -3.6695   30.6641 F       1  UNL1       -0.2042
     37 C           6.0335   -3.2047   31.9548 C.ar    1  UNL1        0.0296
     38 C           5.0754   -2.2365   32.5833 C.ar    1  UNL1        0.0025
     39 C           1.6393    1.9798   25.6985 C.3     1  UNL1        0.1245
     40 C           0.2204    1.7957   26.1489 C.3     1  UNL1        0.0969
     41 N          -0.0764    1.4913   27.5874 N.3     1  UNL1       -0.2711
     42 C           0.3829    2.2908   28.7705 C.3     1  UNL1        0.0722
     43 C          -0.1413    1.6278   30.0098 C.3     1  UNL1        0.0188
     44 C          -0.9246    0.4185   29.5923 C.3     1  UNL1        0.0188
     45 C          -0.8845    0.3342   28.0953 C.3     1  UNL1        0.0722
@<TRIPOS>BOND
     1    23    24    1
     2    24    25   ar
     3    25    26   ar
     4    26    27   ar
     5    27    28   ar
     6    28    17    1
     7    17    18    1
     8    18    19    1
     9    19    20    1
    10    20     1    1
    11     1     2   ar
    12     2     3   ar
    13     3     6    1
    14     6     7   ar
    15     7     8   ar
    16     8     9   ar
    17     9    10    1
    18     9    11   ar
    19    11    13    1
    20    13    14    1
    21    13    15    1
    22    13    16    1
    23    11    12   ar
    24     3     4   ar
    25     4     5   ar
    26     5    39    1
    27    39    40    1
    28    40    41    1
    29    41    42    1
    30    42    43    1
    31    43    44    1
    32    44    45    1
    33    20    21    1
    34    21    22    1
    35    28    29   ar
    36    29    32    1
    37    32    33   ar
    38    33    34   ar
    39    34    35   ar
    40    35    36    1
    41    35    37   ar
    42    37    38   ar
    43    29    24   ar
    44    38    32   ar
    45    22    17    1
    46     5     1   ar
    47    45    41    1
    48    12     6   ar
    49    23    30    1
    50    23    31    1
@<TRIPOS>MOLECULE
*****
 45 50 0 0 0
SMALL
GASTEIGER

@<TRIPOS>ATOM
      1 C           4.6587   -1.1737   25.9009 C.ar    1  UNL1        0.1200
      2 N           4.0757   -0.9276   24.5409 N.ar    1  UNL1       -0.2309
      3 C           4.8338   -1.7641   23.5532 C.ar    1  UNL1        0.0997
      4 C           5.8855   -2.5272   24.3029 C.ar    1  UNL1        0.0961
      5 N           5.7772   -2.1622   25.7537 N.ar    1  UNL1       -0.3123
      6 C           4.5843   -1.8265   22.0755 C.ar    1  UNL1        0.0193
      7 C           4.1994   -0.5851   21.3267 C.ar    1  UNL1        0.0038
      8 C           3.9498   -0.6475   19.8489 C.ar    1  UNL1        0.0296
      9 C           4.0851   -1.9515   19.1200 C.ar    1  UNL1        0.1440
     10 F           3.8355   -2.0139   17.6422 F       1  UNL1       -0.2042
     11 C           4.4700   -3.1929   19.8687 C.ar    1  UNL1        0.0988
     12 C           4.7196   -3.1305   21.3465 C.ar    1  UNL1        0.0077
     13 C           4.6052   -4.4968   19.1397 C.3     1  UNL1        0.4207
     14 F           4.7405   -5.8008   18.4106 F       1  UNL1       -0.1658
     15 F           3.1297   -4.4992   18.8702 F       1  UNL1       -0.1658
     16 F           6.0808   -4.4945   19.4092 F       1  UNL1       -0.1658
     17 N           3.2921    0.7211   29.7469 N.pl3   1  UNL1       -0.2931
     18 C           4.2203    1.4647   28.8329 C.3     1  UNL1        0.0926
     19 C           4.6758    0.8331   27.5508 C.3     1  UNL1        0.0290
     20 C           4.2032   -0.5421   27.1829 C.3     1  UNL1        0.0603
     21 C           3.2750   -1.2857   28.0970 C.3     1  UNL1        0.0290
     22 C           2.8195   -0.6541   29.3790 C.3     1  UNL1        0.0926
     23 N          -0.1952    3.5193   32.3944 N.pl3   1  UNL1       -0.3425
     24 C           1.0929    2.7517   32.3527 C.ar    1  UNL1        0.1298
     25 N           1.9255    2.6158   33.5930 N.ar    1  UNL1       -0.2094
     26 C           3.2136    1.8483   33.5513 C.ar    1  UNL1        0.2012
     27 N           3.6691    1.2167   32.2693 N.ar    1  UNL1       -0.2089
     28 C           2.8366    1.3527   31.0290 C.ar    1  UNL1        0.1361
     29 C           1.5485    2.1202   31.0707 C.ar    1  UNL1        0.0628
     30 H          -0.4942    3.9338   33.2358 H       1  UNL1        0.1437
     31 H          -0.7416    3.6085   31.5803 H       1  UNL1        0.1437
     32 C           0.7160    2.2561   29.8303 C.ar    1  UNL1        0.0055
     33 C           0.8178    3.4950   28.9908 C.ar    1  UNL1        0.0025
     34 C          -0.0147    3.6309   27.7505 C.ar    1  UNL1        0.0296
     35 C          -0.9491    2.5280   27.3496 C.ar    1  UNL1        0.1401
     36 F          -1.7815    2.6640   26.1093 F       1  UNL1       -0.2042
     37 C          -1.0509    1.2891   28.1892 C.ar    1  UNL1        0.0296
     38 C          -0.2183    1.1532   29.4296 C.ar    1  UNL1        0.0025
     39 C           6.6366   -2.6928   26.8628 C.3     1  UNL1        0.1245
     40 C           6.2445   -3.9511   27.5791 C.3     1  UNL1        0.0969
     41 N           6.5148   -4.0933   29.0477 N.3     1  UNL1       -0.2711
     42 C           6.9009   -5.3587   29.7546 C.3     1  UNL1        0.0722
     43 C           7.0711   -5.0427   31.2110 C.3     1  UNL1        0.0188
     44 C           6.7901   -3.5819   31.4041 C.3     1  UNL1        0.0188
     45 C           6.4463   -2.9952   30.0672 C.3     1  UNL1        0.0722
@<TRIPOS>BOND
     1    23    24    1
     2    24    25   ar
     3    25    26   ar
     4    26    27   ar
     5    27    28   ar
     6    28    17    1
     7    17    18    1
     8    18    19    1
     9    19    20    1
    10    20     1    1
    11     1     2   ar
    12     2     3   ar
    13     3     6    1
    14     6     7   ar
    15     7     8   ar
    16     8     9   ar
    17     9    10    1
    18     9    11   ar
    19    11    13    1
    20    13    14    1
    21    13    15    1
    22    13    16    1
    23    11    12   ar
    24     3     4   ar
    25     4     5   ar
    26     5    39    1
    27    39    40    1
    28    40    41    1
    29    41    42    1
    30    42    43    1
    31    43    44    1
    32    44    45    1
    33    20    21    1
    34    21    22    1
    35    28    29   ar
    36    29    32    1
    37    32    33   ar
    38    33    34   ar
    39    34    35   ar
    40    35    36    1
    41    35    37   ar
    42    37    38   ar
    43    29    24   ar
    44    38    32   ar
    45    22    17    1
    46     5     1   ar
    47    45    41    1
    48    12     6   ar
    49    23    30    1
    50    23    31    1
