@<TRIPOS>MOLECULE
*****
 33 36 0 0 0
SMALL
GASTEIGER

@<TRIPOS>ATOM
      1 N         -13.6321   -5.1879   18.4446 N.pl3   1  UNL1       -0.2872
      2 C         -15.7526   -9.1536   18.6078 C.ar    1  UNL1        0.0715
      3 C         -16.2286   -8.0130   19.4577 C.ar    1  UNL1        0.0051
      4 C         -15.5218   -6.6911   19.4033 C.ar    1  UNL1        0.0148
      5 C         -14.3389   -6.5098   18.4990 C.ar    1  UNL1        0.0515
      6 C         -13.8629   -7.6503   17.6491 C.ar    1  UNL1        0.0148
      7 C         -14.5697   -8.9723   17.7035 C.ar    1  UNL1        0.0051
      8 F         -17.1662  -11.7974   18.7166 F       1  UNL1       -0.1659
      9 C         -16.4594  -10.4755   18.6622 C.3     1  UNL1        0.4186
     10 F         -15.3699  -11.0920   17.8357 F       1  UNL1       -0.1659
     11 F         -17.5488   -9.8590   19.4887 F       1  UNL1       -0.1659
     12 C         -12.1925   -5.1237   18.0283 C.ar    1  UNL1        0.0710
     13 C         -11.1105   -5.4330   19.0200 C.ar    1  UNL1        0.0180
     14 C          -9.6708   -5.3688   18.6037 C.ar    1  UNL1        0.0220
     15 C          -9.3132   -4.9953   17.1957 C.ar    1  UNL1        0.0990
     16 N         -10.3952   -4.6860   16.2039 N.ar    1  UNL1       -0.2410
     17 C         -11.8349   -4.7502   16.6202 C.ar    1  UNL1        0.1136
     18 C         -14.3650   -3.9301   18.8065 C.3     1  UNL1        0.0807
     19 C         -14.0830   -3.2469   20.1118 C.3     1  UNL1        0.0416
     20 C         -14.8158   -1.9892   20.4737 C.3     1  UNL1        0.0939
     21 N         -15.8306   -1.4145   19.5303 N.pl3   1  UNL1       -0.2931
     22 C         -16.1126   -2.0977   18.2250 C.3     1  UNL1        0.0939
     23 C         -15.3798   -3.3555   17.8631 C.3     1  UNL1        0.0416
     24 C         -16.5634   -0.1567   19.8922 C.ar    1  UNL1        0.1317
     25 C         -15.9731    1.1796   19.5520 C.ar    1  UNL1        0.0343
     26 C         -16.7059    2.4373   19.9139 C.ar    1  UNL1        0.0083
     27 C         -18.0291    2.3587   20.6161 C.ar    1  UNL1        0.0906
     28 C         -18.6194    1.0225   20.9564 C.ar    1  UNL1        0.1041
     29 N         -17.8866   -0.2353   20.5944 N.ar    1  UNL1       -0.2292
     30 C         -18.7619    3.6166   20.9781 C.3     1  UNL1        0.4200
     31 F         -19.4947    4.8743   21.3400 F       1  UNL1       -0.1658
     32 F         -18.2506    4.2736   19.7303 F       1  UNL1       -0.1658
     33 F         -19.2732    2.9596   22.2258 F       1  UNL1       -0.1658
@<TRIPOS>BOND
     1     8     9    1
     2     9    10    1
     3     9    11    1
     4     9     2    1
     5     2     3   ar
     6     3     4   ar
     7     4     5   ar
     8     5     1    1
     9     1    12    1
    10    12    13   ar
    11    13    14   ar
    12    14    15   ar
    13    15    16   ar
    14    16    17   ar
    15     1    18    1
    16    18    19    1
    17    19    20    1
    18    20    21    1
    19    21    24    1
    20    24    25   ar
    21    25    26   ar
    22    26    27   ar
    23    27    30    1
    24    30    31    1
    25    30    32    1
    26    30    33    1
    27    27    28   ar
    28    28    29   ar
    29    21    22    1
    30    22    23    1
    31     5     6   ar
    32     6     7   ar
    33     7     2   ar
    34    17    12   ar
    35    23    18    1
    36    29    24   ar
@<TRIPOS>MOLECULE
*****
 33 36 0 0 0
SMALL
GASTEIGER

@<TRIPOS>ATOM
      1 N           2.9145    1.8247   19.5855 N.pl3   1  UNL1       -0.2872
      2 C           3.9769   -2.4810   18.8224 C.ar    1  UNL1        0.0715
      3 C           4.3015   -1.4353   17.7972 C.ar    1  UNL1        0.0051
      4 C           3.9474   -0.0001   18.0515 C.ar    1  UNL1        0.0148
      5 C           3.2686    0.3895   19.3311 C.ar    1  UNL1        0.0515
      6 C           2.9440   -0.6562   20.3564 C.ar    1  UNL1        0.0148
      7 C           3.2982   -2.0914   20.1020 C.ar    1  UNL1        0.0051
      8 F           4.6852   -5.3514   18.3137 F       1  UNL1       -0.1659
      9 C           4.3311   -3.9162   18.5681 C.3     1  UNL1        0.4186
     10 F           5.6953   -3.4977   18.1057 F       1  UNL1       -0.1659
     11 F           2.9669   -4.3348   19.0305 F       1  UNL1       -0.1659
     12 C           3.9035    2.9081   19.2722 C.ar    1  UNL1        0.0710
     13 C           3.7299    3.7494   18.0426 C.ar    1  UNL1        0.0180
     14 C           4.7189    4.8329   17.7294 C.ar    1  UNL1        0.0220
     15 C           5.8815    5.0749   18.6458 C.ar    1  UNL1        0.0990
     16 N           6.0551    4.2336   19.8754 N.ar    1  UNL1       -0.2410
     17 C           5.0661    3.1502   20.1887 C.ar    1  UNL1        0.1136
     18 C           1.5714    2.1765   20.1531 C.3     1  UNL1        0.0807
     19 C           0.4408    2.5379   19.2358 C.3     1  UNL1        0.0416
     20 C          -0.9023    2.8897   19.8034 C.3     1  UNL1        0.0939
     21 N          -1.1149    2.8803   21.2883 N.pl3   1  UNL1       -0.2931
     22 C           0.0156    2.5189   22.2055 C.3     1  UNL1        0.0939
     23 C           1.3588    2.1671   21.6379 C.3     1  UNL1        0.0416
     24 C          -2.4581    3.2321   21.8559 C.ar    1  UNL1        0.1317
     25 C          -2.5559    3.8788   23.2057 C.ar    1  UNL1        0.0343
     26 C          -3.8990    4.2306   23.7733 C.ar    1  UNL1        0.0083
     27 C          -5.1444    3.9358   22.9909 C.ar    1  UNL1        0.0906
     28 C          -5.0466    3.2891   21.6410 C.ar    1  UNL1        0.1041
     29 N          -3.7035    2.9373   21.0735 N.ar    1  UNL1       -0.2292
     30 C          -6.4876    4.2877   23.5585 C.3     1  UNL1        0.4200
     31 F          -7.8308    4.6395   24.1260 F       1  UNL1       -0.1658
     32 F          -5.9360    4.1539   24.9469 F       1  UNL1       -0.1658
     33 F          -7.0392    4.4215   22.1700 F       1  UNL1       -0.1658
@<TRIPOS>BOND
     1     8     9    1
     2     9    10    1
     3     9    11    1
     4     9     2    1
     5     2     3   ar
     6     3     4   ar
     7     4     5   ar
     8     5     1    1
     9     1    12    1
    10    12    13   ar
    11    13    14   ar
    12    14    15   ar
    13    15    16   ar
    14    16    17   ar
    15     1    18    1
    16    18    19    1
    17    19    20    1
    18    20    21    1
    19    21    24    1
    20    24    25   ar
    21    25    26   ar
    22    26    27   ar
    23    27    30    1
    24    30    31    1
    25    30    32    1
    26    30    33    1
    27    27    28   ar
    28    28    29   ar
    29    21    22    1
    30    22    23    1
    31     5     6   ar
    32     6     7   ar
    33     7     2   ar
    34    17    12   ar
    35    23    18    1
    36    29    24   ar
@<TRIPOS>MOLECULE
*****
 33 36 0 0 0
SMALL
GASTEIGER

@<TRIPOS>ATOM
      1 N           3.3812    1.5344   19.3217 N.pl3   1  UNL1       -0.2872
      2 C           4.1173   -2.8952   19.0262 C.ar    1  UNL1        0.0715
      3 C           4.6313   -1.9765   17.9576 C.ar    1  UNL1        0.0051
      4 C           4.3859   -0.5000   18.0561 C.ar    1  UNL1        0.0148
      5 C           3.6266    0.0579   19.2232 C.ar    1  UNL1        0.0515
      6 C           3.1126   -0.8608   20.2918 C.ar    1  UNL1        0.0148
      7 C           3.3579   -2.3373   20.1933 C.ar    1  UNL1        0.0051
      8 F           4.6080   -5.8482   18.8292 F       1  UNL1       -0.1659
      9 C           4.3626   -4.3717   18.9277 C.3     1  UNL1        0.4186
     10 F           2.8990   -4.5991   18.6910 F       1  UNL1       -0.1659
     11 F           5.8263   -4.1443   19.1644 F       1  UNL1       -0.1659
     12 C           4.5324    2.4928   19.2441 C.ar    1  UNL1        0.0710
     13 C           5.4166    2.7012   20.4377 C.ar    1  UNL1        0.0180
     14 C           6.5679    3.6597   20.3600 C.ar    1  UNL1        0.0220
     15 C           6.8349    4.4097   19.0887 C.ar    1  UNL1        0.0990
     16 N           5.9507    4.2013   17.8951 N.ar    1  UNL1       -0.2410
     17 C           4.7995    3.2429   17.9727 C.ar    1  UNL1        0.1136
     18 C           1.9846    2.0525   19.4978 C.3     1  UNL1        0.0807
     19 C           1.3864    2.1448   20.8703 C.3     1  UNL1        0.0416
     20 C          -0.0102    2.6629   21.0464 C.3     1  UNL1        0.0939
     21 N          -0.8086    3.0887   19.8501 N.pl3   1  UNL1       -0.2931
     22 C          -0.2105    2.9964   18.4777 C.3     1  UNL1        0.0939
     23 C           1.1862    2.4783   18.3015 C.3     1  UNL1        0.0416
     24 C          -2.2053    3.6069   20.0263 C.ar    1  UNL1        0.1317
     25 C          -2.6075    4.9078   19.3973 C.ar    1  UNL1        0.0343
     26 C          -4.0041    5.4259   19.5735 C.ar    1  UNL1        0.0083
     27 C          -4.9985    4.6430   20.3787 C.ar    1  UNL1        0.0906
     28 C          -4.5962    3.3420   21.0077 C.ar    1  UNL1        0.1041
     29 N          -3.1996    2.8240   20.8315 N.ar    1  UNL1       -0.2292
     30 C          -6.3951    5.1611   20.5549 C.3     1  UNL1        0.4200
     31 F          -7.7917    5.6792   20.7310 F       1  UNL1       -0.1658
     32 F          -6.6398    4.1380   21.6241 F       1  UNL1       -0.1658
     33 F          -6.1504    6.1842   19.4856 F       1  UNL1       -0.1658
@<TRIPOS>BOND
     1     8     9    1
     2     9    10    1
     3     9    11    1
     4     9     2    1
     5     2     3   ar
     6     3     4   ar
     7     4     5   ar
     8     5     1    1
     9     1    12    1
    10    12    13   ar
    11    13    14   ar
    12    14    15   ar
    13    15    16   ar
    14    16    17   ar
    15     1    18    1
    16    18    19    1
    17    19    20    1
    18    20    21    1
    19    21    24    1
    20    24    25   ar
    21    25    26   ar
    22    26    27   ar
    23    27    30    1
    24    30    31    1
    25    30    32    1
    26    30    33    1
    27    27    28   ar
    28    28    29   ar
    29    21    22    1
    30    22    23    1
    31     5     6   ar
    32     6     7   ar
    33     7     2   ar
    34    17    12   ar
    35    23    18    1
    36    29    24   ar
@<TRIPOS>MOLECULE
*****
 33 36 0 0 0
SMALL
GASTEIGER

@<TRIPOS>ATOM
      1 N           2.4449    0.8251   23.5545 N.pl3   1  UNL1       -0.2872
      2 C           3.2820   -0.2181   19.2578 C.ar    1  UNL1        0.0715
      3 C           3.7465    1.0948   19.8151 C.ar    1  UNL1        0.0051
      4 C           3.4675    1.4425   21.2473 C.ar    1  UNL1        0.0148
      5 C           2.7239    0.4773   22.1223 C.ar    1  UNL1        0.0515
      6 C           2.2594   -0.8355   21.5650 C.ar    1  UNL1        0.0148
      7 C           2.5384   -1.1832   20.1328 C.ar    1  UNL1        0.0051
      8 F           3.8400   -0.9135   16.3934 F       1  UNL1       -0.1659
      9 C           3.5610   -0.5658   17.8256 C.3     1  UNL1        0.4186
     10 F           3.5368   -2.0243   18.1750 F       1  UNL1       -0.1659
     11 F           3.5852    0.8927   17.4762 F       1  UNL1       -0.1659
     12 C           3.4514    0.4945   24.6163 C.ar    1  UNL1        0.0710
     13 C           3.5714   -0.9118   25.1243 C.ar    1  UNL1        0.0180
     14 C           4.5780   -1.2424   26.1862 C.ar    1  UNL1        0.0220
     15 C           5.4646   -0.1667   26.7401 C.ar    1  UNL1        0.0990
     16 N           5.3446    1.2396   26.2322 N.ar    1  UNL1       -0.2410
     17 C           4.3381    1.5702   25.1703 C.ar    1  UNL1        0.1136
     18 C           1.1594    1.5034   23.9249 C.3     1  UNL1        0.0807
     19 C           0.5872    1.3267   25.3002 C.3     1  UNL1        0.0416
     20 C          -0.6983    2.0050   25.6706 C.3     1  UNL1        0.0939
     21 N          -1.4118    2.8600   24.6657 N.pl3   1  UNL1       -0.2931
     22 C          -0.8397    3.0368   23.2904 C.3     1  UNL1        0.0939
     23 C           0.4459    2.3584   22.9199 C.3     1  UNL1        0.0416
     24 C          -2.6974    3.5384   25.0361 C.ar    1  UNL1        0.1317
     25 C          -3.0458    3.7481   26.4799 C.ar    1  UNL1        0.0343
     26 C          -4.3314    4.4264   26.8502 C.ar    1  UNL1        0.0083
     27 C          -5.2685    4.8950   25.7768 C.ar    1  UNL1        0.0906
     28 C          -4.9201    4.6852   24.3330 C.ar    1  UNL1        0.1041
     29 N          -3.6345    4.0069   23.9627 N.ar    1  UNL1       -0.2292
     30 C          -6.5541    5.5733   26.1472 C.3     1  UNL1        0.4200
     31 F          -7.8396    6.2516   26.5177 F       1  UNL1       -0.1658
     32 F          -7.0218    5.4629   24.7263 F       1  UNL1       -0.1658
     33 F          -6.0864    5.6837   27.5681 F       1  UNL1       -0.1658
@<TRIPOS>BOND
     1     8     9    1
     2     9    10    1
     3     9    11    1
     4     9     2    1
     5     2     3   ar
     6     3     4   ar
     7     4     5   ar
     8     5     1    1
     9     1    12    1
    10    12    13   ar
    11    13    14   ar
    12    14    15   ar
    13    15    16   ar
    14    16    17   ar
    15     1    18    1
    16    18    19    1
    17    19    20    1
    18    20    21    1
    19    21    24    1
    20    24    25   ar
    21    25    26   ar
    22    26    27   ar
    23    27    30    1
    24    30    31    1
    25    30    32    1
    26    30    33    1
    27    27    28   ar
    28    28    29   ar
    29    21    22    1
    30    22    23    1
    31     5     6   ar
    32     6     7   ar
    33     7     2   ar
    34    17    12   ar
    35    23    18    1
    36    29    24   ar
@<TRIPOS>MOLECULE
*****
 33 36 0 0 0
SMALL
GASTEIGER

@<TRIPOS>ATOM
      1 N           3.9011    1.4076   34.6359 N.pl3   1  UNL1       -0.2872
      2 C           0.8402    4.1179   32.7558 C.ar    1  UNL1        0.0715
      3 C           1.0910    2.7561   32.1793 C.ar    1  UNL1        0.0051
      4 C           2.1113    1.8526   32.8060 C.ar    1  UNL1        0.0148
      5 C           2.8808    2.3110   34.0092 C.ar    1  UNL1        0.0515
      6 C           2.6299    3.6729   34.5857 C.ar    1  UNL1        0.0148
      7 C           1.6096    4.5763   33.9590 C.ar    1  UNL1        0.0051
      8 F          -1.2004    5.9248   31.5023 F       1  UNL1       -0.1659
      9 C          -0.1801    5.0214   32.1290 C.3     1  UNL1        0.4186
     10 F           0.7537    5.2820   30.9844 F       1  UNL1       -0.1659
     11 F          -1.1139    4.7608   33.2736 F       1  UNL1       -0.1659
     12 C           4.3430    1.6423   36.0499 C.ar    1  UNL1        0.0710
     13 C           3.4789    1.1918   37.1903 C.ar    1  UNL1        0.0180
     14 C           3.9209    1.4266   38.6044 C.ar    1  UNL1        0.0220
     15 C           5.2268    2.1118   38.8781 C.ar    1  UNL1        0.0990
     16 N           6.0909    2.5623   37.7377 N.ar    1  UNL1       -0.2410
     17 C           5.6490    2.3276   36.3237 C.ar    1  UNL1        0.1136
     18 C           4.4795    0.2694   33.8486 C.3     1  UNL1        0.0807
     19 C           5.4538    0.5422   32.7411 C.3     1  UNL1        0.0416
     20 C           6.0322   -0.5960   31.9538 C.3     1  UNL1        0.0939
     21 N           5.6364   -2.0070   32.2738 N.pl3   1  UNL1       -0.2931
     22 C           4.6621   -2.2798   33.3812 C.3     1  UNL1        0.0939
     23 C           4.0836   -1.1416   34.1686 C.3     1  UNL1        0.0416
     24 C           6.2148   -3.1452   31.4864 C.ar    1  UNL1        0.1317
     25 C           6.4395   -2.9985   30.0107 C.ar    1  UNL1        0.0343
     26 C           7.0180   -4.1367   29.2233 C.ar    1  UNL1        0.0083
     27 C           7.3717   -5.4216   29.9118 C.ar    1  UNL1        0.0906
     28 C           7.1470   -5.5683   31.3876 C.ar    1  UNL1        0.1041
     29 N           6.5686   -4.4301   32.1749 N.ar    1  UNL1       -0.2292
     30 C           7.9502   -6.5598   29.1244 C.3     1  UNL1        0.4200
     31 F           8.5286   -7.6979   28.3371 F       1  UNL1       -0.1658
     32 F           7.0387   -6.2310   27.9794 F       1  UNL1       -0.1658
     33 F           8.8617   -6.8886   30.2694 F       1  UNL1       -0.1658
@<TRIPOS>BOND
     1     8     9    1
     2     9    10    1
     3     9    11    1
     4     9     2    1
     5     2     3   ar
     6     3     4   ar
     7     4     5   ar
     8     5     1    1
     9     1    12    1
    10    12    13   ar
    11    13    14   ar
    12    14    15   ar
    13    15    16   ar
    14    16    17   ar
    15     1    18    1
    16    18    19    1
    17    19    20    1
    18    20    21    1
    19    21    24    1
    20    24    25   ar
    21    25    26   ar
    22    26    27   ar
    23    27    30    1
    24    30    31    1
    25    30    32    1
    26    30    33    1
    27    27    28   ar
    28    28    29   ar
    29    21    22    1
    30    22    23    1
    31     5     6   ar
    32     6     7   ar
    33     7     2   ar
    34    17    12   ar
    35    23    18    1
    36    29    24   ar
@<TRIPOS>MOLECULE
*****
 33 36 0 0 0
SMALL
GASTEIGER

@<TRIPOS>ATOM
      1 N           2.4801    1.5495   27.6373 N.pl3   1  UNL1       -0.2872
      2 C           3.6021    0.0508   31.7293 C.ar    1  UNL1        0.0715
      3 C           4.2429    1.2924   31.1836 C.ar    1  UNL1        0.0051
      4 C           3.8689    1.7919   29.8196 C.ar    1  UNL1        0.0148
      5 C           2.8541    1.0499   29.0013 C.ar    1  UNL1        0.0515
      6 C           2.2134   -0.1917   29.5470 C.ar    1  UNL1        0.0148
      7 C           2.5874   -0.6912   30.9110 C.ar    1  UNL1        0.0051
      8 F           4.3502   -0.9484   34.4573 F       1  UNL1       -0.1659
      9 C           3.9762   -0.4488   33.0933 C.3     1  UNL1        0.4186
     10 F           4.0055   -1.8544   32.5705 F       1  UNL1       -0.1659
     11 F           3.9468    0.9568   33.6162 F       1  UNL1       -0.1659
     12 C           1.8115    2.8835   27.4844 C.ar    1  UNL1        0.0710
     13 C           0.3407    3.0195   27.7455 C.ar    1  UNL1        0.0180
     14 C          -0.3279    4.3536   27.5927 C.ar    1  UNL1        0.0220
     15 C           0.4743    5.5515   27.1787 C.ar    1  UNL1        0.0990
     16 N           1.9451    5.4155   26.9175 N.ar    1  UNL1       -0.2410
     17 C           2.6137    4.0815   27.0704 C.ar    1  UNL1        0.1136
     18 C           2.7747    0.7151   26.4261 C.3     1  UNL1        0.0807
     19 C           2.0875    1.0113   25.1260 C.3     1  UNL1        0.0416
     20 C           2.3821    0.1769   23.9149 C.3     1  UNL1        0.0939
     21 N           3.3639   -0.9537   24.0037 N.pl3   1  UNL1       -0.2931
     22 C           4.0510   -1.2499   25.3037 C.3     1  UNL1        0.0939
     23 C           3.7564   -0.4155   26.5150 C.3     1  UNL1        0.0416
     24 C           3.6584   -1.7881   22.7925 C.ar    1  UNL1        0.1317
     25 C           4.4681   -3.0438   22.9256 C.ar    1  UNL1        0.0343
     26 C           4.7627   -3.8781   21.7144 C.ar    1  UNL1        0.0083
     27 C           4.2475   -3.4568   20.3701 C.ar    1  UNL1        0.0906
     28 C           3.4378   -2.2012   20.2370 C.ar    1  UNL1        0.1041
     29 N           3.1433   -1.3669   21.4482 N.ar    1  UNL1       -0.2292
     30 C           4.5421   -4.2912   19.1588 C.3     1  UNL1        0.4200
     31 F           4.8366   -5.1256   17.9476 F       1  UNL1       -0.1658
     32 F           5.8436   -3.5681   18.9771 F       1  UNL1       -0.1658
     33 F           3.2406   -5.0144   19.3405 F       1  UNL1       -0.1658
@<TRIPOS>BOND
     1     8     9    1
     2     9    10    1
     3     9    11    1
     4     9     2    1
     5     2     3   ar
     6     3     4   ar
     7     4     5   ar
     8     5     1    1
     9     1    12    1
    10    12    13   ar
    11    13    14   ar
    12    14    15   ar
    13    15    16   ar
    14    16    17   ar
    15     1    18    1
    16    18    19    1
    17    19    20    1
    18    20    21    1
    19    21    24    1
    20    24    25   ar
    21    25    26   ar
    22    26    27   ar
    23    27    30    1
    24    30    31    1
    25    30    32    1
    26    30    33    1
    27    27    28   ar
    28    28    29   ar
    29    21    22    1
    30    22    23    1
    31     5     6   ar
    32     6     7   ar
    33     7     2   ar
    34    17    12   ar
    35    23    18    1
    36    29    24   ar
@<TRIPOS>MOLECULE
*****
 33 36 0 0 0
SMALL
GASTEIGER

@<TRIPOS>ATOM
      1 N           3.3963   -0.7623   20.9107 N.pl3   1  UNL1       -0.2872
      2 C           1.4778    2.6205   18.6466 C.ar    1  UNL1        0.0715
      3 C           0.7497    1.3193   18.8102 C.ar    1  UNL1        0.0051
      4 C           1.3892    0.1918   19.5649 C.ar    1  UNL1        0.0148
      5 C           2.7568    0.3653   20.1560 C.ar    1  UNL1        0.0515
      6 C           3.4849    1.6665   19.9924 C.ar    1  UNL1        0.0148
      7 C           2.8454    2.7941   19.2377 C.ar    1  UNL1        0.0051
      8 F           0.1987    4.8757   17.1372 F       1  UNL1       -0.1659
      9 C           0.8382    3.7481   17.8919 C.3     1  UNL1        0.4186
     10 F           2.0172    4.6229   18.1999 F       1  UNL1       -0.1659
     11 F          -0.3407    2.8733   17.5839 F       1  UNL1       -0.1659
     12 C           4.0196   -1.9052   20.1656 C.ar    1  UNL1        0.0710
     13 C           3.1976   -3.1106   19.8171 C.ar    1  UNL1        0.0180
     14 C           3.8210   -4.2535   19.0720 C.ar    1  UNL1        0.0220
     15 C           5.2662   -4.1910   18.6753 C.ar    1  UNL1        0.0990
     16 N           6.0881   -2.9856   19.0238 N.ar    1  UNL1       -0.2410
     17 C           5.4649   -1.8427   19.7689 C.ar    1  UNL1        0.1136
     18 C           3.4125   -0.7470   22.4105 C.3     1  UNL1        0.0807
     19 C           2.5191    0.1961   23.1606 C.3     1  UNL1        0.0416
     20 C           2.5354    0.2114   24.6604 C.3     1  UNL1        0.0939
     21 N           3.4448   -0.7163   25.4102 N.pl3   1  UNL1       -0.2931
     22 C           4.3381   -1.6594   24.6601 C.3     1  UNL1        0.0939
     23 C           4.3220   -1.6747   23.1602 C.3     1  UNL1        0.0416
     24 C           3.4610   -0.7010   26.9101 C.ar    1  UNL1        0.1317
     25 C           2.2683   -0.1980   27.6679 C.ar    1  UNL1        0.0343
     26 C           2.2845   -0.1826   29.1677 C.ar    1  UNL1        0.0083
     27 C           3.4935   -0.6703   29.9097 C.ar    1  UNL1        0.0906
     28 C           4.6862   -1.1733   29.1519 C.ar    1  UNL1        0.1041
     29 N           4.6700   -1.1886   27.6521 N.ar    1  UNL1       -0.2292
     30 C           3.5096   -0.6550   31.4096 C.3     1  UNL1        0.4200
     31 F           3.5258   -0.6396   32.9094 F       1  UNL1       -0.1658
     32 F           4.7037   -1.5627   31.4060 F       1  UNL1       -0.1658
     33 F           2.3155    0.2528   31.4131 F       1  UNL1       -0.1658
@<TRIPOS>BOND
     1     8     9    1
     2     9    10    1
     3     9    11    1
     4     9     2    1
     5     2     3   ar
     6     3     4   ar
     7     4     5   ar
     8     5     1    1
     9     1    12    1
    10    12    13   ar
    11    13    14   ar
    12    14    15   ar
    13    15    16   ar
    14    16    17   ar
    15     1    18    1
    16    18    19    1
    17    19    20    1
    18    20    21    1
    19    21    24    1
    20    24    25   ar
    21    25    26   ar
    22    26    27   ar
    23    27    30    1
    24    30    31    1
    25    30    32    1
    26    30    33    1
    27    27    28   ar
    28    28    29   ar
    29    21    22    1
    30    22    23    1
    31     5     6   ar
    32     6     7   ar
    33     7     2   ar
    34    17    12   ar
    35    23    18    1
    36    29    24   ar
@<TRIPOS>MOLECULE
*****
 33 36 0 0 0
SMALL
GASTEIGER

@<TRIPOS>ATOM
      1 N           0.1971    2.4956   27.0512 N.pl3   1  UNL1       -0.2872
      2 C          -3.2268    5.3025   26.2461 C.ar    1  UNL1        0.0715
      3 C          -3.4979    3.8668   26.5855 C.ar    1  UNL1        0.0051
      4 C          -2.3566    2.9312   26.8539 C.ar    1  UNL1        0.0148
      5 C          -0.9442    3.4312   26.7828 C.ar    1  UNL1        0.0515
      6 C          -0.6732    4.8669   26.4434 C.ar    1  UNL1        0.0148
      7 C          -1.8145    5.8026   26.1750 C.ar    1  UNL1        0.0051
      8 F          -5.5094    7.1738   25.7093 F       1  UNL1       -0.1659
      9 C          -4.3681    6.2381   25.9777 C.3     1  UNL1        0.4186
     10 F          -5.1341    5.6301   27.1151 F       1  UNL1       -0.1659
     11 F          -3.6022    6.8462   24.8403 F       1  UNL1       -0.1659
     12 C           0.7106    2.3207   28.4496 C.ar    1  UNL1        0.0710
     13 C           1.6351    3.3424   29.0424 C.ar    1  UNL1        0.0180
     14 C           2.1486    3.1675   30.4409 C.ar    1  UNL1        0.0220
     15 C           1.7376    1.9709   31.2466 C.ar    1  UNL1        0.0990
     16 N           0.8130    0.9492   30.6539 N.ar    1  UNL1       -0.2410
     17 C           0.2995    1.1241   29.2554 C.ar    1  UNL1        0.1136
     18 C           0.8248    1.7348   25.9211 C.3     1  UNL1        0.0807
     19 C           0.1912    1.7526   24.5616 C.3     1  UNL1        0.0416
     20 C           0.8190    0.9919   23.4315 C.3     1  UNL1        0.0939
     21 N           2.0804    0.2133   23.6609 N.pl3   1  UNL1       -0.2931
     22 C           2.7140    0.1955   25.0204 C.3     1  UNL1        0.0939
     23 C           2.0863    0.9562   26.1505 C.3     1  UNL1        0.0416
     24 C           2.7082   -0.5475   22.5308 C.ar    1  UNL1        0.1317
     25 C           2.0839   -0.5159   21.1673 C.ar    1  UNL1        0.0343
     26 C           2.7117   -1.2766   20.0372 C.ar    1  UNL1        0.0083
     27 C           3.9638   -2.0690   20.2707 C.ar    1  UNL1        0.0906
     28 C           4.5880   -2.1006   21.6342 C.ar    1  UNL1        0.1041
     29 N           3.9603   -1.3399   22.7642 N.ar    1  UNL1       -0.2292
     30 C           4.5916   -2.8298   19.1405 C.3     1  UNL1        0.4200
     31 F           5.2194   -3.5905   18.0104 F       1  UNL1       -0.1658
     32 F           3.3063   -3.5730   18.9268 F       1  UNL1       -0.1658
     33 F           5.8768   -2.0865   19.3542 F       1  UNL1       -0.1658
@<TRIPOS>BOND
     1     8     9    1
     2     9    10    1
     3     9    11    1
     4     9     2    1
     5     2     3   ar
     6     3     4   ar
     7     4     5   ar
     8     5     1    1
     9     1    12    1
    10    12    13   ar
    11    13    14   ar
    12    14    15   ar
    13    15    16   ar
    14    16    17   ar
    15     1    18    1
    16    18    19    1
    17    19    20    1
    18    20    21    1
    19    21    24    1
    20    24    25   ar
    21    25    26   ar
    22    26    27   ar
    23    27    30    1
    24    30    31    1
    25    30    32    1
    26    30    33    1
    27    27    28   ar
    28    28    29   ar
    29    21    22    1
    30    22    23    1
    31     5     6   ar
    32     6     7   ar
    33     7     2   ar
    34    17    12   ar
    35    23    18    1
    36    29    24   ar
@<TRIPOS>MOLECULE
*****
 33 36 0 0 0
SMALL
GASTEIGER

@<TRIPOS>ATOM
      1 N           5.4620   -1.7973   22.5695 N.pl3   1  UNL1       -0.2872
      2 C           2.4831    0.0876   19.7725 C.ar    1  UNL1        0.0715
      3 C           3.4310    0.9507   20.5513 C.ar    1  UNL1        0.0051
      4 C           4.4240    0.3224   21.4836 C.ar    1  UNL1        0.0148
      5 C           4.4691   -1.1690   21.6371 C.ar    1  UNL1        0.0515
      6 C           3.5212   -2.0321   20.8584 C.ar    1  UNL1        0.0148
      7 C           2.5282   -1.4038   19.9260 C.ar    1  UNL1        0.0051
      8 F           0.4971    1.3442   17.9078 F       1  UNL1       -0.1659
      9 C           1.4901    0.7159   18.8402 C.3     1  UNL1        0.4186
     10 F           0.3767    0.3385   19.7717 F       1  UNL1       -0.1659
     11 F           2.6036    1.0933   17.9086 F       1  UNL1       -0.1659
     12 C           6.6405   -2.5437   22.0180 C.ar    1  UNL1        0.0710
     13 C           7.8190   -1.7901   21.4764 C.ar    1  UNL1        0.0180
     14 C           8.9974   -2.5366   20.9249 C.ar    1  UNL1        0.0220
     15 C           8.9974   -4.0366   20.9151 C.ar    1  UNL1        0.0990
     16 N           7.8189   -4.7901   21.4568 N.ar    1  UNL1       -0.2410
     17 C           6.6405   -4.0437   22.0082 C.ar    1  UNL1        0.1136
     18 C           5.2766   -1.6792   24.0532 C.3     1  UNL1        0.0807
     19 C           6.4403   -1.8976   24.9743 C.3     1  UNL1        0.0416
     20 C           6.2548   -1.7795   26.4581 C.3     1  UNL1        0.0939
     21 N           4.9057   -1.4430   27.0209 N.pl3   1  UNL1       -0.2931
     22 C           3.7421   -1.2245   26.0999 C.3     1  UNL1        0.0939
     23 C           3.9275   -1.3426   24.6160 C.3     1  UNL1        0.0416
     24 C           4.7203   -1.3248   28.5047 C.ar    1  UNL1        0.1317
     25 C           5.8157   -1.7564   29.4341 C.ar    1  UNL1        0.0343
     26 C           5.6302   -1.6383   30.9179 C.ar    1  UNL1        0.0083
     27 C           4.3494   -1.0886   31.4722 C.ar    1  UNL1        0.0906
     28 C           3.2540   -0.6571   30.5428 C.ar    1  UNL1        0.1041
     29 N           3.4395   -0.7752   29.0591 N.ar    1  UNL1       -0.2292
     30 C           4.1640   -0.9705   32.9561 C.3     1  UNL1        0.4200
     31 F           3.9786   -0.8524   34.4399 F       1  UNL1       -0.1658
     32 F           5.1610   -2.0709   33.1683 F       1  UNL1       -0.1658
     33 F           3.1670    0.1299   32.7439 F       1  UNL1       -0.1658
@<TRIPOS>BOND
     1     8     9    1
     2     9    10    1
     3     9    11    1
     4     9     2    1
     5     2     3   ar
     6     3     4   ar
     7     4     5   ar
     8     5     1    1
     9     1    12    1
    10    12    13   ar
    11    13    14   ar
    12    14    15   ar
    13    15    16   ar
    14    16    17   ar
    15     1    18    1
    16    18    19    1
    17    19    20    1
    18    20    21    1
    19    21    24    1
    20    24    25   ar
    21    25    26   ar
    22    26    27   ar
    23    27    30    1
    24    30    31    1
    25    30    32    1
    26    30    33    1
    27    27    28   ar
    28    28    29   ar
    29    21    22    1
    30    22    23    1
    31     5     6   ar
    32     6     7   ar
    33     7     2   ar
    34    17    12   ar
    35    23    18    1
    36    29    24   ar
