@<TRIPOS>MOLECULE
*****
 36 39 0 0 0
SMALL
GASTEIGER

@<TRIPOS>ATOM
      1 C         -10.0306  -19.5976   22.7241 C.3     1  UNL1        0.1040
      2 C          -9.9783  -20.2777   24.0600 C.3     1  UNL1        0.1616
      3 O         -10.9832  -19.9306   25.1181 O.3     1  UNL1       -0.3520
      4 C         -12.0405  -18.9034   24.8402 C.3     1  UNL1        0.1423
      5 C         -12.0927  -18.2233   23.5043 C.3     1  UNL1        0.0352
      6 C         -11.0878  -18.5704   22.4462 C.3     1  UNL1        0.0390
      7 N          -6.6216  -19.7582   20.6984 N.am    1  UNL1       -0.2485
      8 C          -7.6266  -19.4112   21.7565 C.2     1  UNL1        0.3059
      9 O          -7.2326  -18.5306   22.9051 O.2     1  UNL1       -0.2524
     10 N          -9.0256  -19.9447   21.6659 N.am    1  UNL1       -0.2878
     11 H          -6.8802  -20.3362   19.9445 H       1  UNL1        0.1583
     12 H          -9.2842  -20.5227   20.9121 H       1  UNL1        0.1510
     13 C          -2.9552  -18.5821   20.2088 C.ar    1  UNL1        0.0803
     14 S          -4.2149  -19.1998   19.6781 S.2     1  UNL1       -0.0488
     15 C          -5.2226  -19.2247   20.7889 C.ar    1  UNL1        0.1664
     16 N          -4.5857  -18.6224   22.0061 N.ar    1  UNL1       -0.2282
     17 C          -3.1844  -18.2253   21.6476 C.ar    1  UNL1        0.0701
     18 C          -2.1873  -17.5839   22.5665 C.3     1  UNL1        0.0528
     19 C          -1.7208  -17.5927   18.1480 C.3     1  UNL1        0.0779
     20 C          -1.6887  -18.3603   19.4363 C.2     1  UNL1        0.1807
     21 O          -0.3903  -18.9059   19.9521 O.2     1  UNL1       -0.2908
     22 C         -11.1400  -17.8904   21.1102 C.3     1  UNL1        0.0739
     23 N         -10.3733  -16.6210   20.8843 N.3     1  UNL1       -0.2726
     24 C         -10.7992  -15.6694   19.8058 C.3     1  UNL1        0.0721
     25 C         -10.0325  -14.4001   19.5799 C.3     1  UNL1        0.0174
     26 C          -8.8399  -14.0824   20.4325 C.3     1  UNL1        0.0031
     27 C          -8.4141  -15.0340   21.5109 C.3     1  UNL1        0.0204
     28 C          -9.1808  -16.3033   21.7369 C.3     1  UNL1        0.0724
     29 C          -7.2215  -14.7163   22.3636 C.3     1  UNL1        0.0277
     30 C          -7.2217  -15.0800   23.8188 C.ar    1  UNL1       -0.0220
     31 C          -5.9229  -15.2398   24.5521 C.ar    1  UNL1       -0.0020
     32 C          -5.9230  -15.6036   26.0073 C.ar    1  UNL1        0.0293
     33 C          -7.2220  -15.8075   26.7293 C.ar    1  UNL1        0.1401
     34 F          -7.2222  -16.1713   28.1845 F       1  UNL1       -0.2042
     35 C          -8.5207  -15.6477   25.9960 C.ar    1  UNL1        0.0293
     36 C          -8.5206  -15.2840   24.5408 C.ar    1  UNL1       -0.0020
@<TRIPOS>BOND
     1    19    20    1
     2    20    21    2
     3    20    13    1
     4    13    14   ar
     5    14    15   ar
     6    15     7    1
     7     7     8   am
     8     8     9    2
     9     8    10   am
    10     1    10    1
    11     1     2    1
    12     2     3    1
    13     3     4    1
    14     4     5    1
    15     5     6    1
    16     6    22    1
    17    22    23    1
    18    23    24    1
    19    24    25    1
    20    25    26    1
    21    26    27    1
    22    27    29    1
    23    29    30    1
    24    30    31   ar
    25    31    32   ar
    26    32    33   ar
    27    33    34    1
    28    33    35   ar
    29    35    36   ar
    30    27    28    1
    31    15    16   ar
    32    16    17   ar
    33    17    18    1
    34    17    13   ar
    35     6     1    1
    36    28    23    1
    37    36    30   ar
    38     7    11    1
    39    10    12    1
@<TRIPOS>MOLECULE
*****
 36 39 0 0 0
SMALL
GASTEIGER

@<TRIPOS>ATOM
      1 C         -17.7778   -0.4019   19.3245 C.3     1  UNL1        0.1040
      2 C         -18.7243   -0.4208   20.4880 C.3     1  UNL1        0.1616
      3 O         -18.6406    0.6448   21.5403 O.3     1  UNL1       -0.3520
      4 C         -17.6104    1.7294   21.4290 C.3     1  UNL1        0.1423
      5 C         -16.6639    1.7483   20.2656 C.3     1  UNL1        0.0352
      6 C         -16.7476    0.6827   19.2133 C.3     1  UNL1        0.0390
      7 N         -17.5060   -3.9329   17.5334 N.am    1  UNL1       -0.2485
      8 C         -17.4224   -2.8673   18.5856 C.2     1  UNL1        0.3059
      9 O         -16.8997   -3.2012   19.9514 O.2     1  UNL1       -0.2524
     10 N         -17.8615   -1.4676   18.2722 N.am    1  UNL1       -0.2878
     11 H         -17.8491   -3.7138   16.6370 H       1  UNL1        0.1583
     12 H         -18.2045   -1.2484   17.3758 H       1  UNL1        0.1510
     13 C         -16.9742   -7.5650   18.7947 C.ar    1  UNL1        0.0803
     14 S         -17.7519   -6.2824   18.7842 S.2     1  UNL1       -0.0488
     15 C         -17.0670   -5.3326   17.8468 C.ar    1  UNL1        0.1664
     16 N         -15.8659   -6.0281   17.2780 N.ar    1  UNL1       -0.2282
     17 C         -15.8085   -7.4078   17.8638 C.ar    1  UNL1        0.0701
     18 C         -14.7682   -8.4478   17.5702 C.3     1  UNL1        0.0528
     19 C         -18.7218   -9.2727   19.6773 C.3     1  UNL1        0.0779
     20 C         -17.3041   -8.7897   19.5955 C.2     1  UNL1        0.1807
     21 O         -16.2164   -9.5312   20.3144 O.2     1  UNL1       -0.2908
     22 C         -15.8011    0.7016   18.0497 C.3     1  UNL1        0.0739
     23 N         -14.9973   -0.5204   17.7169 N.3     1  UNL1       -0.2726
     24 C         -14.9892   -1.0538   16.3149 C.3     1  UNL1        0.0721
     25 C         -14.1855   -2.2758   15.9821 C.3     1  UNL1        0.0174
     26 C         -13.3898   -2.9643   17.0512 C.3     1  UNL1        0.0031
     27 C         -13.3980   -2.4309   18.4531 C.3     1  UNL1        0.0204
     28 C         -14.2017   -1.2089   18.7859 C.3     1  UNL1        0.0724
     29 C         -12.6023   -3.1194   19.5222 C.3     1  UNL1        0.0277
     30 C         -11.8075   -4.3479   19.1918 C.ar    1  UNL1       -0.0220
     31 C         -10.3535   -4.2290   18.8425 C.ar    1  UNL1       -0.0020
     32 C          -9.5587   -5.4575   18.5121 C.ar    1  UNL1        0.0293
     33 C         -10.2179   -6.8048   18.5311 C.ar    1  UNL1        0.1401
     34 F          -9.4231   -8.0333   18.2007 F       1  UNL1       -0.2042
     35 C         -11.6718   -6.9236   18.8804 C.ar    1  UNL1        0.0293
     36 C         -12.4666   -5.6952   19.2108 C.ar    1  UNL1       -0.0020
@<TRIPOS>BOND
     1    19    20    1
     2    20    21    2
     3    20    13    1
     4    13    14   ar
     5    14    15   ar
     6    15     7    1
     7     7     8   am
     8     8     9    2
     9     8    10   am
    10     1    10    1
    11     1     2    1
    12     2     3    1
    13     3     4    1
    14     4     5    1
    15     5     6    1
    16     6    22    1
    17    22    23    1
    18    23    24    1
    19    24    25    1
    20    25    26    1
    21    26    27    1
    22    27    29    1
    23    29    30    1
    24    30    31   ar
    25    31    32   ar
    26    32    33   ar
    27    33    34    1
    28    33    35   ar
    29    35    36   ar
    30    27    28    1
    31    15    16   ar
    32    16    17   ar
    33    17    18    1
    34    17    13   ar
    35     6     1    1
    36    28    23    1
    37    36    30   ar
    38     7    11    1
    39    10    12    1
@<TRIPOS>MOLECULE
*****
 36 39 0 0 0
SMALL
GASTEIGER

@<TRIPOS>ATOM
      1 C           8.7210   -5.6246   26.9299 C.3     1  UNL1        0.1040
      2 C           8.8086   -7.0356   27.4314 C.3     1  UNL1        0.1616
      3 O           8.6395   -8.1819   26.4789 O.3     1  UNL1       -0.3520
      4 C           8.3829   -7.9173   25.0249 C.3     1  UNL1        0.1423
      5 C           8.2953   -6.5064   24.5234 C.3     1  UNL1        0.0352
      6 C           8.4644   -5.3601   25.4759 C.3     1  UNL1        0.0390
      7 N           7.8886   -2.8433   29.6357 N.am    1  UNL1       -0.2485
      8 C           7.7196   -3.9897   28.6833 C.2     1  UNL1        0.3059
      9 O           6.3801   -4.6476   28.5316 O.2     1  UNL1       -0.2524
     10 N           8.8901   -4.4782   27.8824 N.am    1  UNL1       -0.2878
     11 H           8.7678   -2.4116   29.7353 H       1  UNL1        0.1583
     12 H           9.7693   -4.0465   27.9819 H       1  UNL1        0.1510
     13 C           5.1672   -1.9820   32.2659 C.ar    1  UNL1        0.0803
     14 S           6.4350   -2.6809   31.8731 S.2     1  UNL1       -0.0488
     15 C           6.7182   -2.3548   30.4366 C.ar    1  UNL1        0.1664
     16 N           5.6254   -1.4544   29.9416 N.ar    1  UNL1       -0.2282
     17 C           4.6668   -1.2240   31.0721 C.ar    1  UNL1        0.0701
     18 C           3.4258   -0.3832   31.0183 C.3     1  UNL1        0.0528
     19 C           4.7960   -0.9594   34.6252 C.3     1  UNL1        0.0779
     20 C           4.5144   -2.0323   33.6154 C.2     1  UNL1        0.1807
     21 O           3.5802   -3.1555   33.9552 O.2     1  UNL1       -0.2908
     22 C           8.3769   -3.9490   24.9744 C.3     1  UNL1        0.0739
     23 N           7.0482   -3.3734   24.5827 N.3     1  UNL1       -0.2726
     24 C           6.4421   -2.2664   25.3935 C.3     1  UNL1        0.0721
     25 C           5.1135   -1.6907   25.0018 C.3     1  UNL1        0.0174
     26 C           4.3910   -2.2221   23.7994 C.3     1  UNL1        0.0031
     27 C           4.9971   -3.3290   22.9887 C.3     1  UNL1        0.0204
     28 C           6.3258   -3.9047   23.3804 C.3     1  UNL1        0.0724
     29 C           4.2747   -3.8603   21.7863 C.3     1  UNL1        0.0277
     30 C           4.2982   -3.0932   20.4975 C.ar    1  UNL1       -0.0220
     31 C           5.2808   -3.4589   19.4248 C.ar    1  UNL1       -0.0020
     32 C           5.3043   -2.6917   18.1360 C.ar    1  UNL1        0.0293
     33 C           4.3452   -1.5588   17.9200 C.ar    1  UNL1        0.1401
     34 F           4.3687   -0.7916   16.6313 F       1  UNL1       -0.2042
     35 C           3.3626   -1.1931   18.9927 C.ar    1  UNL1        0.0293
     36 C           3.3391   -1.9603   20.2815 C.ar    1  UNL1       -0.0020
@<TRIPOS>BOND
     1    19    20    1
     2    20    21    2
     3    20    13    1
     4    13    14   ar
     5    14    15   ar
     6    15     7    1
     7     7     8   am
     8     8     9    2
     9     8    10   am
    10     1    10    1
    11     1     2    1
    12     2     3    1
    13     3     4    1
    14     4     5    1
    15     5     6    1
    16     6    22    1
    17    22    23    1
    18    23    24    1
    19    24    25    1
    20    25    26    1
    21    26    27    1
    22    27    29    1
    23    29    30    1
    24    30    31   ar
    25    31    32   ar
    26    32    33   ar
    27    33    34    1
    28    33    35   ar
    29    35    36   ar
    30    27    28    1
    31    15    16   ar
    32    16    17   ar
    33    17    18    1
    34    17    13   ar
    35     6     1    1
    36    28    23    1
    37    36    30   ar
    38     7    11    1
    39    10    12    1
@<TRIPOS>MOLECULE
*****
 36 39 0 0 0
SMALL
GASTEIGER

@<TRIPOS>ATOM
      1 C         -11.5741   -6.6364   17.4933 C.3     1  UNL1        0.1040
      2 C         -11.0627   -8.0353   17.3156 C.3     1  UNL1        0.1616
      3 O          -9.7594   -8.4419   17.9370 O.3     1  UNL1       -0.3520
      4 C          -8.9677   -7.4496   18.7361 C.3     1  UNL1        0.1423
      5 C          -9.4791   -6.0508   18.9139 C.3     1  UNL1        0.0352
      6 C         -10.7824   -5.6442   18.2925 C.3     1  UNL1        0.0390
      7 N         -15.4716   -6.3537   16.8003 N.am    1  UNL1       -0.2485
      8 C         -14.1683   -6.7603   17.4216 C.2     1  UNL1        0.3059
      9 O         -14.1558   -7.6976   18.5928 O.2     1  UNL1       -0.2524
     10 N         -12.8774   -6.2297   16.8719 N.am    1  UNL1       -0.2878
     11 H         -15.4797   -5.7386   16.0317 H       1  UNL1        0.1583
     12 H         -12.8856   -5.6146   16.1033 H       1  UNL1        0.1510
     13 C         -18.6995   -7.2235   18.7724 C.ar    1  UNL1        0.0803
     14 S         -17.4413   -6.4240   18.6059 S.2     1  UNL1       -0.0488
     15 C         -16.7624   -6.8843   17.3500 C.ar    1  UNL1        0.1664
     16 N         -17.6010   -7.9683   16.7404 N.ar    1  UNL1       -0.2282
     17 C         -18.7982   -8.1780   17.6195 C.ar    1  UNL1        0.0701
     18 C         -19.9005   -9.1682   17.3865 C.3     1  UNL1        0.0528
     19 C         -19.8955   -8.2318   20.8468 C.3     1  UNL1        0.0779
     20 C         -19.6858   -7.0917   19.8949 C.2     1  UNL1        0.1807
     21 O         -20.4624   -5.8198   20.0654 O.2     1  UNL1       -0.2908
     22 C         -11.2939   -4.2453   18.4702 C.3     1  UNL1        0.0739
     23 N         -12.6624   -4.0138   19.0389 N.3     1  UNL1       -0.2726
     24 C         -13.1334   -4.8210   20.2123 C.3     1  UNL1        0.0721
     25 C         -14.5019   -4.5895   20.7811 C.3     1  UNL1        0.0174
     26 C         -15.3995   -3.5507   20.1765 C.3     1  UNL1        0.0031
     27 C         -14.9285   -2.7436   19.0032 C.3     1  UNL1        0.0204
     28 C         -13.5600   -2.9751   18.4344 C.3     1  UNL1        0.0724
     29 C         -15.8261   -1.7049   18.3986 C.3     1  UNL1        0.0277
     30 C         -15.9627   -0.3607   19.0500 C.ar    1  UNL1       -0.0220
     31 C         -16.9803   -0.1516   20.1321 C.ar    1  UNL1       -0.0020
     32 C         -17.1170    1.1926   20.7836 C.ar    1  UNL1        0.0293
     33 C         -16.2360    2.3278   20.3530 C.ar    1  UNL1        0.1401
     34 F         -16.3726    3.6720   21.0045 F       1  UNL1       -0.2042
     35 C         -15.2184    2.1187   19.2710 C.ar    1  UNL1        0.0293
     36 C         -15.0818    0.7745   18.6195 C.ar    1  UNL1       -0.0020
@<TRIPOS>BOND
     1    19    20    1
     2    20    21    2
     3    20    13    1
     4    13    14   ar
     5    14    15   ar
     6    15     7    1
     7     7     8   am
     8     8     9    2
     9     8    10   am
    10     1    10    1
    11     1     2    1
    12     2     3    1
    13     3     4    1
    14     4     5    1
    15     5     6    1
    16     6    22    1
    17    22    23    1
    18    23    24    1
    19    24    25    1
    20    25    26    1
    21    26    27    1
    22    27    29    1
    23    29    30    1
    24    30    31   ar
    25    31    32   ar
    26    32    33   ar
    27    33    34    1
    28    33    35   ar
    29    35    36   ar
    30    27    28    1
    31    15    16   ar
    32    16    17   ar
    33    17    18    1
    34    17    13   ar
    35     6     1    1
    36    28    23    1
    37    36    30   ar
    38     7    11    1
    39    10    12    1
@<TRIPOS>MOLECULE
*****
 36 39 0 0 0
SMALL
GASTEIGER

@<TRIPOS>ATOM
      1 C           7.4471   -6.3888   26.9917 C.3     1  UNL1        0.1040
      2 C           7.1456   -7.7458   26.4283 C.3     1  UNL1        0.1616
      3 O           7.9570   -8.9326   26.8561 O.3     1  UNL1       -0.3520
      4 C           9.0699   -8.7624   27.8473 C.3     1  UNL1        0.1423
      5 C           9.3714   -7.4054   28.4106 C.3     1  UNL1        0.0352
      6 C           8.5600   -6.2185   27.9829 C.3     1  UNL1        0.0390
      7 N           5.8000   -3.6037   24.6938 N.am    1  UNL1       -0.2485
      8 C           6.6113   -4.7905   25.1216 C.2     1  UNL1        0.3059
      9 O           7.3983   -5.5661   24.1071 O.2     1  UNL1       -0.2524
     10 N           6.6357   -5.2018   26.5639 N.am    1  UNL1       -0.2878
     11 H           5.2835   -3.0947   25.3596 H       1  UNL1        0.1583
     12 H           6.1192   -4.6928   27.2297 H       1  UNL1        0.1510
     13 C           5.1344   -2.9901   20.9194 C.ar    1  UNL1        0.0803
     14 S           4.7846   -3.6475   22.2215 S.2     1  UNL1       -0.0488
     15 C           5.7756   -3.1924   23.2515 C.ar    1  UNL1        0.1664
     16 N           6.7378   -2.2537   22.5859 N.ar    1  UNL1       -0.2282
     17 C           6.3415   -2.1287   21.1446 C.ar    1  UNL1        0.0701
     18 C           7.0313   -1.2896   20.1102 C.3     1  UNL1        0.0528
     19 C           4.5702   -4.4284   18.8306 C.3     1  UNL1        0.0779
     20 C           4.4051   -3.1638   19.6201 C.2     1  UNL1        0.1807
     21 O           3.5108   -2.0728   19.1105 O.2     1  UNL1       -0.2908
     22 C           8.8616   -4.8614   28.5462 C.3     1  UNL1        0.0739
     23 N           7.9803   -4.2787   29.6111 N.3     1  UNL1       -0.2726
     24 C           7.6605   -5.0773   30.8399 C.3     1  UNL1        0.0721
     25 C           6.7792   -4.4946   31.9048 C.3     1  UNL1        0.0174
     26 C           6.2178   -3.1133   31.7407 C.3     1  UNL1        0.0031
     27 C           6.5376   -2.3148   30.5119 C.3     1  UNL1        0.0204
     28 C           7.4189   -2.8975   29.4471 C.3     1  UNL1        0.0724
     29 C           5.9762   -0.9335   30.3479 C.3     1  UNL1        0.0277
     30 C           4.5677   -0.7487   29.8660 C.ar    1  UNL1       -0.0220
     31 C           4.2332   -0.9771   28.4217 C.ar    1  UNL1       -0.0020
     32 C           2.8247   -0.7924   27.9398 C.ar    1  UNL1        0.0293
     33 C           1.7509   -0.3792   28.9023 C.ar    1  UNL1        0.1401
     34 F           0.3425   -0.1945   28.4204 F       1  UNL1       -0.2042
     35 C           2.0855   -0.1509   30.3465 C.ar    1  UNL1        0.0293
     36 C           3.4939   -0.3356   30.8284 C.ar    1  UNL1       -0.0020
@<TRIPOS>BOND
     1    19    20    1
     2    20    21    2
     3    20    13    1
     4    13    14   ar
     5    14    15   ar
     6    15     7    1
     7     7     8   am
     8     8     9    2
     9     8    10   am
    10     1    10    1
    11     1     2    1
    12     2     3    1
    13     3     4    1
    14     4     5    1
    15     5     6    1
    16     6    22    1
    17    22    23    1
    18    23    24    1
    19    24    25    1
    20    25    26    1
    21    26    27    1
    22    27    29    1
    23    29    30    1
    24    30    31   ar
    25    31    32   ar
    26    32    33   ar
    27    33    34    1
    28    33    35   ar
    29    35    36   ar
    30    27    28    1
    31    15    16   ar
    32    16    17   ar
    33    17    18    1
    34    17    13   ar
    35     6     1    1
    36    28    23    1
    37    36    30   ar
    38     7    11    1
    39    10    12    1
@<TRIPOS>MOLECULE
*****
 36 39 0 0 0
SMALL
GASTEIGER

@<TRIPOS>ATOM
      1 C           3.6876   -0.1360   21.3160 C.3     1  UNL1        0.1040
      2 C           5.1483   -0.4516   21.1876 C.3     1  UNL1        0.1616
      3 O           5.6114   -1.4632   20.1816 O.3     1  UNL1       -0.3520
      4 C           4.6137   -2.1593   19.3040 C.3     1  UNL1        0.1423
      5 C           3.1530   -1.8437   19.4324 C.3     1  UNL1        0.0352
      6 C           2.6899   -0.8320   20.4384 C.3     1  UNL1        0.0390
      7 N           2.4136    1.4544   24.7216 N.am    1  UNL1       -0.2485
      8 C           2.8768    0.4428   23.7156 C.2     1  UNL1        0.3059
      9 O           2.9923   -1.0018   24.1030 O.2     1  UNL1       -0.2524
     10 N           3.2244    0.8757   22.3221 N.am    1  UNL1       -0.2878
     11 H           2.3378    2.4024   24.4673 H       1  UNL1        0.1583
     12 H           3.1486    1.8237   22.0678 H       1  UNL1        0.1510
     13 C           0.8273    0.5943   28.1581 C.ar    1  UNL1        0.0803
     14 S           0.7231    1.1536   26.7702 S.2     1  UNL1       -0.0488
     15 C           2.0660    1.0215   26.1151 C.ar    1  UNL1        0.1664
     16 N           3.0002    0.3804   27.0981 N.ar    1  UNL1       -0.2282
     17 C           2.2347    0.1164   28.3608 C.ar    1  UNL1        0.0701
     18 C           2.7806   -0.5147   29.6072 C.3     1  UNL1        0.0528
     19 C          -1.4918   -0.3174   28.8931 C.3     1  UNL1        0.0779
     20 C          -0.2811    0.5250   29.1663 C.2     1  UNL1        0.1807
     21 O          -0.1790    1.2980   30.4476 O.2     1  UNL1       -0.2908
     22 C           1.2291   -0.5164   20.5669 C.3     1  UNL1        0.0739
     23 N           0.7102    0.8228   20.1339 N.3     1  UNL1       -0.2726
     24 C           0.8346    1.2476   18.7007 C.3     1  UNL1        0.0721
     25 C           0.3158    2.5868   18.2677 C.3     1  UNL1        0.0174
     26 C          -0.3274    3.5011   19.2680 C.3     1  UNL1        0.0031
     27 C          -0.4517    3.0762   20.7011 C.3     1  UNL1        0.0204
     28 C           0.0671    1.7371   21.1341 C.3     1  UNL1        0.0724
     29 C          -1.0949    3.9905   21.7014 C.3     1  UNL1        0.0277
     30 C          -2.5670    3.8902   21.9712 C.ar    1  UNL1       -0.0220
     31 C          -3.0590    3.6525   23.3683 C.ar    1  UNL1       -0.0020
     32 C          -4.5311    3.5522   23.6381 C.ar    1  UNL1        0.0293
     33 C          -5.5112    3.6896   22.5109 C.ar    1  UNL1        0.1401
     34 F          -6.9834    3.5893   22.7807 F       1  UNL1       -0.2042
     35 C          -5.0193    3.9273   21.1140 C.ar    1  UNL1        0.0293
     36 C          -3.5471    4.0276   20.8441 C.ar    1  UNL1       -0.0020
@<TRIPOS>BOND
     1    19    20    1
     2    20    21    2
     3    20    13    1
     4    13    14   ar
     5    14    15   ar
     6    15     7    1
     7     7     8   am
     8     8     9    2
     9     8    10   am
    10     1    10    1
    11     1     2    1
    12     2     3    1
    13     3     4    1
    14     4     5    1
    15     5     6    1
    16     6    22    1
    17    22    23    1
    18    23    24    1
    19    24    25    1
    20    25    26    1
    21    26    27    1
    22    27    29    1
    23    29    30    1
    24    30    31   ar
    25    31    32   ar
    26    32    33   ar
    27    33    34    1
    28    33    35   ar
    29    35    36   ar
    30    27    28    1
    31    15    16   ar
    32    16    17   ar
    33    17    18    1
    34    17    13   ar
    35     6     1    1
    36    28    23    1
    37    36    30   ar
    38     7    11    1
    39    10    12    1
@<TRIPOS>MOLECULE
*****
 36 39 0 0 0
SMALL
GASTEIGER

@<TRIPOS>ATOM
      1 C          -1.6177  -16.6702   20.7975 C.3     1  UNL1        0.1040
      2 C          -0.1621  -16.7446   21.1520 C.3     1  UNL1        0.1616
      3 O           0.6998  -17.8202   20.5602 O.3     1  UNL1       -0.3520
      4 C           0.1061  -18.8214   19.6140 C.3     1  UNL1        0.1423
      5 C          -1.3495  -18.7469   19.2596 C.3     1  UNL1        0.0352
      6 C          -2.2114  -17.6713   19.8513 C.3     1  UNL1        0.0390
      7 N          -4.4059  -14.8738   22.9767 N.am    1  UNL1       -0.2485
      8 C          -3.5440  -15.9494   22.3850 C.2     1  UNL1        0.3059
      9 O          -3.7463  -17.3798   22.7889 O.2     1  UNL1       -0.2524
     10 N          -2.4797  -15.5946   21.3893 N.am    1  UNL1       -0.2878
     11 H          -4.2732  -13.9351   22.7116 H       1  UNL1        0.1583
     12 H          -2.3469  -14.6558   21.1241 H       1  UNL1        0.1510
     13 C          -7.5459  -16.0222   24.9484 C.ar    1  UNL1        0.0803
     14 S          -6.8043  -15.8379   23.6576 S.2     1  UNL1       -0.0488
     15 C          -5.4702  -15.2286   23.9724 C.ar    1  UNL1        0.1664
     16 N          -5.3873  -15.0365   25.4577 N.ar    1  UNL1       -0.2282
     17 C          -6.6702  -15.5270   26.0610 C.ar    1  UNL1        0.0701
     18 C          -7.0164  -15.5229   27.5204 C.3     1  UNL1        0.0528
     19 C          -9.9879  -16.2716   24.0975 C.3     1  UNL1        0.0779
     20 C          -8.9217  -16.6004   25.1000 C.2     1  UNL1        0.1807
     21 O          -9.2311  -17.5072   26.2539 O.2     1  UNL1       -0.2908
     22 C          -3.6671  -17.5969   19.4969 C.3     1  UNL1        0.0739
     23 N          -4.5587  -18.7791   19.7362 N.3     1  UNL1       -0.2726
     24 C          -3.9598  -20.1260   20.0147 C.3     1  UNL1        0.0721
     25 C          -4.8514  -21.3082   20.2540 C.3     1  UNL1        0.0174
     26 C          -6.3419  -21.1436   20.2150 C.3     1  UNL1        0.0031
     27 C          -6.9407  -19.7969   19.9365 C.3     1  UNL1        0.0204
     28 C          -6.0491  -18.6146   19.6972 C.3     1  UNL1        0.0724
     29 C          -8.4312  -19.6323   19.8975 C.3     1  UNL1        0.0277
     30 C          -9.2182  -19.6207   21.1744 C.ar    1  UNL1       -0.0220
     31 C         -10.6858  -19.3116   21.1481 C.ar    1  UNL1       -0.0020
     32 C         -11.4728  -19.3000   22.4250 C.ar    1  UNL1        0.0293
     33 C         -10.7921  -19.5976   23.7282 C.ar    1  UNL1        0.1401
     34 F         -11.5791  -19.5860   25.0051 F       1  UNL1       -0.2042
     35 C          -9.3246  -19.9067   23.7544 C.ar    1  UNL1        0.0293
     36 C          -8.5376  -19.9182   22.4775 C.ar    1  UNL1       -0.0020
@<TRIPOS>BOND
     1    19    20    1
     2    20    21    2
     3    20    13    1
     4    13    14   ar
     5    14    15   ar
     6    15     7    1
     7     7     8   am
     8     8     9    2
     9     8    10   am
    10     1    10    1
    11     1     2    1
    12     2     3    1
    13     3     4    1
    14     4     5    1
    15     5     6    1
    16     6    22    1
    17    22    23    1
    18    23    24    1
    19    24    25    1
    20    25    26    1
    21    26    27    1
    22    27    29    1
    23    29    30    1
    24    30    31   ar
    25    31    32   ar
    26    32    33   ar
    27    33    34    1
    28    33    35   ar
    29    35    36   ar
    30    27    28    1
    31    15    16   ar
    32    16    17   ar
    33    17    18    1
    34    17    13   ar
    35     6     1    1
    36    28    23    1
    37    36    30   ar
    38     7    11    1
    39    10    12    1
@<TRIPOS>MOLECULE
*****
 36 39 0 0 0
SMALL
GASTEIGER

@<TRIPOS>ATOM
      1 C         -11.5614   -6.7544   17.6749 C.3     1  UNL1        0.1040
      2 C         -10.7681   -7.9484   17.2332 C.3     1  UNL1        0.1616
      3 O          -9.4344   -8.2352   17.8569 O.3     1  UNL1       -0.3520
      4 C          -8.8941   -7.3280   18.9223 C.3     1  UNL1        0.1423
      5 C          -9.6874   -6.1341   19.3640 C.3     1  UNL1        0.0352
      6 C         -11.0210   -5.8473   18.7403 C.3     1  UNL1        0.0390
      7 N         -15.4785   -6.7426   17.0378 N.am    1  UNL1       -0.2485
      8 C         -14.1448   -7.0294   17.6614 C.2     1  UNL1        0.3059
      9 O         -14.0609   -7.8781   18.8955 O.2     1  UNL1       -0.2524
     10 N         -12.8951   -6.4676   17.0511 N.am    1  UNL1       -0.2878
     11 H         -15.5336   -6.1856   16.2279 H       1  UNL1        0.1583
     12 H         -12.9502   -5.9106   16.2412 H       1  UNL1        0.1510
     13 C         -18.6881   -7.5820   19.0526 C.ar    1  UNL1        0.0803
     14 S         -17.5222   -6.6849   18.7598 S.2     1  UNL1       -0.0488
     15 C         -16.7283   -7.3044   17.6481 C.ar    1  UNL1        0.1664
     16 N         -17.4036   -8.5845   17.2539 N.ar    1  UNL1       -0.2282
     17 C         -18.6148   -8.7561   18.1219 C.ar    1  UNL1        0.0701
     18 C         -19.5828   -9.9007   18.0686 C.3     1  UNL1        0.0528
     19 C         -20.0746   -8.4247   21.0818 C.3     1  UNL1        0.0779
     20 C         -19.7422   -7.3464   20.0934 C.2     1  UNL1        0.1807
     21 O         -20.4640   -6.0326   20.1459 O.2     1  UNL1       -0.2908
     22 C         -11.8144   -4.6533   19.1820 C.3     1  UNL1        0.0739
     23 N         -11.6708   -3.3477   18.4576 N.3     1  UNL1       -0.2726
     24 C         -10.4982   -3.1183   17.5505 C.3     1  UNL1        0.0721
     25 C         -10.3546   -1.8126   16.8261 C.3     1  UNL1        0.0174
     26 C         -11.3835   -0.7365   17.0088 C.3     1  UNL1        0.0031
     27 C         -12.5560   -0.9659   17.9158 C.3     1  UNL1        0.0204
     28 C         -12.6996   -2.2716   18.6402 C.3     1  UNL1        0.0724
     29 C         -13.5849    0.1102   18.0984 C.3     1  UNL1        0.0277
     30 C         -15.0182   -0.2567   18.3453 C.ar    1  UNL1       -0.0220
     31 C         -15.5876   -0.1665   19.7302 C.ar    1  UNL1       -0.0020
     32 C         -17.0210   -0.5334   19.9770 C.ar    1  UNL1        0.0293
     33 C         -17.8849   -0.9905   18.8391 C.ar    1  UNL1        0.1401
     34 F         -19.3182   -1.3574   19.0860 F       1  UNL1       -0.2042
     35 C         -17.3154   -1.0806   17.4543 C.ar    1  UNL1        0.0293
     36 C         -15.8821   -0.7137   17.2075 C.ar    1  UNL1       -0.0020
@<TRIPOS>BOND
     1    19    20    1
     2    20    21    2
     3    20    13    1
     4    13    14   ar
     5    14    15   ar
     6    15     7    1
     7     7     8   am
     8     8     9    2
     9     8    10   am
    10     1    10    1
    11     1     2    1
    12     2     3    1
    13     3     4    1
    14     4     5    1
    15     5     6    1
    16     6    22    1
    17    22    23    1
    18    23    24    1
    19    24    25    1
    20    25    26    1
    21    26    27    1
    22    27    29    1
    23    29    30    1
    24    30    31   ar
    25    31    32   ar
    26    32    33   ar
    27    33    34    1
    28    33    35   ar
    29    35    36   ar
    30    27    28    1
    31    15    16   ar
    32    16    17   ar
    33    17    18    1
    34    17    13   ar
    35     6     1    1
    36    28    23    1
    37    36    30   ar
    38     7    11    1
    39    10    12    1
@<TRIPOS>MOLECULE
*****
 36 39 0 0 0
SMALL
GASTEIGER

@<TRIPOS>ATOM
      1 C           3.1464    3.2019   37.4165 C.3     1  UNL1        0.1040
      2 C           2.9799    4.6605   37.7245 C.3     1  UNL1        0.1616
      3 O           3.8865    5.3255   38.7173 O.3     1  UNL1       -0.3520
      4 C           4.9596    4.5321   39.4021 C.3     1  UNL1        0.1423
      5 C           5.1260    3.0735   39.0941 C.3     1  UNL1        0.0352
      6 C           4.2194    2.4085   38.1013 C.3     1  UNL1        0.0390
      7 N           1.6553    1.9265   33.9668 N.am    1  UNL1       -0.2485
      8 C           2.5619    2.5916   34.9596 C.2     1  UNL1        0.3059
      9 O           3.7906    3.3117   34.4885 O.2     1  UNL1       -0.2524
     10 N           2.2398    2.5368   36.4236 N.am    1  UNL1       -0.2878
     11 H           0.8489    1.4540   34.2760 H       1  UNL1        0.1583
     12 H           1.4333    2.0642   36.7328 H       1  UNL1        0.1510
     13 C           2.7830    1.3842   30.2926 C.ar    1  UNL1        0.0803
     14 S           2.6682    0.9108   31.7113 S.2     1  UNL1       -0.0488
     15 C           1.9774    1.9814   32.5028 C.ar    1  UNL1        0.1664
     16 N           1.6652    3.1165   31.5733 N.ar    1  UNL1       -0.2282
     17 C           2.1631    2.7475   30.2073 C.ar    1  UNL1        0.0701
     18 C           2.0593    3.5932   28.9728 C.3     1  UNL1        0.0528
     19 C           4.6996    1.1020   28.5615 C.3     1  UNL1        0.0779
     20 C           3.4080    0.6273   29.1583 C.2     1  UNL1        0.1807
     21 O           2.7413   -0.6042   28.6210 O.2     1  UNL1       -0.2908
     22 C           4.3859    0.9498   37.7932 C.3     1  UNL1        0.0739
     23 N           5.1223    0.5235   36.5579 N.3     1  UNL1       -0.2726
     24 C           6.4480    1.1410   36.2244 C.3     1  UNL1        0.0721
     25 C           7.1844    0.7146   34.9891 C.3     1  UNL1        0.0174
     26 C           6.5951   -0.3293   34.0874 C.3     1  UNL1        0.0031
     27 C           5.2694   -0.9467   34.4209 C.3     1  UNL1        0.0204
     28 C           4.5330   -0.5203   35.6562 C.3     1  UNL1        0.0724
     29 C           4.6801   -1.9906   33.5192 C.3     1  UNL1        0.0277
     30 C           5.4522   -2.4752   32.3279 C.ar    1  UNL1       -0.0220
     31 C           5.3715   -1.7305   31.0283 C.ar    1  UNL1       -0.0020
     32 C           6.1436   -2.2151   29.8371 C.ar    1  UNL1        0.0293
     33 C           6.9964   -3.4444   29.9455 C.ar    1  UNL1        0.1401
     34 F           7.7685   -3.9290   28.7543 F       1  UNL1       -0.2042
     35 C           7.0771   -4.1889   31.2451 C.ar    1  UNL1        0.0293
     36 C           6.3050   -3.7043   32.4363 C.ar    1  UNL1       -0.0020
@<TRIPOS>BOND
     1    19    20    1
     2    20    21    2
     3    20    13    1
     4    13    14   ar
     5    14    15   ar
     6    15     7    1
     7     7     8   am
     8     8     9    2
     9     8    10   am
    10     1    10    1
    11     1     2    1
    12     2     3    1
    13     3     4    1
    14     4     5    1
    15     5     6    1
    16     6    22    1
    17    22    23    1
    18    23    24    1
    19    24    25    1
    20    25    26    1
    21    26    27    1
    22    27    29    1
    23    29    30    1
    24    30    31   ar
    25    31    32   ar
    26    32    33   ar
    27    33    34    1
    28    33    35   ar
    29    35    36   ar
    30    27    28    1
    31    15    16   ar
    32    16    17   ar
    33    17    18    1
    34    17    13   ar
    35     6     1    1
    36    28    23    1
    37    36    30   ar
    38     7    11    1
    39    10    12    1
