@<TRIPOS>MOLECULE
*****
 32 36 0 0 0
SMALL
GASTEIGER

@<TRIPOS>ATOM
      1 N          -3.6631  -19.4348   20.7561 N.3     1  UNL1       -0.2719
      2 C          -2.3879  -19.0632   20.0590 C.3     1  UNL1        0.0722
      3 C          -1.9080  -17.7630   20.6327 C.3     1  UNL1        0.0190
      4 C          -2.8865  -17.3311   21.6844 C.3     1  UNL1        0.0201
      5 C          -2.1706  -16.0659   22.0544 C.3     1  UNL1        0.0061
      6 C          -3.4458  -16.4375   22.7515 C.3     1  UNL1        0.0237
      7 C          -3.9712  -18.3643   21.7606 C.3     1  UNL1        0.0724
      8 C          -4.5049  -16.1362   23.7701 C.ar    1  UNL1       -0.0225
      9 C          -4.3125  -16.5533   25.1980 C.ar    1  UNL1       -0.0043
     10 C          -5.3716  -16.2520   26.2166 C.ar    1  UNL1        0.0035
     11 C          -6.6231  -15.5335   25.8071 C.ar    1  UNL1        0.0714
     12 C          -6.8155  -15.1164   24.3792 C.ar    1  UNL1        0.0035
     13 C          -5.7563  -15.4177   23.3606 C.ar    1  UNL1       -0.0043
     14 C          -7.6822  -15.2322   26.8257 C.3     1  UNL1        0.4186
     15 F          -8.7414  -14.9308   27.8443 F       1  UNL1       -0.1659
     16 F          -6.6275  -14.7632   27.7836 F       1  UNL1       -0.1659
     17 F          -8.7369  -15.7011   25.8677 F       1  UNL1       -0.1659
     18 C          -4.4857  -20.6615   20.4945 C.3     1  UNL1        0.0843
     19 C          -5.9819  -20.5653   20.4478 C.3     1  UNL1        0.0824
     20 S          -6.7656  -20.4395   21.7207 S.3     1  UNL1       -0.0742
     21 C          -9.5732  -17.7722   21.4597 C.ar    1  UNL1        0.2029
     22 N          -8.9974  -17.4560   22.8082 N.ar    1  UNL1       -0.1250
     23 N          -7.8755  -18.4166   23.0701 N.ar    1  UNL1       -0.1220
     24 C          -7.7580  -19.3266   21.8835 C.ar    1  UNL1        0.1933
     25 N          -8.8072  -18.9284   20.8882 N.ar    1  UNL1       -0.2859
     26 C          -9.0482  -19.5731   19.5554 C.3     1  UNL1        0.1341
     27 C         -12.6856  -17.8105   22.4401 C.3     1  UNL1        0.0556
     28 C         -12.1453  -17.0754   21.2494 C.ar    1  UNL1        0.1001
     29 N         -12.9406  -16.2288   20.3003 N.ar    1  UNL1       -0.2085
     30 C         -12.0014  -15.6881   19.2631 C.ar    1  UNL1        0.2849
     31 O         -10.6258  -16.2004   19.5711 O.2     1  UNL1       -0.4283
     32 C         -10.7146  -17.0578   20.7987 C.ar    1  UNL1        0.1964
@<TRIPOS>BOND
     1    27    28    1
     2    28    29   ar
     3    29    30   ar
     4    30    31   ar
     5    31    32   ar
     6    32    21    1
     7    21    22   ar
     8    22    23   ar
     9    23    24   ar
    10    24    20    1
    11    20    19    1
    12    19    18    1
    13    18     1    1
    14     1     2    1
    15     2     3    1
    16     4     3    1
    17     4     5    1
    18     5     6    1
    19     6     8    1
    20     8     9   ar
    21     9    10   ar
    22    10    11   ar
    23    11    14    1
    24    14    15    1
    25    14    16    1
    26    14    17    1
    27    11    12   ar
    28    12    13   ar
    29     4     7    1
    30    24    25   ar
    31    25    26    1
    32    32    28   ar
    33    25    21   ar
    34     7     1    1
    35     6     4    1
    36    13     8   ar
@<TRIPOS>MOLECULE
*****
 32 36 0 0 0
SMALL
GASTEIGER

@<TRIPOS>ATOM
      1 N          -3.2065  -19.3536   20.7329 N.3     1  UNL1       -0.2719
      2 C          -1.9538  -18.8905   20.0501 C.3     1  UNL1        0.0722
      3 C          -1.5848  -17.5516   20.6169 C.3     1  UNL1        0.0190
      4 C          -2.6095  -17.1872   21.6499 C.3     1  UNL1        0.0201
      5 C          -1.9997  -15.8668   22.0167 C.3     1  UNL1        0.0061
      6 C          -3.2525  -16.3299   22.6995 C.3     1  UNL1        0.0237
      7 C          -3.6118  -18.3009   21.7216 C.3     1  UNL1        0.0724
      8 C          -4.3469  -16.1023   23.6997 C.ar    1  UNL1       -0.0225
      9 C          -5.5976  -15.3816   23.2919 C.ar    1  UNL1       -0.0043
     10 C          -6.6921  -15.1540   24.2920 C.ar    1  UNL1        0.0035
     11 C          -6.5358  -15.6471   25.7000 C.ar    1  UNL1        0.0714
     12 C          -5.2851  -16.3678   26.1078 C.ar    1  UNL1        0.0035
     13 C          -4.1906  -16.5954   25.1076 C.ar    1  UNL1       -0.0043
     14 C          -7.6303  -15.4195   26.7002 C.3     1  UNL1        0.4186
     15 F          -8.7248  -15.1919   27.7003 F       1  UNL1       -0.1659
     16 F          -6.6845  -15.7616   27.8130 F       1  UNL1       -0.1659
     17 F          -8.5761  -15.0774   25.5873 F       1  UNL1       -0.1659
     18 C          -3.9274  -20.6430   20.4726 C.3     1  UNL1        0.0843
     19 C          -5.3567  -20.6246   20.0181 C.3     1  UNL1        0.0824
     20 S          -6.4650  -20.6021   21.0287 S.3     1  UNL1       -0.0742
     21 C          -9.8029  -18.6215   21.0573 C.ar    1  UNL1        0.2029
     22 N          -9.4866  -18.6354   19.5910 N.ar    1  UNL1       -0.1250
     23 N          -8.1977  -19.3790   19.4018 N.ar    1  UNL1       -0.1220
     24 C          -7.7174  -19.8248   20.7511 C.ar    1  UNL1        0.1933
     25 N          -8.7094  -19.3566   21.7742 N.ar    1  UNL1       -0.2859
     26 C          -8.6232  -19.5837   23.2545 C.3     1  UNL1        0.1341
     27 C         -10.7521  -15.5213   20.6868 C.3     1  UNL1        0.0556
     28 C         -11.4384  -16.5594   21.5244 C.ar    1  UNL1        0.1001
     29 N         -12.6814  -16.3548   22.3386 N.ar    1  UNL1       -0.2085
     30 C         -13.0133  -17.6534   23.0121 C.ar    1  UNL1        0.2849
     31 O         -11.9754  -18.6606   22.6141 O.2     1  UNL1       -0.4283
     32 C         -11.0021  -17.9844   21.6946 C.ar    1  UNL1        0.1964
@<TRIPOS>BOND
     1    27    28    1
     2    28    29   ar
     3    29    30   ar
     4    30    31   ar
     5    31    32   ar
     6    32    21    1
     7    21    22   ar
     8    22    23   ar
     9    23    24   ar
    10    24    20    1
    11    20    19    1
    12    19    18    1
    13    18     1    1
    14     1     2    1
    15     2     3    1
    16     4     3    1
    17     4     5    1
    18     5     6    1
    19     6     8    1
    20     8     9   ar
    21     9    10   ar
    22    10    11   ar
    23    11    14    1
    24    14    15    1
    25    14    16    1
    26    14    17    1
    27    11    12   ar
    28    12    13   ar
    29     4     7    1
    30    24    25   ar
    31    25    26    1
    32    32    28   ar
    33    25    21   ar
    34     7     1    1
    35     6     4    1
    36    13     8   ar
@<TRIPOS>MOLECULE
*****
 32 36 0 0 0
SMALL
GASTEIGER

@<TRIPOS>ATOM
      1 N          -3.3959  -17.6614   22.6579 N.3     1  UNL1       -0.2719
      2 C          -2.1466  -18.3227   22.1562 C.3     1  UNL1        0.0722
      3 C          -2.5491  -19.4320   21.2302 C.3     1  UNL1        0.0190
      4 C          -4.0473  -19.4562   21.1597 C.3     1  UNL1        0.0201
      5 C          -4.1407  -20.6109   20.2068 C.3     1  UNL1        0.0061
      6 C          -5.3901  -19.9496   20.7085 C.3     1  UNL1        0.0237
      7 C          -4.5707  -18.3619   22.0420 C.3     1  UNL1        0.0724
      8 C          -6.8866  -19.8526   20.7377 C.ar    1  UNL1       -0.0225
      9 C          -7.6252  -20.0382   22.0300 C.ar    1  UNL1       -0.0043
     10 C          -9.1218  -19.9412   22.0592 C.ar    1  UNL1        0.0035
     11 C          -9.8798  -19.6586   20.7960 C.ar    1  UNL1        0.0714
     12 C          -9.1412  -19.4729   19.5037 C.ar    1  UNL1        0.0035
     13 C          -7.6446  -19.5699   19.4745 C.ar    1  UNL1       -0.0043
     14 C         -11.3763  -19.5616   20.8252 C.3     1  UNL1        0.4186
     15 F         -12.8730  -19.4646   20.8544 F       1  UNL1       -0.1659
     16 F         -11.3306  -18.5287   19.7385 F       1  UNL1       -0.1659
     17 F         -11.4221  -20.5945   21.9120 F       1  UNL1       -0.1659
     18 C          -3.4595  -16.5029   23.6086 C.3     1  UNL1        0.0843
     19 C          -4.5506  -15.4822   23.4753 C.3     1  UNL1        0.0824
     20 S          -5.7985  -15.6064   24.2983 S.3     1  UNL1       -0.0742
     21 C          -9.3636  -16.7892   23.3204 C.ar    1  UNL1        0.2029
     22 N          -8.7856  -16.4671   21.9742 N.ar    1  UNL1       -0.1250
     23 N          -7.3798  -15.9848   22.1766 N.ar    1  UNL1       -0.1220
     24 C          -7.0889  -16.0088   23.6479 C.ar    1  UNL1        0.1933
     25 N          -8.3149  -16.5059   24.3548 N.ar    1  UNL1       -0.2859
     26 C          -8.4659  -16.6879   25.8361 C.3     1  UNL1        0.1341
     27 C         -12.0755  -15.9065   21.7340 C.3     1  UNL1        0.0556
     28 C         -11.9938  -16.8984   22.8564 C.ar    1  UNL1        0.1001
     29 N         -13.1443  -17.6587   23.4466 N.ar    1  UNL1       -0.2085
     30 C         -12.6087  -18.5342   24.5406 C.ar    1  UNL1        0.2849
     31 O         -11.1274  -18.3151   24.6264 O.2     1  UNL1       -0.4283
     32 C         -10.7473  -17.3041   23.5855 C.ar    1  UNL1        0.1964
@<TRIPOS>BOND
     1    27    28    1
     2    28    29   ar
     3    29    30   ar
     4    30    31   ar
     5    31    32   ar
     6    32    21    1
     7    21    22   ar
     8    22    23   ar
     9    23    24   ar
    10    24    20    1
    11    20    19    1
    12    19    18    1
    13    18     1    1
    14     1     2    1
    15     2     3    1
    16     4     3    1
    17     4     5    1
    18     5     6    1
    19     6     8    1
    20     8     9   ar
    21     9    10   ar
    22    10    11   ar
    23    11    14    1
    24    14    15    1
    25    14    16    1
    26    14    17    1
    27    11    12   ar
    28    12    13   ar
    29     4     7    1
    30    24    25   ar
    31    25    26    1
    32    32    28   ar
    33    25    21   ar
    34     7     1    1
    35     6     4    1
    36    13     8   ar
@<TRIPOS>MOLECULE
*****
 32 36 0 0 0
SMALL
GASTEIGER

@<TRIPOS>ATOM
      1 N          -3.6784  -17.3394   23.2913 N.3     1  UNL1       -0.2719
      2 C          -2.3322  -17.8665   22.8913 C.3     1  UNL1        0.0722
      3 C          -2.5424  -18.9575   21.8835 C.3     1  UNL1        0.0190
      4 C          -4.0184  -19.1047   21.6607 C.3     1  UNL1        0.0201
      5 C          -3.9155  -20.2133   20.6556 C.3     1  UNL1        0.0061
      6 C          -5.2616  -19.6863   21.0556 C.3     1  UNL1        0.0237
      7 C          -4.7205  -18.1047   22.5308 C.3     1  UNL1        0.0724
      8 C          -6.7566  -19.7177   20.9372 C.ar    1  UNL1       -0.0225
      9 C          -7.4040  -19.6306   19.5869 C.ar    1  UNL1       -0.0043
     10 C          -8.8990  -19.6620   19.4685 C.ar    1  UNL1        0.0035
     11 C          -9.7465  -19.7807   20.7004 C.ar    1  UNL1        0.0714
     12 C          -9.0991  -19.8678   22.0507 C.ar    1  UNL1        0.0035
     13 C          -7.6041  -19.8364   22.1691 C.ar    1  UNL1       -0.0043
     14 C         -11.2415  -19.8121   20.5820 C.3     1  UNL1        0.4186
     15 F         -12.7366  -19.8436   20.4635 F       1  UNL1       -0.1659
     16 F         -11.3322  -20.5027   21.9104 F       1  UNL1       -0.1659
     17 F         -11.1508  -19.1216   19.2535 F       1  UNL1       -0.1659
     18 C          -3.9371  -16.2402   24.2786 C.3     1  UNL1        0.0843
     19 C          -5.1375  -15.3552   24.1182 C.3     1  UNL1        0.0824
     20 S          -6.2948  -15.4822   25.0640 S.3     1  UNL1       -0.0742
     21 C          -9.5579  -16.3642   23.1562 C.ar    1  UNL1        0.2029
     22 N          -9.7612  -17.1130   24.4400 N.ar    1  UNL1       -0.1250
     23 N          -8.5636  -16.8737   25.3109 N.ar    1  UNL1       -0.1220
     24 C          -7.6201  -15.9771   24.5655 C.ar    1  UNL1        0.1933
     25 N          -8.2345  -15.6622   23.2338 N.ar    1  UNL1       -0.2859
     26 C          -7.6315  -14.7971   22.1670 C.3     1  UNL1        0.1341
     27 C         -12.6796  -17.3138   23.2072 C.3     1  UNL1        0.0556
     28 C         -11.9454  -16.7609   22.0216 C.ar    1  UNL1        0.1001
     29 N         -12.5173  -16.5474   20.6515 N.ar    1  UNL1       -0.2085
     30 C         -11.4357  -15.9790   19.7813 C.ar    1  UNL1        0.2849
     31 O         -10.1955  -15.8412   20.6136 O.2     1  UNL1       -0.4283
     32 C         -10.5105  -16.3244   21.9983 C.ar    1  UNL1        0.1964
@<TRIPOS>BOND
     1    27    28    1
     2    28    29   ar
     3    29    30   ar
     4    30    31   ar
     5    31    32   ar
     6    32    21    1
     7    21    22   ar
     8    22    23   ar
     9    23    24   ar
    10    24    20    1
    11    20    19    1
    12    19    18    1
    13    18     1    1
    14     1     2    1
    15     2     3    1
    16     4     3    1
    17     4     5    1
    18     5     6    1
    19     6     8    1
    20     8     9   ar
    21     9    10   ar
    22    10    11   ar
    23    11    14    1
    24    14    15    1
    25    14    16    1
    26    14    17    1
    27    11    12   ar
    28    12    13   ar
    29     4     7    1
    30    24    25   ar
    31    25    26    1
    32    32    28   ar
    33    25    21   ar
    34     7     1    1
    35     6     4    1
    36    13     8   ar
@<TRIPOS>MOLECULE
*****
 32 36 0 0 0
SMALL
GASTEIGER

@<TRIPOS>ATOM
      1 N           0.5048    1.9694   22.5214 N.3     1  UNL1       -0.2719
      2 C           0.6888    2.5813   23.8785 C.3     1  UNL1        0.0722
      3 C           1.7429    1.7965   24.6017 C.3     1  UNL1        0.0190
      4 C           2.2103    0.6996   23.6915 C.3     1  UNL1        0.0201
      5 C           3.2103    0.1187   24.6467 C.3     1  UNL1        0.0061
      6 C           3.0263   -0.4932   23.2896 C.3     1  UNL1        0.0237
      7 C           1.4451    0.8065   22.4058 C.3     1  UNL1        0.0724
      8 C           3.3911   -1.5350   22.2741 C.ar    1  UNL1       -0.0225
      9 C           4.2383   -2.7069   22.6729 C.ar    1  UNL1       -0.0043
     10 C           4.6032   -3.7488   21.6573 C.ar    1  UNL1        0.0035
     11 C           4.1208   -3.6188   20.2430 C.ar    1  UNL1        0.0714
     12 C           3.2737   -2.4469   19.8442 C.ar    1  UNL1        0.0035
     13 C           2.9088   -1.4050   20.8597 C.ar    1  UNL1       -0.0043
     14 C           4.4857   -4.6606   19.2274 C.3     1  UNL1        0.4186
     15 F           4.8505   -5.7026   18.2118 F       1  UNL1       -0.1659
     16 F           5.4977   -3.7267   18.6328 F       1  UNL1       -0.1659
     17 F           3.4737   -5.5946   19.8220 F       1  UNL1       -0.1659
     18 C          -0.4517    2.4382   21.4652 C.3     1  UNL1        0.0843
     19 C          -0.0763    3.5789   20.5664 C.3     1  UNL1        0.0824
     20 S           0.2000    3.3294   19.1133 S.3     1  UNL1       -0.0742
     21 C           3.3352    1.2166   18.2348 C.ar    1  UNL1        0.2029
     22 N           2.2353    0.2411   17.9367 N.ar    1  UNL1       -0.1250
     23 N           0.9270    0.9138   18.2296 N.ar    1  UNL1       -0.1220
     24 C           1.2182    2.3051   18.7086 C.ar    1  UNL1        0.1933
     25 N           2.7065    2.4922   18.7118 N.ar    1  UNL1       -0.2859
     26 C           3.4378    3.7366   19.1203 C.3     1  UNL1        0.1341
     27 C           5.5189    1.0785   20.6560 C.3     1  UNL1        0.0556
     28 C           5.8092    0.8978   19.1954 C.ar    1  UNL1        0.1001
     29 N           7.1542    0.6220   18.5913 N.ar    1  UNL1       -0.2085
     30 C           6.9816    0.5149   17.1051 C.ar    1  UNL1        0.2849
     31 O           5.5300    0.7247   16.7906 O.2     1  UNL1       -0.4283
     32 C           4.8054    0.9613   18.0825 C.ar    1  UNL1        0.1964
@<TRIPOS>BOND
     1    27    28    1
     2    28    29   ar
     3    29    30   ar
     4    30    31   ar
     5    31    32   ar
     6    32    21    1
     7    21    22   ar
     8    22    23   ar
     9    23    24   ar
    10    24    20    1
    11    20    19    1
    12    19    18    1
    13    18     1    1
    14     1     2    1
    15     2     3    1
    16     4     3    1
    17     4     5    1
    18     5     6    1
    19     6     8    1
    20     8     9   ar
    21     9    10   ar
    22    10    11   ar
    23    11    14    1
    24    14    15    1
    25    14    16    1
    26    14    17    1
    27    11    12   ar
    28    12    13   ar
    29     4     7    1
    30    24    25   ar
    31    25    26    1
    32    32    28   ar
    33    25    21   ar
    34     7     1    1
    35     6     4    1
    36    13     8   ar
@<TRIPOS>MOLECULE
*****
 32 36 0 0 0
SMALL
GASTEIGER

@<TRIPOS>ATOM
      1 N           4.0723    1.9157   19.2970 N.3     1  UNL1       -0.2719
      2 C           3.1120    1.5837   18.1935 C.3     1  UNL1        0.0722
      3 C           2.2296    0.4672   18.6674 C.3     1  UNL1        0.0190
      4 C           2.6444    0.1092   20.0637 C.3     1  UNL1        0.0201
      5 C           1.6309   -0.9801   20.2540 C.3     1  UNL1        0.0061
      6 C           2.5911   -0.6481   21.3575 C.3     1  UNL1        0.0237
      7 C           3.7833    1.0044   20.4528 C.3     1  UNL1        0.0724
      8 C           3.1148   -0.8936   22.7415 C.ar    1  UNL1       -0.0225
      9 C           4.1484   -1.9552   22.9749 C.ar    1  UNL1       -0.0043
     10 C           4.6721   -2.2007   24.3590 C.ar    1  UNL1        0.0035
     11 C           4.1621   -1.3845   25.5095 C.ar    1  UNL1        0.0714
     12 C           3.1285   -0.3229   25.2760 C.ar    1  UNL1        0.0035
     13 C           2.6048   -0.0774   23.8920 C.ar    1  UNL1       -0.0043
     14 C           4.6858   -1.6300   26.8935 C.3     1  UNL1        0.4186
     15 F           5.2095   -1.8755   28.2776 F       1  UNL1       -0.1659
     16 F           3.2824   -1.6381   27.4230 F       1  UNL1       -0.1659
     17 F           6.0891   -1.6219   26.3639 F       1  UNL1       -0.1659
     18 C           5.1350    2.9734   19.2524 C.3     1  UNL1        0.0843
     19 C           5.9578    3.1581   18.0119 C.3     1  UNL1        0.0824
     20 S           7.1562    2.2889   17.7703 S.3     1  UNL1       -0.0742
     21 C           7.0289   -1.4624   18.7589 C.ar    1  UNL1        0.2029
     22 N           6.6628   -1.5329   17.3059 N.ar    1  UNL1       -0.1250
     23 N           6.6659   -0.1363   16.7588 N.ar    1  UNL1       -0.1220
     24 C           7.0339    0.7975   17.8735 C.ar    1  UNL1        0.1933
     25 N           7.2583   -0.0221   19.1096 N.ar    1  UNL1       -0.2859
     26 C           7.6443    0.5059   20.4596 C.3     1  UNL1        0.1341
     27 C           4.6041   -3.4556   19.6515 C.3     1  UNL1        0.0556
     28 C           6.0306   -3.5437   20.1067 C.ar    1  UNL1        0.1001
     29 N           6.5931   -4.5634   21.0521 N.ar    1  UNL1       -0.2085
     30 C           8.0553   -4.2774   21.2261 C.ar    1  UNL1        0.2849
     31 O           8.3965   -3.0809   20.3882 O.2     1  UNL1       -0.4283
     32 C           7.1452   -2.6275   19.6964 C.ar    1  UNL1        0.1964
@<TRIPOS>BOND
     1    27    28    1
     2    28    29   ar
     3    29    30   ar
     4    30    31   ar
     5    31    32   ar
     6    32    21    1
     7    21    22   ar
     8    22    23   ar
     9    23    24   ar
    10    24    20    1
    11    20    19    1
    12    19    18    1
    13    18     1    1
    14     1     2    1
    15     2     3    1
    16     4     3    1
    17     4     5    1
    18     5     6    1
    19     6     8    1
    20     8     9   ar
    21     9    10   ar
    22    10    11   ar
    23    11    14    1
    24    14    15    1
    25    14    16    1
    26    14    17    1
    27    11    12   ar
    28    12    13   ar
    29     4     7    1
    30    24    25   ar
    31    25    26    1
    32    32    28   ar
    33    25    21   ar
    34     7     1    1
    35     6     4    1
    36    13     8   ar
@<TRIPOS>MOLECULE
*****
 32 36 0 0 0
SMALL
GASTEIGER

@<TRIPOS>ATOM
      1 N          -2.6437    4.1769   18.0480 N.3     1  UNL1       -0.2719
      2 C          -3.4302    3.8437   16.8149 C.3     1  UNL1        0.0722
      3 C          -4.8503    3.5895   17.2256 C.3     1  UNL1        0.0190
      4 C          -4.9416    3.7657   18.7124 C.3     1  UNL1        0.0201
      5 C          -6.4066    3.4614   18.8167 C.3     1  UNL1        0.0061
      6 C          -5.6202    3.7947   20.0498 C.3     1  UNL1        0.0237
      7 C          -3.5778    4.1288   19.2207 C.3     1  UNL1        0.0724
      8 C          -5.5580    4.0039   21.5338 C.ar    1  UNL1       -0.0225
      9 C          -6.1867    5.2200   22.1468 C.ar    1  UNL1       -0.0043
     10 C          -6.1245    5.4291   23.6309 C.ar    1  UNL1        0.0035
     11 C          -5.4335    4.4222   24.5018 C.ar    1  UNL1        0.0714
     12 C          -4.8048    3.2061   23.8888 C.ar    1  UNL1        0.0035
     13 C          -4.8670    2.9969   22.4048 C.ar    1  UNL1       -0.0043
     14 C          -5.3713    4.6314   25.9859 C.3     1  UNL1        0.4186
     15 F          -5.3091    4.8406   27.4700 F       1  UNL1       -0.1659
     16 F          -4.3248    3.5621   26.0927 F       1  UNL1       -0.1659
     17 F          -6.4178    5.7007   25.8790 F       1  UNL1       -0.1659
     18 C          -1.1802    4.5015   18.0994 C.3     1  UNL1        0.0843
     19 C          -0.1704    3.3973   18.2044 C.3     1  UNL1        0.0824
     20 S           0.2673    2.9067   19.5527 S.3     1  UNL1       -0.0742
     21 C           2.2345   -0.4388   19.6045 C.ar    1  UNL1        0.2029
     22 N           0.9633   -0.8393   20.2929 N.ar    1  UNL1       -0.1250
     23 N           0.0717    0.3652   20.3573 N.ar    1  UNL1       -0.1220
     24 C           0.7918    1.5101   19.7087 C.ar    1  UNL1        0.1933
     25 N           2.1284    1.0132   19.2435 N.ar    1  UNL1       -0.2859
     26 C           3.1753    1.8257   18.5406 C.3     1  UNL1        0.1341
     27 C           4.0036   -2.0330   21.8358 C.3     1  UNL1        0.0556
     28 C           4.2192   -2.0661   20.3517 C.ar    1  UNL1        0.1001
     29 N           5.2857   -2.8377   19.6327 N.ar    1  UNL1       -0.2085
     30 C           5.1317   -2.5818   18.1627 C.ar    1  UNL1        0.2849
     31 O           3.9700   -1.6521   17.9732 O.2     1  UNL1       -0.4283
     32 C           3.4060   -1.3333   19.3261 C.ar    1  UNL1        0.1964
@<TRIPOS>BOND
     1    27    28    1
     2    28    29   ar
     3    29    30   ar
     4    30    31   ar
     5    31    32   ar
     6    32    21    1
     7    21    22   ar
     8    22    23   ar
     9    23    24   ar
    10    24    20    1
    11    20    19    1
    12    19    18    1
    13    18     1    1
    14     1     2    1
    15     2     3    1
    16     4     3    1
    17     4     5    1
    18     5     6    1
    19     6     8    1
    20     8     9   ar
    21     9    10   ar
    22    10    11   ar
    23    11    14    1
    24    14    15    1
    25    14    16    1
    26    14    17    1
    27    11    12   ar
    28    12    13   ar
    29     4     7    1
    30    24    25   ar
    31    25    26    1
    32    32    28   ar
    33    25    21   ar
    34     7     1    1
    35     6     4    1
    36    13     8   ar
@<TRIPOS>MOLECULE
*****
 32 36 0 0 0
SMALL
GASTEIGER

@<TRIPOS>ATOM
      1 N           7.7444   -5.0794   22.8110 N.3     1  UNL1       -0.2719
      2 C           8.4549   -6.0766   21.9445 C.3     1  UNL1        0.0722
      3 C           9.0179   -7.1453   22.8338 C.3     1  UNL1        0.0190
      4 C           8.6555   -6.8087   24.2499 C.3     1  UNL1        0.0201
      5 C           9.3235   -7.9998   24.8702 C.3     1  UNL1        0.0061
      6 C           8.6131   -7.0026   25.7367 C.3     1  UNL1        0.0237
      7 C           7.8684   -5.5318   24.2358 C.3     1  UNL1        0.0724
      8 C           8.1785   -6.5389   27.0953 C.ar    1  UNL1       -0.0225
      9 C           6.9198   -5.7372   27.2471 C.ar    1  UNL1       -0.0043
     10 C           6.4851   -5.2734   28.6057 C.ar    1  UNL1        0.0035
     11 C           7.3092   -5.6114   29.8127 C.ar    1  UNL1        0.0714
     12 C           8.5679   -6.4131   29.6610 C.ar    1  UNL1        0.0035
     13 C           9.0025   -6.8769   28.3023 C.ar    1  UNL1       -0.0043
     14 C           6.8745   -5.1477   31.1713 C.3     1  UNL1        0.4186
     15 F           6.4398   -4.6838   32.5301 F       1  UNL1       -0.1659
     16 F           7.5644   -6.3251   31.7939 F       1  UNL1       -0.1659
     17 F           6.1846   -3.9702   30.5487 F       1  UNL1       -0.1659
     18 C           7.0346   -3.8463   22.3362 C.3     1  UNL1        0.0843
     19 C           7.0355   -3.4950   20.8779 C.3     1  UNL1        0.0824
     20 S           5.8410   -3.8144   20.0286 S.3     1  UNL1       -0.0742
     21 C           3.9030   -0.8553   18.4309 C.ar    1  UNL1        0.2029
     22 N           4.6658   -1.3745   17.2483 N.ar    1  UNL1       -0.1250
     23 N           5.4847   -2.5462   17.7028 N.ar    1  UNL1       -0.1220
     24 C           5.2279   -2.7511   19.1664 C.ar    1  UNL1        0.1933
     25 N           4.2505   -1.7061   19.6164 N.ar    1  UNL1       -0.2859
     26 C           3.7144   -1.5410   21.0076 C.3     1  UNL1        0.1341
     27 C           4.7456    2.2963   18.3445 C.3     1  UNL1        0.0556
     28 C           3.3459    1.7587   18.3888 C.ar    1  UNL1        0.1001
     29 N           2.0878    2.5754   18.4011 N.ar    1  UNL1       -0.2085
     30 C           0.9229    1.6315   18.4484 C.ar    1  UNL1        0.2849
     31 O           1.4611    0.2315   18.4653 O.2     1  UNL1       -0.4283
     32 C           2.9586    0.3101   18.4285 C.ar    1  UNL1        0.1964
@<TRIPOS>BOND
     1    27    28    1
     2    28    29   ar
     3    29    30   ar
     4    30    31   ar
     5    31    32   ar
     6    32    21    1
     7    21    22   ar
     8    22    23   ar
     9    23    24   ar
    10    24    20    1
    11    20    19    1
    12    19    18    1
    13    18     1    1
    14     1     2    1
    15     2     3    1
    16     4     3    1
    17     4     5    1
    18     5     6    1
    19     6     8    1
    20     8     9   ar
    21     9    10   ar
    22    10    11   ar
    23    11    14    1
    24    14    15    1
    25    14    16    1
    26    14    17    1
    27    11    12   ar
    28    12    13   ar
    29     4     7    1
    30    24    25   ar
    31    25    26    1
    32    32    28   ar
    33    25    21   ar
    34     7     1    1
    35     6     4    1
    36    13     8   ar
@<TRIPOS>MOLECULE
*****
 32 36 0 0 0
SMALL
GASTEIGER

@<TRIPOS>ATOM
      1 N          -3.8138  -18.2834   22.7933 N.3     1  UNL1       -0.2719
      2 C          -2.8576  -17.7242   23.8048 C.3     1  UNL1        0.0722
      3 C          -3.5763  -16.6641   24.5855 C.3     1  UNL1        0.0190
      4 C          -4.9767  -16.5681   24.0565 C.3     1  UNL1        0.0201
      5 C          -5.4221  -15.4805   24.9886 C.3     1  UNL1        0.0061
      6 C          -6.3783  -16.0396   23.9771 C.3     1  UNL1        0.0237
      7 C          -5.1234  -17.5688   22.9489 C.3     1  UNL1        0.0724
      8 C          -7.7395  -16.0573   23.3473 C.ar    1  UNL1       -0.0225
      9 C          -8.9281  -16.5100   24.1426 C.ar    1  UNL1       -0.0043
     10 C         -10.2893  -16.5277   23.5128 C.ar    1  UNL1        0.0035
     11 C         -10.4620  -16.0928   22.0876 C.ar    1  UNL1        0.0714
     12 C          -9.2734  -15.6402   21.2923 C.ar    1  UNL1        0.0035
     13 C          -7.9122  -15.6225   21.9221 C.ar    1  UNL1       -0.0043
     14 C         -11.8232  -16.1105   21.4578 C.3     1  UNL1        0.4186
     15 F         -13.1845  -16.1283   20.8279 F       1  UNL1       -0.1659
     16 F         -11.2103  -16.4958   20.1440 F       1  UNL1       -0.1659
     17 F         -12.4361  -15.7252   22.7715 F       1  UNL1       -0.1659
     18 C          -3.5131  -19.3668   21.8005 C.3     1  UNL1        0.0843
     19 C          -3.8537  -19.1729   20.3526 C.3     1  UNL1        0.0824
     20 S          -5.0023  -19.9226   19.7453 S.3     1  UNL1       -0.0742
     21 C          -8.4381  -19.5673   21.5156 C.ar    1  UNL1        0.2029
     22 N          -8.6902  -18.8186   20.2404 N.ar    1  UNL1       -0.1250
     23 N          -7.4338  -18.8605   19.4221 N.ar    1  UNL1       -0.1220
     24 C          -6.4052  -19.6352   20.1914 C.ar    1  UNL1        0.1933
     25 N          -7.0259  -20.0719   21.4852 N.ar    1  UNL1       -0.2859
     26 C          -6.3525  -20.8728   22.5601 C.3     1  UNL1        0.1341
     27 C         -11.6854  -19.6561   21.2043 C.3     1  UNL1        0.0556
     28 C         -10.9175  -19.8156   22.4830 C.ar    1  UNL1        0.1001
     29 N         -11.5075  -20.0440   23.8431 N.ar    1  UNL1       -0.2085
     30 C         -10.3794  -20.1443   24.8267 C.ar    1  UNL1        0.2849
     31 O          -9.0923  -19.9779   24.0746 O.2     1  UNL1       -0.4283
     32 C          -9.4249  -19.7748   22.6261 C.ar    1  UNL1        0.1964
@<TRIPOS>BOND
     1    27    28    1
     2    28    29   ar
     3    29    30   ar
     4    30    31   ar
     5    31    32   ar
     6    32    21    1
     7    21    22   ar
     8    22    23   ar
     9    23    24   ar
    10    24    20    1
    11    20    19    1
    12    19    18    1
    13    18     1    1
    14     1     2    1
    15     2     3    1
    16     4     3    1
    17     4     5    1
    18     5     6    1
    19     6     8    1
    20     8     9   ar
    21     9    10   ar
    22    10    11   ar
    23    11    14    1
    24    14    15    1
    25    14    16    1
    26    14    17    1
    27    11    12   ar
    28    12    13   ar
    29     4     7    1
    30    24    25   ar
    31    25    26    1
    32    32    28   ar
    33    25    21   ar
    34     7     1    1
    35     6     4    1
    36    13     8   ar
