@<TRIPOS>MOLECULE
*****
 37 41 0 0 0
SMALL
GASTEIGER

@<TRIPOS>ATOM
      1 C           6.6653   -3.9504   26.1703 C.3     1  UNL1        0.0933
      2 C           6.7967   -2.7979   27.1215 C.3     1  UNL1        0.0442
      3 C           6.8706   -3.0492   28.5985 C.3     1  UNL1        0.0953
      4 N           6.8132   -4.4528   29.1242 N.am    1  UNL1       -0.2794
      5 C           6.8871   -4.7041   30.6012 C.2     1  UNL1        0.2252
      6 O           6.8296   -6.1077   31.1270 O.2     1  UNL1       -0.2749
      7 C           6.6818   -5.6052   28.1731 C.3     1  UNL1        0.0953
      8 C           6.6079   -5.3539   26.6961 C.3     1  UNL1        0.0442
      9 N           5.9399   -2.8023   22.5342 N.ar    1  UNL1       -0.2773
     10 C           5.6777   -2.7260   24.0092 C.ar    1  UNL1        0.3316
     11 O           4.6775   -1.8332   24.6818 O.2     1  UNL1       -0.2463
     12 N           6.5914   -3.6991   24.6933 N.ar    1  UNL1       -0.2817
     13 C           7.4183   -4.3769   23.6412 C.ar    1  UNL1        0.0796
     14 C           8.4858   -5.4272   23.7259 C.ar    1  UNL1        0.0188
     15 C           9.1507   -5.9232   22.4762 C.ar    1  UNL1        0.0016
     16 C           8.7480   -5.3690   21.1418 C.ar    1  UNL1        0.0016
     17 C           7.6805   -4.3187   21.0571 C.ar    1  UNL1        0.0188
     18 C           7.0156   -3.8227   22.3068 C.ar    1  UNL1        0.0798
     19 C           5.2478   -1.9993   21.4730 C.3     1  UNL1        0.1425
     20 C           3.8298   -2.3145   21.0991 C.3     1  UNL1        0.1666
     21 O           3.5060   -2.7799   19.7103 O.3     1  UNL1       -0.3542
     22 C           5.5485   -2.7534   18.1049 C.3     1  UNL1        0.0320
     23 C           4.5364   -3.5166   18.9069 C.3     1  UNL1        0.1155
     24 C           4.5548   -5.0164   18.9054 C.3     1  UNL1        0.0320
     25 C           7.0185   -3.5517   31.5523 C.3     1  UNL1        0.0795
     26 C           5.7902   -2.8845   32.0964 C.3     1  UNL1        0.0264
     27 C           5.9216   -1.7319   33.0476 C.3     1  UNL1        0.0729
     28 N           7.2814   -1.2467   33.4545 N.3     1  UNL1       -0.2689
     29 C           8.5097   -1.9140   32.9104 C.3     1  UNL1        0.0729
     30 C           8.3782   -3.0664   31.9593 C.3     1  UNL1        0.0264
     31 C           7.4128   -0.0943   34.4056 C.3     1  UNL1        0.0992
     32 C           6.1974    0.4523   35.0941 C.ar    1  UNL1       -0.0031
     33 C           5.7253   -0.1589   36.3800 C.ar    1  UNL1        0.0178
     34 C           4.5099    0.3877   37.0685 C.ar    1  UNL1        0.0986
     35 N           3.7666    1.5456   36.4711 N.ar    1  UNL1       -0.2423
     36 C           4.2388    2.1568   35.1852 C.ar    1  UNL1        0.0986
     37 C           5.4542    1.6102   34.4967 C.ar    1  UNL1        0.0178
@<TRIPOS>BOND
     1    22    23    1
     2    23    24    1
     3    23    21    1
     4    21    20    1
     5    20    19    1
     6    19     9    1
     7     9    10   ar
     8    10    11    2
     9    10    12   ar
    10    12     1    1
    11     1     2    1
    12     2     3    1
    13     3     4    1
    14     4     5   am
    15     5     6    2
    16     5    25    1
    17    25    26    1
    18    26    27    1
    19    27    28    1
    20    28    31    1
    21    31    32    1
    22    32    33   ar
    23    33    34   ar
    24    34    35   ar
    25    35    36   ar
    26    36    37   ar
    27    28    29    1
    28    29    30    1
    29     4     7    1
    30     7     8    1
    31    12    13   ar
    32    13    14   ar
    33    14    15   ar
    34    15    16   ar
    35    16    17   ar
    36    17    18   ar
    37    18     9   ar
    38     8     1    1
    39    18    13   ar
    40    30    25    1
    41    37    32   ar
@<TRIPOS>MOLECULE
*****
 37 41 0 0 0
SMALL
GASTEIGER

@<TRIPOS>ATOM
      1 C           1.7027    0.8560   19.7111 C.3     1  UNL1        0.0933
      2 C           0.5754    0.9380   20.6973 C.3     1  UNL1        0.0442
      3 C          -0.4572    2.0183   20.5678 C.3     1  UNL1        0.0953
      4 N          -0.3625    3.0166   19.4523 N.am    1  UNL1       -0.2794
      5 C          -1.3951    4.0969   19.3228 C.2     1  UNL1        0.2252
      6 O          -1.3004    5.0952   18.2073 O.2     1  UNL1       -0.2749
      7 C           0.7648    2.9346   18.4661 C.3     1  UNL1        0.0953
      8 C           1.7974    1.8543   18.5956 C.3     1  UNL1        0.0442
      9 N           4.3926   -1.9108   19.2932 N.ar    1  UNL1       -0.2773
     10 C           3.4528   -0.8983   18.7087 C.ar    1  UNL1        0.3316
     11 O           3.2636   -0.6105   17.2488 O.2     1  UNL1       -0.2463
     12 N           2.7353   -0.2243   19.8405 N.ar    1  UNL1       -0.2817
     13 C           3.2317   -0.8201   21.1245 C.ar    1  UNL1        0.0796
     14 C           2.8834   -0.5483   22.5579 C.ar    1  UNL1        0.0188
     15 C           3.5593   -1.3187   23.6530 C.ar    1  UNL1        0.0016
     16 C           4.5836   -2.3611   23.3148 C.ar    1  UNL1        0.0016
     17 C           4.9319   -2.6330   21.8814 C.ar    1  UNL1        0.0188
     18 C           4.2560   -1.8625   20.7862 C.ar    1  UNL1        0.0798
     19 C           5.3083   -2.8132   18.5204 C.3     1  UNL1        0.1425
     20 C           6.6324   -2.3015   18.0361 C.3     1  UNL1        0.1666
     21 O           6.6856   -1.1583   17.0664 O.3     1  UNL1       -0.3542
     22 C           7.3594    1.2997   16.5622 C.3     1  UNL1        0.0320
     23 C           7.0295    0.2195   17.5493 C.3     1  UNL1        0.1155
     24 C           7.0435    0.5172   19.0194 C.3     1  UNL1        0.0320
     25 C          -2.5223    4.1788   20.3090 C.3     1  UNL1        0.0795
     26 C          -3.6804    3.2312   20.2049 C.3     1  UNL1        0.0264
     27 C          -4.8077    3.3132   21.1912 C.3     1  UNL1        0.0729
     28 N          -4.7769    4.3429   22.2815 N.3     1  UNL1       -0.2689
     29 C          -3.6188    5.2905   22.3856 C.3     1  UNL1        0.0729
     30 C          -2.4916    5.2085   21.3994 C.3     1  UNL1        0.0264
     31 C          -5.9041    4.4248   23.2676 C.3     1  UNL1        0.0992
     32 C          -5.6148    4.6705   24.7188 C.ar    1  UNL1       -0.0031
     33 C          -4.5532    3.8735   25.4173 C.ar    1  UNL1        0.0178
     34 C          -4.2639    4.1191   26.8685 C.ar    1  UNL1        0.0986
     35 N          -5.0361    5.1618   27.6212 N.ar    1  UNL1       -0.2423
     36 C          -6.0976    5.9588   26.9226 C.ar    1  UNL1        0.0986
     37 C          -6.3870    5.7132   25.4715 C.ar    1  UNL1        0.0178
@<TRIPOS>BOND
     1    22    23    1
     2    23    24    1
     3    23    21    1
     4    21    20    1
     5    20    19    1
     6    19     9    1
     7     9    10   ar
     8    10    11    2
     9    10    12   ar
    10    12     1    1
    11     1     2    1
    12     2     3    1
    13     3     4    1
    14     4     5   am
    15     5     6    2
    16     5    25    1
    17    25    26    1
    18    26    27    1
    19    27    28    1
    20    28    31    1
    21    31    32    1
    22    32    33   ar
    23    33    34   ar
    24    34    35   ar
    25    35    36   ar
    26    36    37   ar
    27    28    29    1
    28    29    30    1
    29     4     7    1
    30     7     8    1
    31    12    13   ar
    32    13    14   ar
    33    14    15   ar
    34    15    16   ar
    35    16    17   ar
    36    17    18   ar
    37    18     9   ar
    38     8     1    1
    39    18    13   ar
    40    30    25    1
    41    37    32   ar
@<TRIPOS>MOLECULE
*****
 37 41 0 0 0
SMALL
GASTEIGER

@<TRIPOS>ATOM
      1 C           7.0460   -4.5298   27.4350 C.3     1  UNL1        0.0933
      2 C           6.9078   -3.1756   28.0652 C.3     1  UNL1        0.0442
      3 C           6.7300   -3.0538   29.5497 C.3     1  UNL1        0.0953
      4 N           6.6903   -4.2861   30.4039 N.am    1  UNL1       -0.2794
      5 C           6.5125   -4.1643   31.8884 C.2     1  UNL1        0.2252
      6 O           6.4728   -5.3966   32.7426 O.2     1  UNL1       -0.2749
      7 C           6.8285   -5.6403   29.7738 C.3     1  UNL1        0.0953
      8 C           7.0063   -5.7621   28.2893 C.3     1  UNL1        0.0442
      9 N           7.0690   -4.2320   23.5652 N.ar    1  UNL1       -0.2773
     10 C           6.6350   -3.7409   24.9144 C.ar    1  UNL1        0.3316
     11 O           5.7650   -2.5483   25.1807 O.2     1  UNL1       -0.2463
     12 N           7.2239   -4.6517   25.9506 N.ar    1  UNL1       -0.2817
     13 C           8.0217   -5.7057   25.2418 C.ar    1  UNL1        0.0796
     14 C           8.8230   -6.8681   25.7484 C.ar    1  UNL1        0.0188
     15 C           9.5286   -7.7712   24.7807 C.ar    1  UNL1        0.0016
     16 C           9.4330   -7.5118   23.3064 C.ar    1  UNL1        0.0016
     17 C           8.6317   -6.3494   22.7998 C.ar    1  UNL1        0.0188
     18 C           7.9261   -5.4464   23.7675 C.ar    1  UNL1        0.0798
     19 C           6.7092   -3.6169   22.2453 C.3     1  UNL1        0.1425
     20 C           5.2683   -3.4290   21.8733 C.3     1  UNL1        0.1666
     21 O           4.5326   -4.5173   21.1493 O.3     1  UNL1       -0.3542
     22 C           3.2967   -3.1389   19.3265 C.3     1  UNL1        0.0320
     23 C           4.1274   -4.3249   19.7179 C.3     1  UNL1        0.1155
     24 C           4.5530   -5.3185   18.6779 C.3     1  UNL1        0.0320
     25 C           6.3743   -2.8101   32.5185 C.3     1  UNL1        0.0795
     26 C           7.5977   -2.0032   32.8380 C.3     1  UNL1        0.0264
     27 C           7.4595   -0.6489   33.4682 C.3     1  UNL1        0.0729
     28 N           6.0978   -0.1016   33.7787 N.3     1  UNL1       -0.2689
     29 C           4.8744   -0.9086   33.4591 C.3     1  UNL1        0.0729
     30 C           5.0127   -2.2627   32.8290 C.3     1  UNL1        0.0264
     31 C           5.9596    1.2526   34.4088 C.3     1  UNL1        0.0992
     32 C           4.7423    1.5811   35.2213 C.ar    1  UNL1       -0.0031
     33 C           4.5437    0.9454   36.5653 C.ar    1  UNL1        0.0178
     34 C           3.3264    1.2740   37.3778 C.ar    1  UNL1        0.0986
     35 N           2.3077    2.2382   36.8463 N.ar    1  UNL1       -0.2423
     36 C           2.5064    2.8739   35.5023 C.ar    1  UNL1        0.0986
     37 C           3.7237    2.5454   34.6898 C.ar    1  UNL1        0.0178
@<TRIPOS>BOND
     1    22    23    1
     2    23    24    1
     3    23    21    1
     4    21    20    1
     5    20    19    1
     6    19     9    1
     7     9    10   ar
     8    10    11    2
     9    10    12   ar
    10    12     1    1
    11     1     2    1
    12     2     3    1
    13     3     4    1
    14     4     5   am
    15     5     6    2
    16     5    25    1
    17    25    26    1
    18    26    27    1
    19    27    28    1
    20    28    31    1
    21    31    32    1
    22    32    33   ar
    23    33    34   ar
    24    34    35   ar
    25    35    36   ar
    26    36    37   ar
    27    28    29    1
    28    29    30    1
    29     4     7    1
    30     7     8    1
    31    12    13   ar
    32    13    14   ar
    33    14    15   ar
    34    15    16   ar
    35    16    17   ar
    36    17    18   ar
    37    18     9   ar
    38     8     1    1
    39    18    13   ar
    40    30    25    1
    41    37    32   ar
@<TRIPOS>MOLECULE
*****
 37 41 0 0 0
SMALL
GASTEIGER

@<TRIPOS>ATOM
      1 C         -14.5820   -2.9473   18.7380 C.3     1  UNL1        0.0933
      2 C         -14.7519   -2.2225   20.0403 C.3     1  UNL1        0.0442
      3 C         -15.3601   -0.8515   20.0618 C.3     1  UNL1        0.0953
      4 N         -15.7984   -0.2052   18.7811 N.am    1  UNL1       -0.2794
      5 C         -16.4066    1.1658   18.8026 C.2     1  UNL1        0.2252
      6 O         -16.8449    1.8120   17.5219 O.2     1  UNL1       -0.2749
      7 C         -15.6285   -0.9300   17.4788 C.3     1  UNL1        0.0953
      8 C         -15.0202   -2.3010   17.4573 C.3     1  UNL1        0.0442
      9 N         -13.7227   -6.7312   18.6467 N.ar    1  UNL1       -0.2773
     10 C         -14.7245   -5.6148   18.6445 C.ar    1  UNL1        0.3316
     11 O         -16.2154   -5.7681   18.5814 O.2     1  UNL1       -0.2463
     12 N         -13.9738   -4.3183   18.7164 N.ar    1  UNL1       -0.2817
     13 C         -12.5079   -4.6333   18.7631 C.ar    1  UNL1        0.0796
     14 C         -11.2945   -3.7549   18.8393 C.ar    1  UNL1        0.0188
     15 C          -9.9259   -4.3678   18.8723 C.ar    1  UNL1        0.0016
     16 C          -9.7707   -5.8592   18.8292 C.ar    1  UNL1        0.0016
     17 C         -10.9842   -6.7376   18.7531 C.ar    1  UNL1        0.0188
     18 C         -12.3528   -6.1246   18.7200 C.ar    1  UNL1        0.0798
     19 C         -14.0358   -8.1970   18.5862 C.3     1  UNL1        0.1425
     20 C         -14.8378   -8.7461   17.4438 C.3     1  UNL1        0.1666
     21 O         -16.3302   -8.8480   17.5557 O.3     1  UNL1       -0.3542
     22 C         -17.4868   -8.8183   19.8819 C.3     1  UNL1        0.0320
     23 C         -16.9475   -9.5820   18.7089 C.3     1  UNL1        0.1155
     24 C         -17.0256  -11.0798   18.6893 C.3     1  UNL1        0.0320
     25 C         -16.5765    1.8904   20.1048 C.3     1  UNL1        0.0795
     26 C         -15.8407    3.1742   20.3504 C.3     1  UNL1        0.0264
     27 C         -16.0106    3.8989   21.6528 C.3     1  UNL1        0.0729
     28 N         -16.9165    3.3397   22.7096 N.3     1  UNL1       -0.2689
     29 C         -17.6523    2.0559   22.4640 C.3     1  UNL1        0.0729
     30 C         -17.4823    1.3313   21.1617 C.3     1  UNL1        0.0264
     31 C         -17.0864    4.0643   24.0118 C.3     1  UNL1        0.0992
     32 C         -15.9976    4.9639   24.5172 C.ar    1  UNL1       -0.0031
     33 C         -14.7808    4.3760   25.1682 C.ar    1  UNL1        0.0178
     34 C         -13.6920    5.2755   25.6736 C.ar    1  UNL1        0.0986
     35 N         -13.8201    6.7629   25.5281 N.ar    1  UNL1       -0.2423
     36 C         -15.0370    7.3508   24.8772 C.ar    1  UNL1        0.0986
     37 C         -16.1257    6.4513   24.3717 C.ar    1  UNL1        0.0178
@<TRIPOS>BOND
     1    22    23    1
     2    23    24    1
     3    23    21    1
     4    21    20    1
     5    20    19    1
     6    19     9    1
     7     9    10   ar
     8    10    11    2
     9    10    12   ar
    10    12     1    1
    11     1     2    1
    12     2     3    1
    13     3     4    1
    14     4     5   am
    15     5     6    2
    16     5    25    1
    17    25    26    1
    18    26    27    1
    19    27    28    1
    20    28    31    1
    21    31    32    1
    22    32    33   ar
    23    33    34   ar
    24    34    35   ar
    25    35    36   ar
    26    36    37   ar
    27    28    29    1
    28    29    30    1
    29     4     7    1
    30     7     8    1
    31    12    13   ar
    32    13    14   ar
    33    14    15   ar
    34    15    16   ar
    35    16    17   ar
    36    17    18   ar
    37    18     9   ar
    38     8     1    1
    39    18    13   ar
    40    30    25    1
    41    37    32   ar
@<TRIPOS>MOLECULE
*****
 37 41 0 0 0
SMALL
GASTEIGER

@<TRIPOS>ATOM
      1 C           6.4159   -3.0625   26.8686 C.3     1  UNL1        0.0933
      2 C           6.3624   -1.9339   27.8552 C.3     1  UNL1        0.0442
      3 C           6.4386   -2.2191   29.3259 C.3     1  UNL1        0.0953
      4 N           6.5684   -3.6329   29.8099 N.am    1  UNL1       -0.2794
      5 C           6.6446   -3.9181   31.2806 C.2     1  UNL1        0.2252
      6 O           6.7744   -5.3319   31.7647 O.2     1  UNL1       -0.2749
      7 C           6.6219   -4.7615   28.8233 C.3     1  UNL1        0.0953
      8 C           6.5456   -4.4763   27.3527 C.3     1  UNL1        0.0442
      9 N           6.8716   -2.6991   23.0312 N.ar    1  UNL1       -0.2773
     10 C           7.3455   -3.1933   24.3658 C.ar    1  UNL1        0.3316
     11 O           8.6042   -3.9676   24.6231 O.2     1  UNL1       -0.2463
     12 N           6.3397   -2.7773   25.3979 N.ar    1  UNL1       -0.2817
     13 C           5.2441   -2.0260   24.7012 C.ar    1  UNL1        0.0796
     14 C           3.9897   -1.3797   25.2097 C.ar    1  UNL1        0.0188
     15 C           3.0641   -0.6850   24.2555 C.ar    1  UNL1        0.0016
     16 C           3.3929   -0.6367   22.7928 C.ar    1  UNL1        0.0016
     17 C           4.6473   -1.2830   22.2843 C.ar    1  UNL1        0.0188
     18 C           5.5729   -1.9777   23.2385 C.ar    1  UNL1        0.0798
     19 C           7.5733   -2.8924   21.7196 C.3     1  UNL1        0.1425
     20 C           7.1682   -4.0145   20.8105 C.3     1  UNL1        0.1666
     21 O           5.7317   -4.4405   20.7388 O.3     1  UNL1       -0.3542
     22 C           5.4239   -3.1636   18.4971 C.3     1  UNL1        0.0320
     23 C           4.9254   -4.1547   19.5067 C.3     1  UNL1        0.1155
     24 C           3.6204   -4.8601   19.2840 C.3     1  UNL1        0.0320
     25 C           6.5911   -2.7895   32.2671 C.3     1  UNL1        0.0795
     26 C           7.8386   -2.0277   32.6037 C.3     1  UNL1        0.0264
     27 C           7.7851   -0.8990   33.5903 C.3     1  UNL1        0.0729
     28 N           6.4839   -0.5322   34.2403 N.3     1  UNL1       -0.2689
     29 C           5.2364   -1.2940   33.9038 C.3     1  UNL1        0.0729
     30 C           5.2900   -2.4227   32.9172 C.3     1  UNL1        0.0264
     31 C           6.4304    0.5964   35.2268 C.3     1  UNL1        0.0992
     32 C           5.1157    1.0191   35.8124 C.ar    1  UNL1       -0.0031
     33 C           4.2055    1.9244   35.0364 C.ar    1  UNL1        0.0178
     34 C           2.8908    2.3471   35.6220 C.ar    1  UNL1        0.0986
     35 N           2.4863    1.8646   36.9834 N.ar    1  UNL1       -0.2423
     36 C           3.3965    0.9593   37.7593 C.ar    1  UNL1        0.0986
     37 C           4.7112    0.5366   37.1738 C.ar    1  UNL1        0.0178
@<TRIPOS>BOND
     1    22    23    1
     2    23    24    1
     3    23    21    1
     4    21    20    1
     5    20    19    1
     6    19     9    1
     7     9    10   ar
     8    10    11    2
     9    10    12   ar
    10    12     1    1
    11     1     2    1
    12     2     3    1
    13     3     4    1
    14     4     5   am
    15     5     6    2
    16     5    25    1
    17    25    26    1
    18    26    27    1
    19    27    28    1
    20    28    31    1
    21    31    32    1
    22    32    33   ar
    23    33    34   ar
    24    34    35   ar
    25    35    36   ar
    26    36    37   ar
    27    28    29    1
    28    29    30    1
    29     4     7    1
    30     7     8    1
    31    12    13   ar
    32    13    14   ar
    33    14    15   ar
    34    15    16   ar
    35    16    17   ar
    36    17    18   ar
    37    18     9   ar
    38     8     1    1
    39    18    13   ar
    40    30    25    1
    41    37    32   ar
@<TRIPOS>MOLECULE
*****
 37 41 0 0 0
SMALL
GASTEIGER

@<TRIPOS>ATOM
      1 C           8.0817   -3.9476   24.4159 C.3     1  UNL1        0.0933
      2 C           6.8487   -3.3230   23.8329 C.3     1  UNL1        0.0442
      3 C           6.8375   -2.8822   22.3992 C.3     1  UNL1        0.0953
      4 N           8.0591   -3.0660   21.5484 N.am    1  UNL1       -0.2794
      5 C           8.0478   -2.6252   20.1146 C.2     1  UNL1        0.2252
      6 O           9.2694   -2.8090   19.2639 O.2     1  UNL1       -0.2749
      7 C           9.2920   -3.6906   22.1313 C.3     1  UNL1        0.0953
      8 C           9.3032   -4.1314   23.5651 C.3     1  UNL1        0.0442
      9 N           8.0177   -4.3555   28.2752 N.ar    1  UNL1       -0.2773
     10 C           7.9496   -3.4967   27.0473 C.ar    1  UNL1        0.3316
     11 O           7.7698   -2.0078   27.0215 O.2     1  UNL1       -0.2463
     12 N           8.0930   -4.3884   25.8496 N.ar    1  UNL1       -0.2817
     13 C           8.2496   -5.7982   26.3374 C.ar    1  UNL1        0.0796
     14 C           8.4286   -7.0978   25.6101 C.ar    1  UNL1        0.0188
     15 C           8.5610   -8.3771   26.3820 C.ar    1  UNL1        0.0016
     16 C           8.5145   -8.3568   27.8811 C.ar    1  UNL1        0.0016
     17 C           8.3355   -7.0572   28.6084 C.ar    1  UNL1        0.0188
     18 C           8.2030   -5.7779   27.8365 C.ar    1  UNL1        0.0798
     19 C           7.9178   -3.8761   29.6931 C.3     1  UNL1        0.1425
     20 C           6.7576   -4.2948   30.5465 C.3     1  UNL1        0.1666
     21 O           6.5492   -3.6637   31.8912 O.3     1  UNL1       -0.3542
     22 C           5.4879   -1.4477   31.0468 C.3     1  UNL1        0.0320
     23 C           5.5489   -2.5578   32.0537 C.3     1  UNL1        0.1155
     24 C           4.6096   -2.5620   33.2232 C.3     1  UNL1        0.0320
     25 C           6.8149   -2.0007   19.5318 C.3     1  UNL1        0.0795
     26 C           6.5766   -0.5276   19.6841 C.3     1  UNL1        0.0264
     27 C           5.3435    0.0970   19.1012 C.3     1  UNL1        0.0729
     28 N           4.3489   -0.7516   18.3660 N.3     1  UNL1       -0.2689
     29 C           4.5872   -2.2247   18.2136 C.3     1  UNL1        0.0729
     30 C           5.8201   -2.8492   18.7965 C.3     1  UNL1        0.0264
     31 C           3.1160   -0.1270   17.7831 C.3     1  UNL1        0.0992
     32 C           2.0123    0.3383   18.6861 C.ar    1  UNL1       -0.0031
     33 C           1.5462   -0.5355   19.8126 C.ar    1  UNL1        0.0178
     34 C           0.4425   -0.0701   20.7156 C.ar    1  UNL1        0.0986
     35 N          -0.1950    1.2691   20.4920 N.ar    1  UNL1       -0.2423
     36 C           0.2712    2.1430   19.3655 C.ar    1  UNL1        0.0986
     37 C           1.3748    1.6776   18.4625 C.ar    1  UNL1        0.0178
@<TRIPOS>BOND
     1    22    23    1
     2    23    24    1
     3    23    21    1
     4    21    20    1
     5    20    19    1
     6    19     9    1
     7     9    10   ar
     8    10    11    2
     9    10    12   ar
    10    12     1    1
    11     1     2    1
    12     2     3    1
    13     3     4    1
    14     4     5   am
    15     5     6    2
    16     5    25    1
    17    25    26    1
    18    26    27    1
    19    27    28    1
    20    28    31    1
    21    31    32    1
    22    32    33   ar
    23    33    34   ar
    24    34    35   ar
    25    35    36   ar
    26    36    37   ar
    27    28    29    1
    28    29    30    1
    29     4     7    1
    30     7     8    1
    31    12    13   ar
    32    13    14   ar
    33    14    15   ar
    34    15    16   ar
    35    16    17   ar
    36    17    18   ar
    37    18     9   ar
    38     8     1    1
    39    18    13   ar
    40    30    25    1
    41    37    32   ar
@<TRIPOS>MOLECULE
*****
 37 41 0 0 0
SMALL
GASTEIGER

@<TRIPOS>ATOM
      1 C           5.2288   -1.8503   26.9222 C.3     1  UNL1        0.0933
      2 C           5.9726   -1.7852   28.2233 C.3     1  UNL1        0.0442
      3 C           5.2800   -1.2926   29.4593 C.3     1  UNL1        0.0953
      4 N           3.8437   -0.8652   29.3944 N.am    1  UNL1       -0.2794
      5 C           3.1512   -0.3726   30.6304 C.2     1  UNL1        0.2252
      6 O           1.7148    0.0549   30.5654 O.2     1  UNL1       -0.2749
      7 C           3.1000   -0.9303   28.0934 C.3     1  UNL1        0.0953
      8 C           3.7925   -1.4229   26.8574 C.3     1  UNL1        0.0442
      9 N           6.8477   -2.4465   23.4454 N.ar    1  UNL1       -0.2773
     10 C           6.1029   -1.5736   24.4114 C.ar    1  UNL1        0.3316
     11 O           5.6238   -0.1767   24.1487 O.2     1  UNL1       -0.2463
     12 N           5.9213   -2.3429   25.6862 N.ar    1  UNL1       -0.2817
     13 C           6.5539   -3.6913   25.5081 C.ar    1  UNL1        0.0796
     14 C           6.6826   -4.8690   26.4281 C.ar    1  UNL1        0.0188
     15 C           7.3838   -6.1108   25.9631 C.ar    1  UNL1        0.0016
     16 C           7.9563   -6.1748   24.5781 C.ar    1  UNL1        0.0016
     17 C           7.8276   -4.9971   23.6581 C.ar    1  UNL1        0.0188
     18 C           7.1265   -3.7553   24.1231 C.ar    1  UNL1        0.0798
     19 C           7.2442   -2.0758   22.0470 C.3     1  UNL1        0.1425
     20 C           6.2081   -2.0187   20.9639 C.3     1  UNL1        0.1666
     21 O           5.1691   -3.0958   20.8621 O.3     1  UNL1       -0.3542
     22 C           5.3243   -3.0089   18.2701 C.3     1  UNL1        0.0320
     23 C           4.7770   -3.6351   19.5185 C.3     1  UNL1        0.1155
     24 C           3.8377   -4.8007   19.4231 C.3     1  UNL1        0.0320
     25 C           3.8950   -0.3075   31.9313 C.3     1  UNL1        0.0795
     26 C           4.0694   -1.5466   32.7584 C.3     1  UNL1        0.0264
     27 C           4.8133   -1.4814   34.0594 C.3     1  UNL1        0.0729
     28 N           5.3828   -0.1771   34.5332 N.3     1  UNL1       -0.2689
     29 C           5.2084    1.0620   33.7061 C.3     1  UNL1        0.0729
     30 C           4.4645    0.9968   32.4052 C.3     1  UNL1        0.0264
     31 C           6.1266   -0.1120   35.8341 C.3     1  UNL1        0.0992
     32 C           5.5697    0.6831   36.9776 C.ar    1  UNL1       -0.0031
     33 C           4.1343    0.5147   37.3794 C.ar    1  UNL1        0.0178
     34 C           3.5774    1.3099   38.5229 C.ar    1  UNL1        0.0986
     35 N           4.4558    2.2733   39.2646 N.ar    1  UNL1       -0.2423
     36 C           5.8911    2.4417   38.8628 C.ar    1  UNL1        0.0986
     37 C           6.4481    1.6466   37.7193 C.ar    1  UNL1        0.0178
@<TRIPOS>BOND
     1    22    23    1
     2    23    24    1
     3    23    21    1
     4    21    20    1
     5    20    19    1
     6    19     9    1
     7     9    10   ar
     8    10    11    2
     9    10    12   ar
    10    12     1    1
    11     1     2    1
    12     2     3    1
    13     3     4    1
    14     4     5   am
    15     5     6    2
    16     5    25    1
    17    25    26    1
    18    26    27    1
    19    27    28    1
    20    28    31    1
    21    31    32    1
    22    32    33   ar
    23    33    34   ar
    24    34    35   ar
    25    35    36   ar
    26    36    37   ar
    27    28    29    1
    28    29    30    1
    29     4     7    1
    30     7     8    1
    31    12    13   ar
    32    13    14   ar
    33    14    15   ar
    34    15    16   ar
    35    16    17   ar
    36    17    18   ar
    37    18     9   ar
    38     8     1    1
    39    18    13   ar
    40    30    25    1
    41    37    32   ar
@<TRIPOS>MOLECULE
*****
 37 41 0 0 0
SMALL
GASTEIGER

@<TRIPOS>ATOM
      1 C          -0.1560    3.3244   18.4555 C.3     1  UNL1        0.0933
      2 C          -0.8843    3.4357   19.7622 C.3     1  UNL1        0.0442
      3 C          -2.2750    3.9965   19.8003 C.3     1  UNL1        0.0953
      4 N          -2.9374    4.4461   18.5318 N.am    1  UNL1       -0.2794
      5 C          -4.3281    5.0069   18.5699 C.2     1  UNL1        0.2252
      6 O          -4.9905    5.4564   17.3014 O.2     1  UNL1       -0.2749
      7 C          -2.2091    4.3348   17.2252 C.3     1  UNL1        0.0953
      8 C          -0.8184    3.7740   17.1871 C.3     1  UNL1        0.0442
      9 N           3.1039    1.2185   18.5130 N.ar    1  UNL1       -0.2773
     10 C           1.6139    1.3302   18.6446 C.ar    1  UNL1        0.3316
     11 O           0.6690    0.2060   18.9498 O.2     1  UNL1       -0.2463
     12 N           1.2347    2.7636   18.4174 N.ar    1  UNL1       -0.2817
     13 C           2.4904    3.5378   18.1454 C.ar    1  UNL1        0.0796
     14 C           2.7311    4.9889   17.8515 C.ar    1  UNL1        0.0188
     15 C           4.1270    5.4850   17.6168 C.ar    1  UNL1        0.0016
     16 C           5.2823    4.5301   17.6759 C.ar    1  UNL1        0.0016
     17 C           5.0416    3.0790   17.9697 C.ar    1  UNL1        0.0188
     18 C           3.6456    2.5829   18.2045 C.ar    1  UNL1        0.0798
     19 C           3.9106   -0.0371   18.6635 C.3     1  UNL1        0.1425
     20 C           3.9940   -1.0155   17.5297 C.3     1  UNL1        0.1666
     21 O           5.1423   -1.9774   17.4519 O.3     1  UNL1       -0.3542
     22 C           4.3394   -4.0193   18.8432 C.3     1  UNL1        0.0320
     23 C           5.3686   -2.9663   18.5568 C.3     1  UNL1        0.1155
     24 C           6.6238   -2.9022   19.3754 C.3     1  UNL1        0.0320
     25 C          -5.0563    5.1181   19.8765 C.3     1  UNL1        0.0795
     26 C          -5.8102    3.9396   20.4177 C.3     1  UNL1        0.0264
     27 C          -6.5384    4.0509   21.7244 C.3     1  UNL1        0.0729
     28 N          -6.5128    5.3406   22.4898 N.3     1  UNL1       -0.2689
     29 C          -5.7589    6.5191   21.9486 C.3     1  UNL1        0.0729
     30 C          -5.0308    6.4078   20.6420 C.3     1  UNL1        0.0264
     31 C          -7.2410    5.4518   23.7964 C.3     1  UNL1        0.0992
     32 C          -6.4822    5.3674   25.0876 C.ar    1  UNL1       -0.0031
     33 C          -5.3470    4.3970   25.2283 C.ar    1  UNL1        0.0178
     34 C          -4.5882    4.3126   26.5195 C.ar    1  UNL1        0.0986
     35 N          -4.9646    5.1985   27.6699 N.ar    1  UNL1       -0.2423
     36 C          -6.0998    6.1688   27.5292 C.ar    1  UNL1        0.0986
     37 C          -6.8586    6.2533   26.2380 C.ar    1  UNL1        0.0178
@<TRIPOS>BOND
     1    22    23    1
     2    23    24    1
     3    23    21    1
     4    21    20    1
     5    20    19    1
     6    19     9    1
     7     9    10   ar
     8    10    11    2
     9    10    12   ar
    10    12     1    1
    11     1     2    1
    12     2     3    1
    13     3     4    1
    14     4     5   am
    15     5     6    2
    16     5    25    1
    17    25    26    1
    18    26    27    1
    19    27    28    1
    20    28    31    1
    21    31    32    1
    22    32    33   ar
    23    33    34   ar
    24    34    35   ar
    25    35    36   ar
    26    36    37   ar
    27    28    29    1
    28    29    30    1
    29     4     7    1
    30     7     8    1
    31    12    13   ar
    32    13    14   ar
    33    14    15   ar
    34    15    16   ar
    35    16    17   ar
    36    17    18   ar
    37    18     9   ar
    38     8     1    1
    39    18    13   ar
    40    30    25    1
    41    37    32   ar
@<TRIPOS>MOLECULE
*****
 37 41 0 0 0
SMALL
GASTEIGER

@<TRIPOS>ATOM
      1 C         -15.8840   -3.4338   18.9771 C.3     1  UNL1        0.0933
      2 C         -15.1565   -2.1806   19.3649 C.3     1  UNL1        0.0442
      3 C         -15.9241   -0.9897   19.8575 C.3     1  UNL1        0.0953
      4 N         -17.4191   -1.0520   19.9623 N.am    1  UNL1       -0.2794
      5 C         -18.1867    0.1389   20.4548 C.2     1  UNL1        0.2252
      6 O         -19.6818    0.0766   20.5596 O.2     1  UNL1       -0.2749
      7 C         -18.1465   -2.3052   19.5745 C.3     1  UNL1        0.0953
      8 C         -17.3789   -3.4961   19.0819 C.3     1  UNL1        0.0442
      9 N         -13.4585   -6.0021   17.3689 N.ar    1  UNL1       -0.2773
     10 C         -13.8939   -4.5881   17.6162 C.ar    1  UNL1        0.3316
     11 O         -13.2243   -3.3542   17.0878 O.2     1  UNL1       -0.2463
     12 N         -15.1164   -4.6247   18.4846 N.ar    1  UNL1       -0.2817
     13 C         -15.4365   -6.0613   18.7740 C.ar    1  UNL1        0.0796
     14 C         -16.5287   -6.7042   19.5764 C.ar    1  UNL1        0.0188
     15 C         -16.5962   -8.1984   19.6892 C.ar    1  UNL1        0.0016
     16 C         -15.5716   -9.0497   18.9996 C.ar    1  UNL1        0.0016
     17 C         -14.4794   -8.4068   18.1973 C.ar    1  UNL1        0.0188
     18 C         -14.4119   -6.9126   18.0845 C.ar    1  UNL1        0.0798
     19 C         -12.2771   -6.4304   16.5498 C.3     1  UNL1        0.1425
     20 C         -11.0953   -7.0706   17.2156 C.3     1  UNL1        0.1666
     21 O         -10.2717   -6.2886   18.1955 O.3     1  UNL1       -0.3542
     22 C         -10.2731   -3.7749   18.8523 C.3     1  UNL1        0.0320
     23 C          -9.8980   -4.8673   17.8952 C.3     1  UNL1        0.1155
     24 C          -9.1492   -4.5382   16.6379 C.3     1  UNL1        0.0320
     25 C         -17.4592    1.3920   20.8425 C.3     1  UNL1        0.0795
     26 C         -17.5172    1.8855   22.2578 C.3     1  UNL1        0.0264
     27 C         -16.7896    3.1387   22.6455 C.3     1  UNL1        0.0729
     28 N         -16.0041    3.8984   21.6179 N.3     1  UNL1       -0.2689
     29 C         -15.9462    3.4048   20.2026 C.3     1  UNL1        0.0729
     30 C         -16.6737    2.1517   19.8149 C.3     1  UNL1        0.0264
     31 C         -15.2766    5.1515   22.0056 C.3     1  UNL1        0.0992
     32 C         -14.7040    5.2900   23.3851 C.ar    1  UNL1       -0.0031
     33 C         -15.5028    5.9572   24.4652 C.ar    1  UNL1        0.0178
     34 C         -14.9302    6.0958   25.8447 C.ar    1  UNL1        0.0986
     35 N         -13.5588    5.5671   26.1440 N.ar    1  UNL1       -0.2423
     36 C         -12.7599    4.8999   25.0638 C.ar    1  UNL1        0.0986
     37 C         -13.3325    4.7614   23.6844 C.ar    1  UNL1        0.0178
@<TRIPOS>BOND
     1    22    23    1
     2    23    24    1
     3    23    21    1
     4    21    20    1
     5    20    19    1
     6    19     9    1
     7     9    10   ar
     8    10    11    2
     9    10    12   ar
    10    12     1    1
    11     1     2    1
    12     2     3    1
    13     3     4    1
    14     4     5   am
    15     5     6    2
    16     5    25    1
    17    25    26    1
    18    26    27    1
    19    27    28    1
    20    28    31    1
    21    31    32    1
    22    32    33   ar
    23    33    34   ar
    24    34    35   ar
    25    35    36   ar
    26    36    37   ar
    27    28    29    1
    28    29    30    1
    29     4     7    1
    30     7     8    1
    31    12    13   ar
    32    13    14   ar
    33    14    15   ar
    34    15    16   ar
    35    16    17   ar
    36    17    18   ar
    37    18     9   ar
    38     8     1    1
    39    18    13   ar
    40    30    25    1
    41    37    32   ar
