@<TRIPOS>MOLECULE
*****
 36 40 0 0 0
SMALL
GASTEIGER

@<TRIPOS>ATOM
      1 O           8.4044   -3.7763   29.4535 O.3     1  UNL1       -0.4535
      2 C           5.9127   -1.9104   32.7031 C.ar    1  UNL1        0.0536
      3 C           6.7767   -1.0478   31.8316 C.ar    1  UNL1        0.0076
      4 C           7.6072   -1.6698   30.7484 C.ar    1  UNL1        0.0376
      5 C           7.5739   -3.1544   30.5366 C.ar    1  UNL1        0.1453
      6 C           6.7098   -4.0170   31.4081 C.ar    1  UNL1        0.0376
      7 C           5.8793   -3.3950   32.4914 C.ar    1  UNL1        0.0076
      8 N           5.4448    0.0630   34.3267 N.am    1  UNL1       -0.3024
      9 C           5.0822   -1.2884   33.7863 C.2     1  UNL1        0.2458
     10 O           3.8891   -2.0177   34.3290 O.2     1  UNL1       -0.2701
     11 H           6.2279    0.5417   33.9705 H       1  UNL1        0.1497
     12 C           2.1228    2.5515   38.6595 C.3     1  UNL1        0.0896
     13 N           2.9533    1.9294   37.5762 N.3     1  UNL1       -0.2714
     14 C           3.9778    0.8893   37.9206 C.3     1  UNL1        0.0738
     15 C           4.8084    0.2672   36.8374 C.3     1  UNL1        0.0369
     16 C           4.6143    0.6851   35.4100 C.3     1  UNL1        0.0746
     17 C           3.5898    1.7252   35.0656 C.3     1  UNL1        0.0369
     18 C           2.7592    2.3474   36.1488 C.3     1  UNL1        0.0738
     19 C           7.9040   -3.7907   28.0394 C.ar    1  UNL1        0.1453
     20 C           7.9186   -2.5306   27.2259 C.ar    1  UNL1        0.0381
     21 C           7.4182   -2.5448   25.8119 C.ar    1  UNL1        0.0114
     22 C           6.9033   -3.8194   25.2114 C.ar    1  UNL1        0.0419
     23 C           6.8888   -5.0795   26.0249 C.ar    1  UNL1        0.0114
     24 C           7.3892   -5.0652   27.4389 C.ar    1  UNL1        0.0381
     25 C           6.4030   -3.8337   23.7974 C.1     1  UNL1       -0.0621
     26 C           5.9029   -3.8480   22.3833 C.1     1  UNL1       -0.0597
     27 C           4.7365   -3.7921   19.9131 C.3     1  UNL1        0.1561
     28 O           4.1567   -4.5709   22.0000 O.3     1  UNL1       -0.3739
     29 C           5.8647   -3.1639   19.4982 C.3     1  UNL1        0.1120
     30 N           6.5296   -2.7805   19.2000 N.3     1  UNL1       -0.2699
     31 C           5.4248   -3.0597   18.2247 C.3     1  UNL1        0.0723
     32 C           4.1771   -3.7544   18.6835 C.3     1  UNL1        0.0207
     33 C           4.0343   -4.1701   20.1176 C.3     1  UNL1        0.0404
     34 C           5.1392   -3.8910   21.0930 C.3     1  UNL1        0.0207
     35 C           6.3868   -3.1962   20.6342 C.3     1  UNL1        0.0723
     36 H           4.8754   -4.3870   22.6249 H       1  UNL1        0.2115
@<TRIPOS>BOND
     1    12    13    1
     2    13    14    1
     3    14    15    1
     4    15    16    1
     5    16     8    1
     6     8     9   am
     7     9    10    2
     8     9     2    1
     9     2     3   ar
    10     3     4   ar
    11     4     5   ar
    12     5     1    1
    13     1    19    1
    14    19    20   ar
    15    20    21   ar
    16    21    22   ar
    17    22    25    1
    18    25    26    3
    19    26    27    1
    20    27    28    1
    21    27    29    1
    22    29    30    1
    23    30    31    1
    24    31    32    1
    25    32    33    1
    26    33    34    1
    27    34    35    1
    28    22    23   ar
    29    23    24   ar
    30     5     6   ar
    31     6     7   ar
    32    16    17    1
    33    17    18    1
    34    18    13    1
    35     7     2   ar
    36    24    19   ar
    37    33    27    1
    38    35    30    1
    39     8    11    1
    40    28    36    1
@<TRIPOS>MOLECULE
*****
 36 40 0 0 0
SMALL
GASTEIGER

@<TRIPOS>ATOM
      1 O           7.4531   -3.7050   31.2449 O.3     1  UNL1       -0.4535
      2 C           6.7973   -3.1083   26.8331 C.ar    1  UNL1        0.0536
      3 C           7.1828   -1.9451   27.6982 C.ar    1  UNL1        0.0076
      4 C           7.4014   -2.1440   29.1687 C.ar    1  UNL1        0.0376
      5 C           7.2345   -3.5061   29.7744 C.ar    1  UNL1        0.1453
      6 C           6.8490   -4.6694   28.9092 C.ar    1  UNL1        0.0376
      7 C           6.6304   -4.4704   27.4386 C.ar    1  UNL1        0.0076
      8 N           6.1650   -4.0665   24.5025 N.am    1  UNL1       -0.3024
      9 C           6.5788   -2.9093   25.3625 C.2     1  UNL1        0.2458
     10 O           6.7739   -1.5532   24.7520 O.2     1  UNL1       -0.2701
     11 H           6.0369   -4.9566   24.9033 H       1  UNL1        0.1497
     12 C           5.2907   -3.2710   18.6200 C.3     1  UNL1        0.0896
     13 N           5.5093   -3.4699   20.0907 N.3     1  UNL1       -0.2714
     14 C           4.3644   -3.3132   21.0470 C.3     1  UNL1        0.0738
     15 C           4.5829   -3.5121   22.5177 C.3     1  UNL1        0.0369
     16 C           5.9464   -3.8676   23.0318 C.3     1  UNL1        0.0746
     17 C           7.0913   -4.0243   22.0756 C.3     1  UNL1        0.0369
     18 C           6.8728   -3.8254   20.6049 C.3     1  UNL1        0.0738
     19 C           6.7705   -2.8062   32.2330 C.ar    1  UNL1        0.1453
     20 C           7.5213   -1.6647   32.8518 C.ar    1  UNL1        0.0381
     21 C           6.8388   -0.7659   33.8399 C.ar    1  UNL1        0.0114
     22 C           5.4053   -1.0087   34.2091 C.ar    1  UNL1        0.0419
     23 C           4.6545   -2.1503   33.5903 C.ar    1  UNL1        0.0114
     24 C           5.3371   -3.0491   32.6022 C.ar    1  UNL1        0.0381
     25 C           4.7228   -0.1099   35.1972 C.1     1  UNL1       -0.0621
     26 C           4.0404    0.7889   36.1853 C.1     1  UNL1       -0.0597
     27 C           2.5533    2.3732   37.8418 C.3     1  UNL1        0.1561
     28 O           3.8943    0.5190   38.0891 O.3     1  UNL1       -0.3739
     29 C           2.2318    3.0757   36.7269 C.3     1  UNL1        0.1120
     30 N           2.0087    3.5325   36.0792 N.3     1  UNL1       -0.2699
     31 C           1.4564    3.9456   37.4112 C.3     1  UNL1        0.0723
     32 C           1.8119    3.1688   38.6441 C.3     1  UNL1        0.0207
     33 C           2.7196    1.9788   38.5450 C.3     1  UNL1        0.0404
     34 C           3.2719    1.5656   37.2131 C.3     1  UNL1        0.0207
     35 C           2.9165    2.3424   35.9802 C.3     1  UNL1        0.0723
     36 H           4.2476    0.2578   37.2243 H       1  UNL1        0.2115
@<TRIPOS>BOND
     1    12    13    1
     2    13    14    1
     3    14    15    1
     4    15    16    1
     5    16     8    1
     6     8     9   am
     7     9    10    2
     8     9     2    1
     9     2     3   ar
    10     3     4   ar
    11     4     5   ar
    12     5     1    1
    13     1    19    1
    14    19    20   ar
    15    20    21   ar
    16    21    22   ar
    17    22    25    1
    18    25    26    3
    19    26    27    1
    20    27    28    1
    21    27    29    1
    22    29    30    1
    23    30    31    1
    24    31    32    1
    25    32    33    1
    26    33    34    1
    27    34    35    1
    28    22    23   ar
    29    23    24   ar
    30     5     6   ar
    31     6     7   ar
    32    16    17    1
    33    17    18    1
    34    18    13    1
    35     7     2   ar
    36    24    19   ar
    37    33    27    1
    38    35    30    1
    39     8    11    1
    40    28    36    1
@<TRIPOS>MOLECULE
*****
 36 40 0 0 0
SMALL
GASTEIGER

@<TRIPOS>ATOM
      1 O           8.2808   -3.4558   29.4118 O.3     1  UNL1       -0.4535
      2 C           5.8431   -1.6981   32.7611 C.ar    1  UNL1        0.0536
      3 C           5.7615   -3.1662   32.4646 C.ar    1  UNL1        0.0076
      4 C           6.5741   -3.7521   31.3481 C.ar    1  UNL1        0.0376
      5 C           7.4682   -2.8699   30.5282 C.ar    1  UNL1        0.1453
      6 C           7.5498   -1.4017   30.8248 C.ar    1  UNL1        0.0376
      7 C           6.7371   -0.8158   31.9413 C.ar    1  UNL1        0.0076
      8 N           5.3740    0.2414   34.4248 N.am    1  UNL1       -0.3024
      9 C           5.0305   -1.1122   33.8776 C.2     1  UNL1        0.2458
     10 O           3.8745   -1.8800   34.4468 O.2     1  UNL1       -0.2701
     11 H           6.1328    0.7454   34.0512 H       1  UNL1        0.1497
     12 C           2.1239    2.5851   38.8908 C.3     1  UNL1        0.0896
     13 N           2.9364    1.9991   37.7743 N.3     1  UNL1       -0.2714
     14 C           2.7225    2.4673   36.3654 C.3     1  UNL1        0.0738
     15 C           3.5351    1.8814   35.2488 C.3     1  UNL1        0.0369
     16 C           4.5614    0.8274   35.5414 C.3     1  UNL1        0.0746
     17 C           4.7753    0.3592   36.9502 C.3     1  UNL1        0.0369
     18 C           3.9628    0.9451   38.0668 C.3     1  UNL1        0.0738
     19 C           7.7231   -3.4972   28.0199 C.ar    1  UNL1        0.1453
     20 C           7.4849   -4.8161   27.3463 C.ar    1  UNL1        0.0381
     21 C           6.9272   -4.8575   25.9545 C.ar    1  UNL1        0.0114
     22 C           6.6077   -3.5799   25.2362 C.ar    1  UNL1        0.0419
     23 C           6.8459   -2.2611   25.9098 C.ar    1  UNL1        0.0114
     24 C           7.4036   -2.2197   27.3017 C.ar    1  UNL1        0.0381
     25 C           6.0500   -3.6214   23.8444 C.1     1  UNL1       -0.0621
     26 C           5.4922   -3.6628   22.4526 C.1     1  UNL1       -0.0597
     27 C           4.6799   -3.9329   19.8578 C.3     1  UNL1        0.1561
     28 O           4.0001   -4.7516   21.8987 O.3     1  UNL1       -0.3739
     29 C           5.6991   -3.0926   19.5499 C.3     1  UNL1        0.1120
     30 N           6.3043   -2.5863   19.3145 N.3     1  UNL1       -0.2699
     31 C           5.4212   -3.1240   18.2277 C.3     1  UNL1        0.0723
     32 C           4.2940   -4.0532   18.5683 C.3     1  UNL1        0.0207
     33 C           4.0500   -4.4448   19.9955 C.3     1  UNL1        0.0404
     34 C           4.9331   -3.9072   21.0823 C.3     1  UNL1        0.0207
     35 C           6.0602   -2.9780   20.7417 C.3     1  UNL1        0.0723
     36 H           4.5753   -4.3999   22.5961 H       1  UNL1        0.2115
@<TRIPOS>BOND
     1    12    13    1
     2    13    14    1
     3    14    15    1
     4    15    16    1
     5    16     8    1
     6     8     9   am
     7     9    10    2
     8     9     2    1
     9     2     3   ar
    10     3     4   ar
    11     4     5   ar
    12     5     1    1
    13     1    19    1
    14    19    20   ar
    15    20    21   ar
    16    21    22   ar
    17    22    25    1
    18    25    26    3
    19    26    27    1
    20    27    28    1
    21    27    29    1
    22    29    30    1
    23    30    31    1
    24    31    32    1
    25    32    33    1
    26    33    34    1
    27    34    35    1
    28    22    23   ar
    29    23    24   ar
    30     5     6   ar
    31     6     7   ar
    32    16    17    1
    33    17    18    1
    34    18    13    1
    35     7     2   ar
    36    24    19   ar
    37    33    27    1
    38    35    30    1
    39     8    11    1
    40    28    36    1
@<TRIPOS>MOLECULE
*****
 36 40 0 0 0
SMALL
GASTEIGER

@<TRIPOS>ATOM
      1 O           3.2309   -0.4030   18.7451 O.3     1  UNL1       -0.4535
      2 C          -0.1846    2.1153   20.2428 C.ar    1  UNL1        0.0536
      3 C           0.6318    2.5782   19.0726 C.ar    1  UNL1        0.0076
      4 C           1.7702    1.7388   18.5734 C.ar    1  UNL1        0.0376
      5 C           2.0924    0.4364   19.2443 C.ar    1  UNL1        0.1453
      6 C           1.2760   -0.0265   20.4145 C.ar    1  UNL1        0.0376
      7 C           0.1375    0.8130   20.9138 C.ar    1  UNL1        0.0076
      8 N          -2.7375    2.5035   20.5284 N.am    1  UNL1       -0.3024
      9 C          -1.3231    2.9547   20.7420 C.2     1  UNL1        0.2458
     10 O          -1.0471    4.2453   21.4547 O.2     1  UNL1       -0.2701
     11 H          -2.9186    1.6564   20.0606 H       1  UNL1        0.1497
     12 C          -7.2917    5.8611   22.5249 C.3     1  UNL1        0.0896
     13 N          -6.1531    5.0217   22.0257 N.3     1  UNL1       -0.2714
     14 C          -5.4464    4.0847   22.9598 C.3     1  UNL1        0.0738
     15 C          -4.3078    3.2453   22.4608 C.3     1  UNL1        0.0369
     16 C          -3.8761    3.3429   21.0276 C.3     1  UNL1        0.0746
     17 C          -4.5828    4.2798   20.0935 C.3     1  UNL1        0.0369
     18 C          -5.7214    5.1193   20.5926 C.3     1  UNL1        0.0738
     19 C           3.9799   -1.2915   19.6936 C.ar    1  UNL1        0.1453
     20 C           4.9845   -0.7020   20.6386 C.ar    1  UNL1        0.0381
     21 C           5.7335   -1.5904   21.5871 C.ar    1  UNL1        0.0114
     22 C           5.4778   -3.0685   21.5905 C.ar    1  UNL1        0.0419
     23 C           4.4731   -3.6580   20.6455 C.ar    1  UNL1        0.0114
     24 C           3.7242   -2.7695   19.6970 C.ar    1  UNL1        0.0381
     25 C           6.2268   -3.9570   22.5390 C.1     1  UNL1       -0.0621
     26 C           6.9759   -4.8453   23.4875 C.1     1  UNL1       -0.0597
     27 C           8.1163   -6.6437   25.1995 C.3     1  UNL1        0.1561
     28 O           8.1378   -6.2786   22.9270 O.3     1  UNL1       -0.3739
     29 C           7.4746   -5.9694   26.1859 C.3     1  UNL1        0.1120
     30 N           7.1053   -5.5923   26.8178 N.3     1  UNL1       -0.2699
     31 C           7.9610   -6.7775   27.1536 C.3     1  UNL1        0.0723
     32 C           8.6707   -7.5233   26.0627 C.3     1  UNL1        0.0207
     33 C           8.5246   -7.0839   24.6360 C.3     1  UNL1        0.0404
     34 C           7.6688   -5.8986   24.3002 C.3     1  UNL1        0.0207
     35 C           6.9592   -5.1528   25.3911 C.3     1  UNL1        0.0723
     36 H           7.5827   -5.5112   22.7175 H       1  UNL1        0.2115
@<TRIPOS>BOND
     1    12    13    1
     2    13    14    1
     3    14    15    1
     4    15    16    1
     5    16     8    1
     6     8     9   am
     7     9    10    2
     8     9     2    1
     9     2     3   ar
    10     3     4   ar
    11     4     5   ar
    12     5     1    1
    13     1    19    1
    14    19    20   ar
    15    20    21   ar
    16    21    22   ar
    17    22    25    1
    18    25    26    3
    19    26    27    1
    20    27    28    1
    21    27    29    1
    22    29    30    1
    23    30    31    1
    24    31    32    1
    25    32    33    1
    26    33    34    1
    27    34    35    1
    28    22    23   ar
    29    23    24   ar
    30     5     6   ar
    31     6     7   ar
    32    16    17    1
    33    17    18    1
    34    18    13    1
    35     7     2   ar
    36    24    19   ar
    37    33    27    1
    38    35    30    1
    39     8    11    1
    40    28    36    1
@<TRIPOS>MOLECULE
*****
 36 40 0 0 0
SMALL
GASTEIGER

@<TRIPOS>ATOM
      1 O           7.9930   -4.0439   31.3779 O.3     1  UNL1       -0.4535
      2 C           7.1771   -4.4037   26.9671 C.ar    1  UNL1        0.0536
      3 C           6.5325   -5.3569   27.9293 C.ar    1  UNL1        0.0076
      4 C           6.8045   -5.2370   29.3995 C.ar    1  UNL1        0.0376
      5 C           7.7210   -4.1638   29.9077 C.ar    1  UNL1        0.1453
      6 C           8.3657   -3.2105   28.9454 C.ar    1  UNL1        0.0376
      7 C           8.0937   -3.3305   27.4751 C.ar    1  UNL1        0.0076
      8 N           6.3205   -3.3647   24.7453 N.am    1  UNL1       -0.3024
      9 C           6.9051   -4.5237   25.4968 C.2     1  UNL1        0.2458
     10 O           7.2177   -5.8026   24.7782 O.2     1  UNL1       -0.2701
     11 H           6.1154   -2.5252   25.2170 H       1  UNL1        0.1497
     12 C           5.2324   -3.8443   18.8643 C.3     1  UNL1        0.0896
     13 N           5.5044   -3.7244   20.3346 N.3     1  UNL1       -0.2714
     14 C           6.9170   -3.7326   20.8390 C.3     1  UNL1        0.0738
     15 C           7.1891   -3.6127   22.3093 C.3     1  UNL1        0.0369
     16 C           6.0485   -3.4846   23.2750 C.3     1  UNL1        0.0746
     17 C           4.6359   -3.4763   22.7706 C.3     1  UNL1        0.0369
     18 C           4.3638   -3.5962   21.3003 C.3     1  UNL1        0.0738
     19 C           7.2272   -3.0531   32.2039 C.ar    1  UNL1        0.1453
     20 C           5.7544   -3.2366   32.4207 C.ar    1  UNL1        0.0381
     21 C           4.9887   -2.2460   33.2466 C.ar    1  UNL1        0.0114
     22 C           5.6959   -1.0717   33.8559 C.ar    1  UNL1        0.0419
     23 C           7.1687   -0.8882   33.6391 C.ar    1  UNL1        0.0114
     24 C           7.9345   -1.8789   32.8131 C.ar    1  UNL1        0.0381
     25 C           4.9302   -0.0811   34.6818 C.1     1  UNL1       -0.0621
     26 C           4.1645    0.9096   35.5077 C.1     1  UNL1       -0.0597
     27 C           2.7161    2.4979   37.1944 C.3     1  UNL1        0.1561
     28 O           3.1854    2.4714   34.9413 O.3     1  UNL1       -0.3739
     29 C           3.1109    1.6520   38.1784 C.3     1  UNL1        0.1120
     30 N           3.3244    1.1666   38.8083 N.3     1  UNL1       -0.2699
     31 C           2.4420    2.3352   39.1333 C.3     1  UNL1        0.0723
     32 C           2.0053    3.2708   38.0452 C.3     1  UNL1        0.0207
     33 C           2.4511    3.0377   36.6321 C.3     1  UNL1        0.0404
     34 C           3.3335    1.8691   36.3070 C.3     1  UNL1        0.0207
     35 C           3.7701    0.9336   37.3952 C.3     1  UNL1        0.0723
     36 H           3.7560    1.7136   34.7387 H       1  UNL1        0.2115
@<TRIPOS>BOND
     1    12    13    1
     2    13    14    1
     3    14    15    1
     4    15    16    1
     5    16     8    1
     6     8     9   am
     7     9    10    2
     8     9     2    1
     9     2     3   ar
    10     3     4   ar
    11     4     5   ar
    12     5     1    1
    13     1    19    1
    14    19    20   ar
    15    20    21   ar
    16    21    22   ar
    17    22    25    1
    18    25    26    3
    19    26    27    1
    20    27    28    1
    21    27    29    1
    22    29    30    1
    23    30    31    1
    24    31    32    1
    25    32    33    1
    26    33    34    1
    27    34    35    1
    28    22    23   ar
    29    23    24   ar
    30     5     6   ar
    31     6     7   ar
    32    16    17    1
    33    17    18    1
    34    18    13    1
    35     7     2   ar
    36    24    19   ar
    37    33    27    1
    38    35    30    1
    39     8    11    1
    40    28    36    1
@<TRIPOS>MOLECULE
*****
 36 40 0 0 0
SMALL
GASTEIGER

@<TRIPOS>ATOM
      1 O           0.0842    2.6532   27.4306 O.3     1  UNL1       -0.4535
      2 C           2.0582    2.8862   31.4678 C.ar    1  UNL1        0.0536
      3 C           1.1347    1.7480   31.1491 C.ar    1  UNL1        0.0076
      4 C           0.4767    1.6704   29.8034 C.ar    1  UNL1        0.0376
      5 C           0.7422    2.7308   28.7763 C.ar    1  UNL1        0.1453
      6 C           1.6658    3.8691   29.0951 C.ar    1  UNL1        0.0376
      7 C           2.3238    3.9467   30.4408 C.ar    1  UNL1        0.0076
      8 N           2.2182    2.1105   33.9422 N.am    1  UNL1       -0.3024
      9 C           2.7163    2.9638   32.8136 C.2     1  UNL1        0.2458
     10 O           3.8721    3.8946   33.0307 O.2     1  UNL1       -0.2701
     11 H           1.4595    1.4995   33.7996 H       1  UNL1        0.1497
     12 C           4.8501    2.4206   39.3253 C.3     1  UNL1        0.0896
     13 N           4.1921    2.3430   37.9794 N.3     1  UNL1       -0.2714
     14 C           3.0961    3.3034   37.6241 C.3     1  UNL1        0.0738
     15 C           2.4380    3.2259   36.2783 C.3     1  UNL1        0.0369
     16 C           2.8762    2.1880   35.2880 C.3     1  UNL1        0.0746
     17 C           3.9723    1.2277   35.6433 C.3     1  UNL1        0.0369
     18 C           4.6303    1.3051   36.9891 C.3     1  UNL1        0.0738
     19 C           0.7337    1.8796   26.3217 C.ar    1  UNL1        0.1453
     20 C           2.0436    1.1879   26.5570 C.ar    1  UNL1        0.0381
     21 C           2.6932    0.4143   25.4481 C.ar    1  UNL1        0.0114
     22 C           2.0326    0.3325   24.1037 C.ar    1  UNL1        0.0419
     23 C           0.7226    1.0243   23.8684 C.ar    1  UNL1        0.0114
     24 C           0.0731    1.7979   24.9774 C.ar    1  UNL1        0.0381
     25 C           2.6821   -0.4410   22.9948 C.1     1  UNL1       -0.0621
     26 C           3.3318   -1.2146   21.8860 C.1     1  UNL1       -0.0597
     27 C           4.2695   -2.5904   19.7196 C.3     1  UNL1        0.1561
     28 O           3.1907   -0.5873   20.0680 O.3     1  UNL1       -0.3739
     29 C           4.6695   -3.5328   20.6093 C.3     1  UNL1        0.1120
     30 N           4.9302   -4.1317   21.1106 N.3     1  UNL1       -0.2699
     31 C           5.1825   -4.3288   19.6452 C.3     1  UNL1        0.0723
     32 C           4.7402   -3.2866   18.6612 C.3     1  UNL1        0.0207
     33 C           4.0456   -2.0473   19.1427 C.3     1  UNL1        0.0404
     34 C           3.7933   -1.8503   20.6082 C.3     1  UNL1        0.0207
     35 C           4.2356   -2.8925   21.5921 C.3     1  UNL1        0.0723
     36 H           3.0311   -0.4668   21.0172 H       1  UNL1        0.2115
@<TRIPOS>BOND
     1    12    13    1
     2    13    14    1
     3    14    15    1
     4    15    16    1
     5    16     8    1
     6     8     9   am
     7     9    10    2
     8     9     2    1
     9     2     3   ar
    10     3     4   ar
    11     4     5   ar
    12     5     1    1
    13     1    19    1
    14    19    20   ar
    15    20    21   ar
    16    21    22   ar
    17    22    25    1
    18    25    26    3
    19    26    27    1
    20    27    28    1
    21    27    29    1
    22    29    30    1
    23    30    31    1
    24    31    32    1
    25    32    33    1
    26    33    34    1
    27    34    35    1
    28    22    23   ar
    29    23    24   ar
    30     5     6   ar
    31     6     7   ar
    32    16    17    1
    33    17    18    1
    34    18    13    1
    35     7     2   ar
    36    24    19   ar
    37    33    27    1
    38    35    30    1
    39     8    11    1
    40    28    36    1
@<TRIPOS>MOLECULE
*****
 36 40 0 0 0
SMALL
GASTEIGER

@<TRIPOS>ATOM
      1 O           2.4974    1.5229   29.3035 O.3     1  UNL1       -0.4535
      2 C           5.2013   -1.7821   27.8836 C.ar    1  UNL1        0.0536
      3 C           5.3472   -1.2390   29.2742 C.ar    1  UNL1        0.0076
      4 C           4.4459   -0.1373   29.7475 C.ar    1  UNL1        0.0376
      5 C           3.3987    0.4213   28.8302 C.ar    1  UNL1        0.1453
      6 C           3.2528   -0.1219   27.4396 C.ar    1  UNL1        0.0376
      7 C           4.1541   -1.2236   26.9663 C.ar    1  UNL1        0.0076
      8 N           5.9307   -3.4541   26.0337 N.am    1  UNL1       -0.3024
      9 C           6.1026   -2.8838   27.4103 C.2     1  UNL1        0.2458
     10 O           7.1757   -3.4151   28.3136 O.2     1  UNL1       -0.2701
     11 H           5.2263   -3.1054   25.4408 H       1  UNL1        0.1497
     12 C           9.5357   -7.8609   24.1404 C.3     1  UNL1        0.0896
     13 N           8.6344   -6.7592   24.6138 N.3     1  UNL1       -0.2714
     14 C           8.6473   -5.4295   23.9198 C.3     1  UNL1        0.0738
     15 C           7.7460   -4.3277   24.3931 C.3     1  UNL1        0.0369
     16 C           6.8320   -4.5558   25.5603 C.3     1  UNL1        0.0746
     17 C           6.8192   -5.8855   26.2543 C.3     1  UNL1        0.0369
     18 C           7.7204   -6.9873   25.7810 C.3     1  UNL1        0.0738
     19 C           1.3054    1.9208   28.4844 C.ar    1  UNL1        0.1453
     20 C           1.3390    3.1835   27.6755 C.ar    1  UNL1        0.0381
     21 C           0.1470    3.5814   26.8564 C.ar    1  UNL1        0.0114
     22 C          -1.0786    2.7165   26.8464 C.ar    1  UNL1        0.0419
     23 C          -1.1121    1.4539   27.6553 C.ar    1  UNL1        0.0114
     24 C           0.0799    1.0560   28.4744 C.ar    1  UNL1        0.0381
     25 C          -2.2705    3.1145   26.0273 C.1     1  UNL1       -0.0621
     26 C          -3.4624    3.5125   25.2082 C.1     1  UNL1       -0.0597
     27 C          -5.7944    4.0995   23.9110 C.3     1  UNL1        0.1561
     28 O          -5.0827    4.0592   26.0995 O.3     1  UNL1       -0.3739
     29 C          -5.1216    3.8126   22.7687 C.3     1  UNL1        0.1120
     30 N          -4.7553    3.6489   22.0497 N.3     1  UNL1       -0.2699
     31 C          -6.1941    4.0683   21.9874 C.3     1  UNL1        0.0723
     32 C          -6.9382    4.3855   23.2505 C.3     1  UNL1        0.0207
     33 C          -6.2435    4.2834   24.5760 C.3     1  UNL1        0.0404
     34 C          -4.8047    3.8641   24.6384 C.3     1  UNL1        0.0207
     35 C          -4.0606    3.5468   23.3752 C.3     1  UNL1        0.0723
     36 H          -4.1521    3.7874   26.1319 H       1  UNL1        0.2115
@<TRIPOS>BOND
     1    12    13    1
     2    13    14    1
     3    14    15    1
     4    15    16    1
     5    16     8    1
     6     8     9   am
     7     9    10    2
     8     9     2    1
     9     2     3   ar
    10     3     4   ar
    11     4     5   ar
    12     5     1    1
    13     1    19    1
    14    19    20   ar
    15    20    21   ar
    16    21    22   ar
    17    22    25    1
    18    25    26    3
    19    26    27    1
    20    27    28    1
    21    27    29    1
    22    29    30    1
    23    30    31    1
    24    31    32    1
    25    32    33    1
    26    33    34    1
    27    34    35    1
    28    22    23   ar
    29    23    24   ar
    30     5     6   ar
    31     6     7   ar
    32    16    17    1
    33    17    18    1
    34    18    13    1
    35     7     2   ar
    36    24    19   ar
    37    33    27    1
    38    35    30    1
    39     8    11    1
    40    28    36    1
@<TRIPOS>MOLECULE
*****
 36 40 0 0 0
SMALL
GASTEIGER

@<TRIPOS>ATOM
      1 O           3.5666    2.6753   27.8989 O.3     1  UNL1       -0.4535
      2 C           5.8221   -1.2115   27.6644 C.ar    1  UNL1        0.0536
      3 C           4.7527   -1.0262   28.6998 C.ar    1  UNL1        0.0076
      4 C           4.0009    0.2694   28.7779 C.ar    1  UNL1        0.0376
      5 C           4.3184    1.3797   27.8207 C.ar    1  UNL1        0.1453
      6 C           5.3878    1.1944   26.7853 C.ar    1  UNL1        0.0376
      7 C           6.1397   -0.1013   26.7072 C.ar    1  UNL1        0.0076
      8 N           5.8596   -3.8043   27.8254 N.am    1  UNL1       -0.3024
      9 C           6.5740   -2.5072   27.5863 C.2     1  UNL1        0.2458
     10 O           8.0399   -2.5057   27.2692 O.2     1  UNL1       -0.2701
     11 H           4.8974   -3.8052   28.0336 H       1  UNL1        0.1497
     12 C           8.8666   -8.9871   27.5130 C.3     1  UNL1        0.0896
     13 N           8.1148   -7.6913   27.5911 N.3     1  UNL1       -0.2714
     14 C           8.1114   -6.9020   28.8666 C.3     1  UNL1        0.0738
     15 C           7.3597   -5.6063   28.9447 C.3     1  UNL1        0.0369
     16 C           6.6114   -5.1000   27.7474 C.3     1  UNL1        0.0746
     17 C           6.6148   -5.8894   26.4719 C.3     1  UNL1        0.0369
     18 C           7.3665   -7.1851   26.3937 C.3     1  UNL1        0.0738
     19 C           2.2285    2.8073   27.2338 C.ar    1  UNL1        0.1453
     20 C           2.0923    2.5428   25.7637 C.ar    1  UNL1        0.0381
     21 C           0.7543    2.6748   25.0986 C.ar    1  UNL1        0.0114
     22 C          -0.4476    3.0713   25.9039 C.ar    1  UNL1        0.0419
     23 C          -0.3114    3.3358   27.3740 C.ar    1  UNL1        0.0114
     24 C           1.0267    3.2038   28.0391 C.ar    1  UNL1        0.0381
     25 C          -1.7856    3.2032   25.2388 C.1     1  UNL1       -0.0621
     26 C          -3.1236    3.3350   24.5738 C.1     1  UNL1       -0.0597
     27 C          -5.5144    3.8594   23.3594 C.3     1  UNL1        0.1561
     28 O          -3.5013    2.9422   22.7240 O.3     1  UNL1       -0.3739
     29 C          -5.9104    4.3486   24.5609 C.3     1  UNL1        0.1120
     30 N          -6.1955    4.6560   25.2695 N.3     1  UNL1       -0.2699
     31 C          -7.1422    4.6679   24.1061 C.3     1  UNL1        0.0723
     32 C          -6.7044    4.1268   22.7774 C.3     1  UNL1        0.0207
     33 C          -5.3198    3.5739   22.6121 C.3     1  UNL1        0.0404
     34 C          -4.3731    3.5621   23.7755 C.3     1  UNL1        0.0207
     35 C          -4.8110    4.1032   25.1042 C.3     1  UNL1        0.0723
     36 H          -2.8947    2.9379   23.4809 H       1  UNL1        0.2115
@<TRIPOS>BOND
     1    12    13    1
     2    13    14    1
     3    14    15    1
     4    15    16    1
     5    16     8    1
     6     8     9   am
     7     9    10    2
     8     9     2    1
     9     2     3   ar
    10     3     4   ar
    11     4     5   ar
    12     5     1    1
    13     1    19    1
    14    19    20   ar
    15    20    21   ar
    16    21    22   ar
    17    22    25    1
    18    25    26    3
    19    26    27    1
    20    27    28    1
    21    27    29    1
    22    29    30    1
    23    30    31    1
    24    31    32    1
    25    32    33    1
    26    33    34    1
    27    34    35    1
    28    22    23   ar
    29    23    24   ar
    30     5     6   ar
    31     6     7   ar
    32    16    17    1
    33    17    18    1
    34    18    13    1
    35     7     2   ar
    36    24    19   ar
    37    33    27    1
    38    35    30    1
    39     8    11    1
    40    28    36    1
@<TRIPOS>MOLECULE
*****
 36 40 0 0 0
SMALL
GASTEIGER

@<TRIPOS>ATOM
      1 O           6.4362   -3.0707   31.7697 O.3     1  UNL1       -0.4535
      2 C           5.6774   -1.9789   27.4706 C.ar    1  UNL1        0.0536
      3 C           5.3145   -1.0180   28.5638 C.ar    1  UNL1        0.0076
      4 C           5.5674   -1.3820   29.9968 C.ar    1  UNL1        0.0376
      5 C           6.1832   -2.7068   30.3367 C.ar    1  UNL1        0.1453
      6 C           6.5462   -3.6677   29.2435 C.ar    1  UNL1        0.0376
      7 C           6.2932   -3.3037   27.8104 C.ar    1  UNL1        0.0076
      8 N           4.1733   -2.0822   25.3548 N.am    1  UNL1       -0.3024
      9 C           5.4244   -1.6149   26.0376 C.2     1  UNL1        0.2458
     10 O           6.4224   -0.7836   25.2875 O.2     1  UNL1       -0.2701
     11 H           3.5182   -2.6278   25.8471 H       1  UNL1        0.1497
     12 C           3.1612   -0.6265   19.6226 C.3     1  UNL1        0.0896
     13 N           3.4142   -0.9905   21.0557 N.3     1  UNL1       -0.2714
     14 C           2.8943   -0.1128   22.1554 C.3     1  UNL1        0.0738
     15 C           3.1473   -0.4767   23.5885 C.3     1  UNL1        0.0369
     16 C           3.9202   -1.7182   23.9217 C.3     1  UNL1        0.0746
     17 C           4.4402   -2.5959   22.8220 C.3     1  UNL1        0.0369
     18 C           4.1872   -2.2320   21.3889 C.3     1  UNL1        0.0738
     19 C           6.1619   -2.0738   32.8564 C.ar    1  UNL1        0.1453
     20 C           7.2382   -1.1243   33.2923 C.ar    1  UNL1        0.0381
     21 C           6.9640   -0.1274   34.3789 C.ar    1  UNL1        0.0114
     22 C           5.6133   -0.0799   35.0298 C.ar    1  UNL1        0.0419
     23 C           4.5370   -1.0294   34.5940 C.ar    1  UNL1        0.0114
     24 C           4.8113   -2.0263   33.5072 C.ar    1  UNL1        0.0381
     25 C           5.3392    0.9170   36.1165 C.1     1  UNL1       -0.0621
     26 C           5.0650    1.9141   37.2030 C.1     1  UNL1       -0.0597
     27 C           4.5286    3.5054   39.3584 C.3     1  UNL1        0.1561
     28 O           3.4267    2.9060   37.4286 O.3     1  UNL1       -0.3739
     29 C           5.7540    3.1425   39.8127 C.3     1  UNL1        0.1120
     30 N           6.4897    2.9511   40.1289 N.3     1  UNL1       -0.2699
     31 C           5.6377    3.8861   40.9351 C.3     1  UNL1        0.0723
     32 C           4.2825    4.2874   40.4327 C.3     1  UNL1        0.0207
     33 C           3.7793    3.7538   39.1243 C.3     1  UNL1        0.0404
     34 C           4.6313    2.8188   38.3182 C.3     1  UNL1        0.0207
     35 C           5.9865    2.4175   38.8205 C.3     1  UNL1        0.0723
     36 H           3.9833    2.3018   36.9128 H       1  UNL1        0.2115
@<TRIPOS>BOND
     1    12    13    1
     2    13    14    1
     3    14    15    1
     4    15    16    1
     5    16     8    1
     6     8     9   am
     7     9    10    2
     8     9     2    1
     9     2     3   ar
    10     3     4   ar
    11     4     5   ar
    12     5     1    1
    13     1    19    1
    14    19    20   ar
    15    20    21   ar
    16    21    22   ar
    17    22    25    1
    18    25    26    3
    19    26    27    1
    20    27    28    1
    21    27    29    1
    22    29    30    1
    23    30    31    1
    24    31    32    1
    25    32    33    1
    26    33    34    1
    27    34    35    1
    28    22    23   ar
    29    23    24   ar
    30     5     6   ar
    31     6     7   ar
    32    16    17    1
    33    17    18    1
    34    18    13    1
    35     7     2   ar
    36    24    19   ar
    37    33    27    1
    38    35    30    1
    39     8    11    1
    40    28    36    1
