@<TRIPOS>MOLECULE
*****
 13 13 0 0 0
SMALL
GASTEIGER

@<TRIPOS>ATOM
      1 C           7.0639  -12.3671   28.3506 C.3     1  UNL1        0.0310
      2 C           5.5866  -12.5669   28.1848 C.ar    1  UNL1       -0.0218
      3 C           4.6505  -12.1992   29.2976 C.ar    1  UNL1       -0.0030
      4 C           3.1731  -12.3990   29.1318 C.ar    1  UNL1        0.0143
      5 C           2.6319  -12.9665   27.8531 C.ar    1  UNL1        0.0495
      6 C           3.5680  -13.3342   26.7403 C.ar    1  UNL1        0.0143
      7 C           5.0453  -13.1344   26.9061 C.ar    1  UNL1       -0.0030
      8 N           1.1545  -13.1663   27.6873 N.pl3   1  UNL1       -0.2930
      9 H           0.6293  -12.5313   27.1486 H       1  UNL1        0.1538
     10 C           0.4774  -14.3335   28.3422 C.2     1  UNL1        0.2056
     11 N           0.9029  -15.7323   28.0070 N.2     1  UNL1       -0.0679
     12 O           0.2256  -16.8995   28.6620 O.2     1  UNL1       -0.4077
     13 H           0.4914  -17.7733   28.4526 H       1  UNL1        0.3278
@<TRIPOS>BOND
     1     1     2    1
     2     2     3   ar
     3     3     4   ar
     4     4     5   ar
     5     5     8    1
     6     8    10    1
     7    10    11    2
     8    11    12    1
     9     5     6   ar
    10     6     7   ar
    11     7     2   ar
    12     8     9    1
    13    12    13    1
@<TRIPOS>MOLECULE
*****
 13 13 0 0 0
SMALL
GASTEIGER

@<TRIPOS>ATOM
      1 C         -13.5094  -17.9156   23.7462 C.3     1  UNL1        0.0310
      2 C         -12.4601  -18.1904   22.7102 C.ar    1  UNL1       -0.0218
      3 C         -12.5289  -17.5115   21.3744 C.ar    1  UNL1       -0.0030
      4 C         -11.4796  -17.7864   20.3384 C.ar    1  UNL1        0.0143
      5 C         -10.3614  -18.7402   20.6382 C.ar    1  UNL1        0.0495
      6 C         -10.2926  -19.4191   21.9739 C.ar    1  UNL1        0.0143
      7 C         -11.3419  -19.1442   23.0099 C.ar    1  UNL1       -0.0030
      8 N          -9.3120  -19.0151   19.6022 N.pl3   1  UNL1       -0.2930
      9 H          -9.5397  -18.9652   18.6456 H       1  UNL1        0.1538
     10 C          -7.9159  -19.3659   20.0235 C.2     1  UNL1        0.2056
     11 N          -7.0084  -18.3042   20.5705 N.2     1  UNL1       -0.0679
     12 O          -5.6121  -18.6550   20.9919 O.2     1  UNL1       -0.4077
     13 H          -5.0453  -17.9918   21.3336 H       1  UNL1        0.3278
@<TRIPOS>BOND
     1     1     2    1
     2     2     3   ar
     3     3     4   ar
     4     4     5   ar
     5     5     8    1
     6     8    10    1
     7    10    11    2
     8    11    12    1
     9     5     6   ar
    10     6     7   ar
    11     7     2   ar
    12     8     9    1
    13    12    13    1
@<TRIPOS>MOLECULE
*****
 13 13 0 0 0
SMALL
GASTEIGER

@<TRIPOS>ATOM
      1 C         -14.0948  -18.1669   24.2236 C.3     1  UNL1        0.0310
      2 C         -12.7806  -17.7874   23.6082 C.ar    1  UNL1       -0.0218
      3 C         -11.5510  -18.5918   23.9100 C.ar    1  UNL1       -0.0030
      4 C         -10.2368  -18.2123   23.2946 C.ar    1  UNL1        0.0143
      5 C         -10.1521  -17.0285   22.3774 C.ar    1  UNL1        0.0495
      6 C         -11.3816  -16.2241   22.0756 C.ar    1  UNL1        0.0143
      7 C         -12.6959  -16.6036   22.6910 C.ar    1  UNL1       -0.0030
      8 N          -8.8378  -16.6490   21.7620 N.pl3   1  UNL1       -0.2930
      9 H          -8.5042  -17.1361   20.9742 H       1  UNL1        0.1538
     10 C          -8.0317  -15.5274   22.3470 C.2     1  UNL1        0.2056
     11 N          -7.8281  -15.4446   23.8308 N.2     1  UNL1       -0.0679
     12 O          -7.0220  -14.3229   24.4158 O.2     1  UNL1       -0.4077
     13 H          -6.8948  -14.2712   25.3426 H       1  UNL1        0.3278
@<TRIPOS>BOND
     1     1     2    1
     2     2     3   ar
     3     3     4   ar
     4     4     5   ar
     5     5     8    1
     6     8    10    1
     7    10    11    2
     8    11    12    1
     9     5     6   ar
    10     6     7   ar
    11     7     2   ar
    12     8     9    1
    13    12    13    1
@<TRIPOS>MOLECULE
*****
 13 13 0 0 0
SMALL
GASTEIGER

@<TRIPOS>ATOM
      1 C         -14.2433  -18.2544   24.2715 C.3     1  UNL1        0.0310
      2 C         -12.9604  -17.8113   23.6329 C.ar    1  UNL1       -0.0218
      3 C         -12.9541  -16.6389   22.6973 C.ar    1  UNL1       -0.0030
      4 C         -11.6711  -16.1959   22.0587 C.ar    1  UNL1        0.0143
      5 C         -10.3945  -16.9252   22.3558 C.ar    1  UNL1        0.0495
      6 C         -10.4008  -18.0975   23.2914 C.ar    1  UNL1        0.0143
      7 C         -11.6838  -18.5406   23.9300 C.ar    1  UNL1       -0.0030
      8 N          -9.1116  -16.4821   21.7173 N.pl3   1  UNL1       -0.2930
      9 H          -9.1133  -15.7356   21.0754 H       1  UNL1        0.1538
     10 C          -7.8260  -17.1763   22.0566 C.2     1  UNL1        0.2056
     11 N          -7.1142  -17.9878   21.0151 N.2     1  UNL1       -0.0679
     12 O          -5.8285  -18.6821   21.3545 O.2     1  UNL1       -0.4077
     13 H          -5.3839  -19.1890   20.7039 H       1  UNL1        0.3278
@<TRIPOS>BOND
     1     1     2    1
     2     2     3   ar
     3     3     4   ar
     4     4     5   ar
     5     5     8    1
     6     8    10    1
     7    10    11    2
     8    11    12    1
     9     5     6   ar
    10     6     7   ar
    11     7     2   ar
    12     8     9    1
    13    12    13    1
@<TRIPOS>MOLECULE
*****
 13 13 0 0 0
SMALL
GASTEIGER

@<TRIPOS>ATOM
      1 C          -0.4718  -17.9484   19.8058 C.3     1  UNL1        0.0310
      2 C          -1.7994  -18.4297   20.3116 C.ar    1  UNL1       -0.0218
      3 C          -2.8709  -18.8309   19.3416 C.ar    1  UNL1       -0.0030
      4 C          -4.1985  -19.3122   19.8474 C.ar    1  UNL1        0.0143
      5 C          -4.4546  -19.3924   21.3231 C.ar    1  UNL1        0.0495
      6 C          -3.3831  -18.9912   22.2931 C.ar    1  UNL1        0.0143
      7 C          -2.0555  -18.5099   21.7873 C.ar    1  UNL1       -0.0030
      8 N          -5.7822  -19.8737   21.8289 N.pl3   1  UNL1       -0.2930
      9 H          -5.9363  -20.8360   21.9685 H       1  UNL1        0.1538
     10 C          -6.8749  -18.8889   22.1220 C.2     1  UNL1        0.2056
     11 N          -7.3022  -17.9078   21.0709 N.2     1  UNL1       -0.0679
     12 O          -8.3950  -16.9229   21.3640 O.2     1  UNL1       -0.4077
     13 H          -8.6619  -16.3101   20.7074 H       1  UNL1        0.3278
@<TRIPOS>BOND
     1     1     2    1
     2     2     3   ar
     3     3     4   ar
     4     4     5   ar
     5     5     8    1
     6     8    10    1
     7    10    11    2
     8    11    12    1
     9     5     6   ar
    10     6     7   ar
    11     7     2   ar
    12     8     9    1
    13    12    13    1
@<TRIPOS>MOLECULE
*****
 13 13 0 0 0
SMALL
GASTEIGER

@<TRIPOS>ATOM
      1 C          -6.8298  -15.4336   27.4039 C.3     1  UNL1        0.0310
      2 C          -7.3021  -15.5705   25.9869 C.ar    1  UNL1       -0.0218
      3 C          -8.7058  -16.0172   25.7040 C.ar    1  UNL1       -0.0030
      4 C          -9.1782  -16.1541   24.2869 C.ar    1  UNL1        0.0143
      5 C          -8.2468  -15.8443   23.1527 C.ar    1  UNL1        0.0495
      6 C          -6.8431  -15.3976   23.4355 C.ar    1  UNL1        0.0143
      7 C          -6.3708  -15.2607   24.8526 C.ar    1  UNL1       -0.0030
      8 N          -8.7192  -15.9811   21.7356 N.pl3   1  UNL1       -0.2930
      9 H          -8.0761  -15.9110   20.9934 H       1  UNL1        0.1538
     10 C         -10.1713  -16.2249   21.4493 C.2     1  UNL1        0.2056
     11 N         -10.5780  -16.9522   20.2020 N.2     1  UNL1       -0.0679
     12 O         -12.0302  -17.1959   19.9157 O.2     1  UNL1       -0.4077
     13 H         -12.2843  -17.6502   19.1366 H       1  UNL1        0.3278
@<TRIPOS>BOND
     1     1     2    1
     2     2     3   ar
     3     3     4   ar
     4     4     5   ar
     5     5     8    1
     6     8    10    1
     7    10    11    2
     8    11    12    1
     9     5     6   ar
    10     6     7   ar
    11     7     2   ar
    12     8     9    1
    13    12    13    1
@<TRIPOS>MOLECULE
*****
 13 13 0 0 0
SMALL
GASTEIGER

@<TRIPOS>ATOM
      1 C          -8.0930  -19.1160   21.6651 C.3     1  UNL1        0.0310
      2 C          -6.6059  -19.2449   21.5172 C.ar    1  UNL1       -0.0218
      3 C          -5.6936  -18.5828   22.5066 C.ar    1  UNL1       -0.0030
      4 C          -4.2065  -18.7117   22.3587 C.ar    1  UNL1        0.0143
      5 C          -3.6317  -19.5029   21.2213 C.ar    1  UNL1        0.0495
      6 C          -4.5441  -20.1650   20.2318 C.ar    1  UNL1        0.0143
      7 C          -6.0312  -20.0361   20.3798 C.ar    1  UNL1       -0.0030
      8 N          -2.1446  -19.6318   21.0733 N.pl3   1  UNL1       -0.2930
      9 H          -1.6579  -20.3231   21.5777 H       1  UNL1        0.1538
     10 C          -1.3992  -18.7076   20.1568 C.2     1  UNL1        0.2056
     11 N          -1.8558  -18.5276   18.7394 N.2     1  UNL1       -0.0679
     12 O          -1.1102  -17.6032   17.8229 O.2     1  UNL1       -0.4077
     13 H          -1.3954  -17.4908   16.9375 H       1  UNL1        0.3278
@<TRIPOS>BOND
     1     1     2    1
     2     2     3   ar
     3     3     4   ar
     4     4     5   ar
     5     5     8    1
     6     8    10    1
     7    10    11    2
     8    11    12    1
     9     5     6   ar
    10     6     7   ar
    11     7     2   ar
    12     8     9    1
    13    12    13    1
@<TRIPOS>MOLECULE
*****
 13 13 0 0 0
SMALL
GASTEIGER

@<TRIPOS>ATOM
      1 C          -6.7450  -15.2121   25.2024 C.3     1  UNL1        0.0310
      2 C          -7.8127  -15.8097   24.3347 C.ar    1  UNL1       -0.0218
      3 C          -8.9040  -16.6350   24.9494 C.ar    1  UNL1       -0.0030
      4 C          -9.9717  -17.2326   24.0817 C.ar    1  UNL1        0.0143
      5 C          -9.9481  -17.0049   22.5993 C.ar    1  UNL1        0.0495
      6 C          -8.8568  -16.1797   21.9846 C.ar    1  UNL1        0.0143
      7 C          -7.7891  -15.5820   22.8523 C.ar    1  UNL1       -0.0030
      8 N         -11.0158  -17.6025   21.7316 N.pl3   1  UNL1       -0.2930
      9 H         -11.5409  -18.3698   22.0553 H       1  UNL1        0.1538
     10 C         -11.2835  -17.0311   20.3708 C.2     1  UNL1        0.2056
     11 N         -12.3849  -16.0308   20.1808 N.2     1  UNL1       -0.0679
     12 O         -12.6526  -15.4593   18.8200 O.2     1  UNL1       -0.4077
     13 H         -13.3406  -14.8344   18.7012 H       1  UNL1        0.3278
@<TRIPOS>BOND
     1     1     2    1
     2     2     3   ar
     3     3     4   ar
     4     4     5   ar
     5     5     8    1
     6     8    10    1
     7    10    11    2
     8    11    12    1
     9     5     6   ar
    10     6     7   ar
    11     7     2   ar
    12     8     9    1
    13    12    13    1
@<TRIPOS>MOLECULE
*****
 13 13 0 0 0
SMALL
GASTEIGER

@<TRIPOS>ATOM
      1 C          -3.6737  -20.7653   19.8236 C.3     1  UNL1        0.0310
      2 C          -3.9104  -19.7651   20.9161 C.ar    1  UNL1       -0.0218
      3 C          -5.3089  -19.4634   21.3668 C.ar    1  UNL1       -0.0030
      4 C          -5.5455  -18.4632   22.4593 C.ar    1  UNL1        0.0143
      5 C          -4.3837  -17.7647   23.1012 C.ar    1  UNL1        0.0495
      6 C          -2.9852  -18.0664   22.6505 C.ar    1  UNL1        0.0143
      7 C          -2.7485  -19.0666   21.5580 C.ar    1  UNL1       -0.0030
      8 N          -4.6203  -16.7645   24.1937 N.pl3   1  UNL1       -0.2930
      9 H          -4.2713  -16.9323   25.0988 H       1  UNL1        0.1538
     10 C          -5.3887  -15.5085   23.9071 C.2     1  UNL1        0.2056
     11 N          -6.7905  -15.3538   24.4181 N.2     1  UNL1       -0.0679
     12 O          -7.5589  -14.0978   24.1316 O.2     1  UNL1       -0.4077
     13 H          -8.4345  -14.0011   24.4508 H       1  UNL1        0.3278
@<TRIPOS>BOND
     1     1     2    1
     2     2     3   ar
     3     3     4   ar
     4     4     5   ar
     5     5     8    1
     6     8    10    1
     7    10    11    2
     8    11    12    1
     9     5     6   ar
    10     6     7   ar
    11     7     2   ar
    12     8     9    1
    13    12    13    1
