@<TRIPOS>MOLECULE
*****
 27 31 0 0 0
SMALL
GASTEIGER

@<TRIPOS>ATOM
      1 C          -8.3151  -17.9332   22.9792 C.3     1  UNL1        0.0645
      2 C          -8.6187  -19.2781   22.3885 C.3     1  UNL1        0.0214
      3 C          -7.5614  -20.0171   21.6230 C.3     1  UNL1        0.0312
      4 C          -6.2004  -19.4111   21.4483 C.3     1  UNL1        0.1169
      5 C          -5.8967  -18.0662   22.0390 C.3     1  UNL1        0.0312
      6 C          -6.9541  -17.3273   22.8044 C.3     1  UNL1        0.0214
      7 O          -6.5041  -20.7561   20.8575 O.3     1  UNL1       -0.3560
      8 C          -5.4467  -21.4950   20.0920 C.3     1  UNL1        0.1464
      9 C          -4.0857  -20.8891   19.9173 C.3     1  UNL1        0.0561
     10 C          -3.7821  -19.5442   20.5080 C.2     1  UNL1       -0.0161
     11 C          -2.5413  -18.7013   20.4999 C.ar    1  UNL1        0.0113
     12 C          -1.1845  -18.9184   19.8983 C.ar    1  UNL1        0.0009
     13 C          -0.1181  -17.8754   20.0572 C.ar    1  UNL1        0.0001
     14 C          -0.4086  -16.6155   20.8176 C.ar    1  UNL1        0.0015
     15 C          -1.7655  -16.3985   21.4192 C.ar    1  UNL1        0.0187
     16 C          -2.8318  -17.4414   21.2604 C.ar    1  UNL1        0.0758
     17 N          -4.2521  -17.5056   21.7385 N.2     1  UNL1       -0.2659
     18 C          -4.8394  -18.8052   21.2735 C.3     1  UNL1        0.1463
     19 C          -9.7428  -18.0910   23.4112 C.ar    1  UNL1       -0.0093
     20 C         -10.8262  -17.3205   22.7166 C.ar    1  UNL1       -0.0030
     21 C         -12.2539  -17.4784   23.1488 C.ar    1  UNL1       -0.0003
     22 C         -12.5982  -18.4068   24.2754 C.ar    1  UNL1       -0.0000
     23 C         -11.5148  -19.1774   24.9700 C.ar    1  UNL1       -0.0003
     24 C         -10.0871  -19.0195   24.5379 C.ar    1  UNL1       -0.0030
     25 C          -8.7983  -16.6592   25.1913 C.3     1  UNL1        0.0898
     26 N          -8.5072  -16.6431   23.7199 N.3     1  UNL1       -0.2693
     27 C          -8.4082  -15.3368   22.9893 C.3     1  UNL1        0.0898
@<TRIPOS>BOND
     1    25    26    1
     2    26    27    1
     3     1    26    1
     4     1    19    1
     5    19    20   ar
     6    20    21   ar
     7    21    22   ar
     8    22    23   ar
     9    23    24   ar
    10     1     2    1
    11     2     3    1
    12     4     3    1
    13     4     5    1
    14     5     6    1
    15     4     7    1
    16     7     8    1
    17     8     9    1
    18     9    10    1
    19    10    11    2
    20    11    12   ar
    21    12    13   ar
    22    13    14   ar
    23    14    15   ar
    24    15    16   ar
    25    16    17    2
    26    17    18    1
    27     6     1    1
    28    18    10    1
    29    24    19   ar
    30    18     4    1
    31    16    11   ar
@<TRIPOS>MOLECULE
*****
 27 31 0 0 0
SMALL
GASTEIGER

@<TRIPOS>ATOM
      1 C         -15.2512   -6.9791   18.2733 C.3     1  UNL1        0.0645
      2 C         -14.0015   -7.6681   18.7352 C.3     1  UNL1        0.0214
      3 C         -12.7119   -6.9065   18.8175 C.3     1  UNL1        0.0312
      4 C         -12.6719   -5.4559   18.4379 C.3     1  UNL1        0.1169
      5 C         -13.9216   -4.7669   17.9759 C.3     1  UNL1        0.0312
      6 C         -15.2113   -5.5285   17.8936 C.3     1  UNL1        0.0214
      7 O         -11.4221   -6.1449   18.8998 O.3     1  UNL1       -0.3560
      8 C         -10.1325   -5.3834   18.9821 C.3     1  UNL1        0.1464
      9 C         -10.0926   -3.9327   18.6024 C.3     1  UNL1        0.0561
     10 C         -11.3423   -3.2437   18.1405 C.2     1  UNL1       -0.0161
     11 C         -11.6081   -1.8335   17.7038 C.ar    1  UNL1        0.0113
     12 C         -10.7140   -0.6354   17.5813 C.ar    1  UNL1        0.0009
     13 C         -11.2739    0.6729   17.1067 C.ar    1  UNL1        0.0001
     14 C         -12.7278    0.7828   16.7545 C.ar    1  UNL1        0.0015
     15 C         -13.6219   -0.4154   16.8770 C.ar    1  UNL1        0.0187
     16 C         -13.0620   -1.7236   17.3516 C.ar    1  UNL1        0.0758
     17 N         -13.6948   -3.0658   17.5706 N.2     1  UNL1       -0.2659
     18 C         -12.6320   -4.0053   18.0582 C.3     1  UNL1        0.1463
     19 C         -15.7902   -8.3565   18.5226 C.ar    1  UNL1       -0.0093
     20 C         -16.9252   -8.5554   19.4829 C.ar    1  UNL1       -0.0030
     21 C         -17.4642   -9.9329   19.7321 C.ar    1  UNL1       -0.0003
     22 C         -16.8681  -11.1114   19.0210 C.ar    1  UNL1       -0.0000
     23 C         -15.7331  -10.9126   18.0607 C.ar    1  UNL1       -0.0003
     24 C         -15.1942   -9.5351   17.8115 C.ar    1  UNL1       -0.0030
     25 C         -17.2268   -7.3617   16.6299 C.3     1  UNL1        0.0898
     26 N         -16.6881   -6.7684   17.8979 N.3     1  UNL1       -0.2693
     27 C         -17.5863   -5.9644   18.7906 C.3     1  UNL1        0.0898
@<TRIPOS>BOND
     1    25    26    1
     2    26    27    1
     3     1    26    1
     4     1    19    1
     5    19    20   ar
     6    20    21   ar
     7    21    22   ar
     8    22    23   ar
     9    23    24   ar
    10     1     2    1
    11     2     3    1
    12     4     3    1
    13     4     5    1
    14     5     6    1
    15     4     7    1
    16     7     8    1
    17     8     9    1
    18     9    10    1
    19    10    11    2
    20    11    12   ar
    21    12    13   ar
    22    13    14   ar
    23    14    15   ar
    24    15    16   ar
    25    16    17    2
    26    17    18    1
    27     6     1    1
    28    18    10    1
    29    24    19   ar
    30    18     4    1
    31    16    11   ar
@<TRIPOS>MOLECULE
*****
 27 31 0 0 0
SMALL
GASTEIGER

@<TRIPOS>ATOM
      1 C           2.4445    0.6175   25.9445 C.3     1  UNL1        0.0645
      2 C           1.3229    1.3380   25.2569 C.3     1  UNL1        0.0214
      3 C           1.0528    1.0908   23.8023 C.3     1  UNL1        0.0312
      4 C           1.9043    0.1230   23.0353 C.3     1  UNL1        0.1169
      5 C           3.0259   -0.5975   23.7228 C.3     1  UNL1        0.0312
      6 C           3.2960   -0.3502   25.1774 C.3     1  UNL1        0.0214
      7 O           0.7826    0.8436   22.3477 O.3     1  UNL1       -0.3560
      8 C           0.5125    0.5963   20.8931 C.3     1  UNL1        0.1464
      9 C           1.3640   -0.3715   20.1260 C.3     1  UNL1        0.0561
     10 C           2.4857   -1.0920   20.8136 C.2     1  UNL1       -0.0161
     11 C           3.4856   -2.0954   20.3205 C.ar    1  UNL1        0.0113
     12 C           3.7022   -2.7177   18.9730 C.ar    1  UNL1        0.0009
     13 C           4.8070   -3.7130   18.7753 C.ar    1  UNL1        0.0001
     14 C           5.6951   -4.0859   19.9251 C.ar    1  UNL1        0.0015
     15 C           5.4785   -3.4636   21.2727 C.ar    1  UNL1        0.0187
     16 C           4.3738   -2.4683   21.4704 C.ar    1  UNL1        0.0758
     17 N           3.9227   -1.6954   22.6741 N.2     1  UNL1       -0.2659
     18 C           2.7558   -0.8447   22.2683 C.3     1  UNL1        0.1463
     19 C           1.9192    1.4334   27.0883 C.ar    1  UNL1       -0.0093
     20 C           2.6010    2.7132   27.4722 C.ar    1  UNL1       -0.0030
     21 C           2.0756    3.5290   28.6161 C.ar    1  UNL1       -0.0003
     22 C           0.8685    3.0651   29.3760 C.ar    1  UNL1       -0.0000
     23 C           0.1867    1.7854   28.9921 C.ar    1  UNL1       -0.0003
     24 C           0.7120    0.9695   27.8483 C.ar    1  UNL1       -0.0030
     25 C           4.7535    0.7843   27.1239 C.3     1  UNL1        0.0898
     26 N           3.3837    0.1804   27.0292 N.3     1  UNL1       -0.2693
     27 C           2.9531   -0.8609   28.0195 C.3     1  UNL1        0.0898
@<TRIPOS>BOND
     1    25    26    1
     2    26    27    1
     3     1    26    1
     4     1    19    1
     5    19    20   ar
     6    20    21   ar
     7    21    22   ar
     8    22    23   ar
     9    23    24   ar
    10     1     2    1
    11     2     3    1
    12     4     3    1
    13     4     5    1
    14     5     6    1
    15     4     7    1
    16     7     8    1
    17     8     9    1
    18     9    10    1
    19    10    11    2
    20    11    12   ar
    21    12    13   ar
    22    13    14   ar
    23    14    15   ar
    24    15    16   ar
    25    16    17    2
    26    17    18    1
    27     6     1    1
    28    18    10    1
    29    24    19   ar
    30    18     4    1
    31    16    11   ar
@<TRIPOS>MOLECULE
*****
 27 31 0 0 0
SMALL
GASTEIGER

@<TRIPOS>ATOM
      1 C           0.8122    1.9577   19.5014 C.3     1  UNL1        0.0645
      2 C           0.7973    2.7730   18.2425 C.3     1  UNL1        0.0214
      3 C          -0.3753    3.6563   17.9348 C.3     1  UNL1        0.0312
      4 C          -1.5331    3.7242   18.8861 C.3     1  UNL1        0.1169
      5 C          -1.5183    2.9088   20.1450 C.3     1  UNL1        0.0312
      6 C          -0.3457    2.0256   20.4527 C.3     1  UNL1        0.0214
      7 O          -1.5480    4.5396   17.6271 O.3     1  UNL1       -0.3560
      8 C          -2.7206    5.4228   17.3194 C.3     1  UNL1        0.1464
      9 C          -3.8785    5.4907   18.2706 C.3     1  UNL1        0.0561
     10 C          -3.8636    4.6754   19.5296 C.2     1  UNL1       -0.0161
     11 C          -4.8536    4.5378   20.6481 C.ar    1  UNL1        0.0113
     12 C          -6.1933    5.1692   20.8860 C.ar    1  UNL1        0.0009
     13 C          -6.9722    4.8324   22.1229 C.ar    1  UNL1        0.0001
     14 C          -6.4114    3.8641   23.1219 C.ar    1  UNL1        0.0015
     15 C          -5.0716    3.2327   22.8839 C.ar    1  UNL1        0.0187
     16 C          -4.2928    3.5696   21.6471 C.ar    1  UNL1        0.0758
     17 N          -2.9562    3.1087   21.1460 N.2     1  UNL1       -0.2659
     18 C          -2.6909    3.7920   19.8373 C.3     1  UNL1        0.1463
     19 C           2.1347    1.5584   18.9170 C.ar    1  UNL1       -0.0093
     20 C           2.2642    0.2649   18.1687 C.ar    1  UNL1       -0.0030
     21 C           3.5868   -0.1343   17.5843 C.ar    1  UNL1       -0.0003
     22 C           4.7797    0.7600   17.7482 C.ar    1  UNL1       -0.0000
     23 C           4.6502    2.0536   18.4965 C.ar    1  UNL1       -0.0003
     24 C           3.3277    2.4527   19.0809 C.ar    1  UNL1       -0.0030
     25 C           2.1420    1.4984   21.6857 C.3     1  UNL1        0.0898
     26 N           1.2863    1.0036   20.5574 N.3     1  UNL1       -0.2693
     27 C           0.9046   -0.4452   20.4851 C.3     1  UNL1        0.0898
@<TRIPOS>BOND
     1    25    26    1
     2    26    27    1
     3     1    26    1
     4     1    19    1
     5    19    20   ar
     6    20    21   ar
     7    21    22   ar
     8    22    23   ar
     9    23    24   ar
    10     1     2    1
    11     2     3    1
    12     4     3    1
    13     4     5    1
    14     5     6    1
    15     4     7    1
    16     7     8    1
    17     8     9    1
    18     9    10    1
    19    10    11    2
    20    11    12   ar
    21    12    13   ar
    22    13    14   ar
    23    14    15   ar
    24    15    16   ar
    25    16    17    2
    26    17    18    1
    27     6     1    1
    28    18    10    1
    29    24    19   ar
    30    18     4    1
    31    16    11   ar
@<TRIPOS>MOLECULE
*****
 27 31 0 0 0
SMALL
GASTEIGER

@<TRIPOS>ATOM
      1 C         -12.3113   -4.4839   18.2584 C.3     1  UNL1        0.0645
      2 C         -13.3852   -5.4664   18.6206 C.3     1  UNL1        0.0214
      3 C         -14.7361   -4.9763   19.0504 C.3     1  UNL1        0.0312
      4 C         -15.0130   -3.5037   19.1181 C.3     1  UNL1        0.1169
      5 C         -13.9391   -2.5211   18.7560 C.3     1  UNL1        0.0312
      6 C         -12.5882   -3.0112   18.3261 C.3     1  UNL1        0.0214
      7 O         -16.0871   -4.4862   19.4803 O.3     1  UNL1       -0.3560
      8 C         -17.4379   -3.9961   19.9102 C.3     1  UNL1        0.1464
      9 C         -17.7149   -2.5235   19.9779 C.3     1  UNL1        0.0561
     10 C         -16.6409   -1.5409   19.6158 C.2     1  UNL1       -0.0161
     11 C         -16.6207   -0.0413   19.5869 C.ar    1  UNL1        0.0113
     12 C         -17.6677    0.9829   19.9105 C.ar    1  UNL1        0.0009
     13 C         -17.3513    2.4440   19.7863 C.ar    1  UNL1        0.0001
     14 C         -15.9879    2.8807   19.3386 C.ar    1  UNL1        0.0015
     15 C         -14.9409    1.8563   19.0150 C.ar    1  UNL1        0.0187
     16 C         -15.2573    0.3954   19.1392 C.ar    1  UNL1        0.0758
     17 N         -14.4349   -0.8343   18.8913 N.2     1  UNL1       -0.2659
     18 C         -15.2900   -2.0310   19.1859 C.3     1  UNL1        0.1463
     19 C         -11.5721   -5.7705   18.0383 C.ar    1  UNL1       -0.0093
     20 C         -11.9305   -6.6527   16.8794 C.ar    1  UNL1       -0.0030
     21 C         -11.1913   -7.9392   16.6594 C.ar    1  UNL1       -0.0003
     22 C         -10.0937   -8.3435   17.5984 C.ar    1  UNL1       -0.0000
     23 C          -9.7353   -7.4613   18.7574 C.ar    1  UNL1       -0.0003
     24 C         -10.4745   -6.1748   18.9774 C.ar    1  UNL1       -0.0030
     25 C         -10.6427   -3.8825   16.3598 C.3     1  UNL1        0.0898
     26 N         -10.9806   -3.9482   17.8198 N.3     1  UNL1       -0.2693
     27 C          -9.9878   -3.4780   18.8412 C.3     1  UNL1        0.0898
@<TRIPOS>BOND
     1    25    26    1
     2    26    27    1
     3     1    26    1
     4     1    19    1
     5    19    20   ar
     6    20    21   ar
     7    21    22   ar
     8    22    23   ar
     9    23    24   ar
    10     1     2    1
    11     2     3    1
    12     4     3    1
    13     4     5    1
    14     5     6    1
    15     4     7    1
    16     7     8    1
    17     8     9    1
    18     9    10    1
    19    10    11    2
    20    11    12   ar
    21    12    13   ar
    22    13    14   ar
    23    14    15   ar
    24    15    16   ar
    25    16    17    2
    26    17    18    1
    27     6     1    1
    28    18    10    1
    29    24    19   ar
    30    18     4    1
    31    16    11   ar
@<TRIPOS>MOLECULE
*****
 27 31 0 0 0
SMALL
GASTEIGER

@<TRIPOS>ATOM
      1 C          -1.6108    3.1996   25.5424 C.3     1  UNL1        0.0645
      2 C          -2.7243    3.5472   26.4854 C.3     1  UNL1        0.0214
      3 C          -4.0794    3.9004   25.9479 C.3     1  UNL1        0.0312
      4 C          -4.3210    3.9061   24.4675 C.3     1  UNL1        0.1169
      5 C          -3.2074    3.5586   23.5246 C.3     1  UNL1        0.0312
      6 C          -1.8523    3.2053   24.0620 C.3     1  UNL1        0.0214
      7 O          -5.4346    4.2537   25.4105 O.3     1  UNL1       -0.3560
      8 C          -6.7897    4.6069   24.8730 C.3     1  UNL1        0.1464
      9 C          -7.0312    4.6126   23.3926 C.3     1  UNL1        0.0561
     10 C          -5.9177    4.2651   22.4497 C.2     1  UNL1       -0.0161
     11 C          -5.8576    4.1865   20.9530 C.ar    1  UNL1        0.0113
     12 C          -6.8908    4.4290   19.8929 C.ar    1  UNL1        0.0009
     13 C          -6.5318    4.2696   18.4452 C.ar    1  UNL1        0.0001
     14 C          -5.1395    3.8678   18.0576 C.ar    1  UNL1        0.0015
     15 C          -4.1063    3.6254   19.1177 C.ar    1  UNL1        0.0187
     16 C          -4.4654    3.7847   20.5654 C.ar    1  UNL1        0.0758
     17 N          -3.6650    3.6150   21.8225 N.2     1  UNL1       -0.2659
     18 C          -4.5625    3.9118   22.9871 C.3     1  UNL1        0.1463
     19 C          -0.8962    3.0559   26.8534 C.ar    1  UNL1       -0.0093
     20 C          -0.8680    1.7281   27.5506 C.ar    1  UNL1       -0.0030
     21 C          -0.1534    1.5844   28.8617 C.ar    1  UNL1       -0.0003
     22 C           0.5329    2.7686   29.4755 C.ar    1  UNL1       -0.0000
     23 C           0.5046    4.0964   28.7783 C.ar    1  UNL1       -0.0003
     24 C          -0.2099    4.2400   27.4673 C.ar    1  UNL1       -0.0030
     25 C           0.7390    3.8551   24.6484 C.3     1  UNL1        0.0898
     26 N          -0.2491    2.8022   25.0548 N.3     1  UNL1       -0.2693
     27 C           0.1246    1.3517   24.9734 C.3     1  UNL1        0.0898
@<TRIPOS>BOND
     1    25    26    1
     2    26    27    1
     3     1    26    1
     4     1    19    1
     5    19    20   ar
     6    20    21   ar
     7    21    22   ar
     8    22    23   ar
     9    23    24   ar
    10     1     2    1
    11     2     3    1
    12     4     3    1
    13     4     5    1
    14     5     6    1
    15     4     7    1
    16     7     8    1
    17     8     9    1
    18     9    10    1
    19    10    11    2
    20    11    12   ar
    21    12    13   ar
    22    13    14   ar
    23    14    15   ar
    24    15    16   ar
    25    16    17    2
    26    17    18    1
    27     6     1    1
    28    18    10    1
    29    24    19   ar
    30    18     4    1
    31    16    11   ar
@<TRIPOS>MOLECULE
*****
 27 31 0 0 0
SMALL
GASTEIGER

@<TRIPOS>ATOM
      1 C           3.4737   -1.0096   21.7178 C.3     1  UNL1        0.0645
      2 C           4.3927   -1.9143   22.4839 C.3     1  UNL1        0.0214
      3 C           4.4498   -1.8322   23.9805 C.3     1  UNL1        0.0312
      4 C           3.5880   -0.8454   24.7110 C.3     1  UNL1        0.1169
      5 C           2.6691    0.0593   23.9449 C.3     1  UNL1        0.0312
      6 C           2.6120   -0.0228   22.4482 C.3     1  UNL1        0.0214
      7 O           4.5070   -1.7502   25.4773 O.3     1  UNL1       -0.3560
      8 C           4.5641   -1.6681   26.9739 C.3     1  UNL1        0.1464
      9 C           3.7024   -0.6813   27.7044 C.3     1  UNL1        0.0561
     10 C           2.7835    0.2234   26.9382 C.2     1  UNL1       -0.0161
     11 C           1.8234    1.2874   27.3811 C.ar    1  UNL1        0.0113
     12 C           1.4575    1.8066   28.7399 C.ar    1  UNL1        0.0009
     13 C           0.4410    2.9013   28.8759 C.ar    1  UNL1        0.0001
     14 C          -0.2096    3.4768   27.6530 C.ar    1  UNL1        0.0015
     15 C           0.1564    2.9576   26.2940 C.ar    1  UNL1        0.0187
     16 C           1.1728    1.8629   26.1581 C.ar    1  UNL1        0.0758
     17 N           1.7309    1.1546   24.9594 N.2     1  UNL1       -0.2659
     18 C           2.7263    0.1414   25.4415 C.3     1  UNL1        0.1463
     19 C           4.0907   -1.7744   20.5845 C.ar    1  UNL1       -0.0093
     20 C           5.4035   -1.3330   20.0085 C.ar    1  UNL1       -0.0030
     21 C           6.0204   -2.0979   18.8751 C.ar    1  UNL1       -0.0003
     22 C           5.3246   -3.3042   18.3179 C.ar    1  UNL1       -0.0000
     23 C           4.0118   -3.7456   18.8939 C.ar    1  UNL1       -0.0003
     24 C           3.3949   -2.9808   20.0271 C.ar    1  UNL1       -0.0030
     25 C           3.4425    0.7211   19.7803 C.3     1  UNL1        0.0898
     26 N           2.7691   -0.3705   20.5580 N.3     1  UNL1       -0.2693
     27 C           1.3909   -0.8230   20.1760 C.3     1  UNL1        0.0898
@<TRIPOS>BOND
     1    25    26    1
     2    26    27    1
     3     1    26    1
     4     1    19    1
     5    19    20   ar
     6    20    21   ar
     7    21    22   ar
     8    22    23   ar
     9    23    24   ar
    10     1     2    1
    11     2     3    1
    12     4     3    1
    13     4     5    1
    14     5     6    1
    15     4     7    1
    16     7     8    1
    17     8     9    1
    18     9    10    1
    19    10    11    2
    20    11    12   ar
    21    12    13   ar
    22    13    14   ar
    23    14    15   ar
    24    15    16   ar
    25    16    17    2
    26    17    18    1
    27     6     1    1
    28    18    10    1
    29    24    19   ar
    30    18     4    1
    31    16    11   ar
@<TRIPOS>MOLECULE
*****
 27 31 0 0 0
SMALL
GASTEIGER

@<TRIPOS>ATOM
      1 C         -16.8736   -6.4565   18.6233 C.3     1  UNL1        0.0645
      2 C         -15.8858   -7.5370   18.9497 C.3     1  UNL1        0.0214
      3 C         -14.4172   -7.2323   18.9605 C.3     1  UNL1        0.0312
      4 C         -13.9363   -5.8470   18.6448 C.3     1  UNL1        0.1169
      5 C         -14.9241   -4.7664   18.3183 C.3     1  UNL1        0.0312
      6 C         -16.3927   -5.0712   18.3076 C.3     1  UNL1        0.0214
      7 O         -12.9484   -6.9276   18.9712 O.3     1  UNL1       -0.3560
      8 C         -11.4798   -6.6228   18.9820 C.3     1  UNL1        0.1464
      9 C         -10.9989   -5.2375   18.6663 C.3     1  UNL1        0.0561
     10 C         -11.9867   -4.1569   18.3399 C.2     1  UNL1       -0.0161
     11 C         -11.8113   -2.7087   17.9906 C.ar    1  UNL1        0.0113
     12 C         -10.5886   -1.8513   17.8497 C.ar    1  UNL1        0.0009
     13 C         -10.7262   -0.4035   17.4821 C.ar    1  UNL1        0.0001
     14 C         -12.0864    0.1868   17.2555 C.ar    1  UNL1        0.0015
     15 C         -13.3091   -0.6707   17.3964 C.ar    1  UNL1        0.0187
     16 C         -13.1715   -2.1184   17.7640 C.ar    1  UNL1        0.0758
     17 N         -14.1877   -3.2018   17.9732 N.2     1  UNL1       -0.2659
     18 C         -13.4555   -4.4616   18.3291 C.3     1  UNL1        0.1463
     19 C         -17.8106   -7.6050   18.8533 C.ar    1  UNL1       -0.0093
     20 C         -17.9259   -8.6955   17.8298 C.ar    1  UNL1       -0.0030
     21 C         -18.8630   -9.8440   18.0600 C.ar    1  UNL1       -0.0003
     22 C         -19.6846   -9.9020   19.3136 C.ar    1  UNL1       -0.0000
     23 C         -19.5693   -8.8115   20.3370 C.ar    1  UNL1       -0.0003
     24 C         -18.6323   -7.6630   20.1069 C.ar    1  UNL1       -0.0030
     25 C         -18.7842   -4.8931   19.4330 C.3     1  UNL1        0.0898
     26 N         -18.1868   -5.7748   18.3767 N.3     1  UNL1       -0.2693
     27 C         -18.9026   -5.9748   17.0738 C.3     1  UNL1        0.0898
@<TRIPOS>BOND
     1    25    26    1
     2    26    27    1
     3     1    26    1
     4     1    19    1
     5    19    20   ar
     6    20    21   ar
     7    21    22   ar
     8    22    23   ar
     9    23    24   ar
    10     1     2    1
    11     2     3    1
    12     4     3    1
    13     4     5    1
    14     5     6    1
    15     4     7    1
    16     7     8    1
    17     8     9    1
    18     9    10    1
    19    10    11    2
    20    11    12   ar
    21    12    13   ar
    22    13    14   ar
    23    14    15   ar
    24    15    16   ar
    25    16    17    2
    26    17    18    1
    27     6     1    1
    28    18    10    1
    29    24    19   ar
    30    18     4    1
    31    16    11   ar
@<TRIPOS>MOLECULE
*****
 27 31 0 0 0
SMALL
GASTEIGER

@<TRIPOS>ATOM
      1 C           3.8653   -0.9002   21.3025 C.3     1  UNL1        0.0645
      2 C           3.3273   -0.1759   20.1042 C.3     1  UNL1        0.0214
      3 C           2.1979    0.7986   20.2615 C.3     1  UNL1        0.0312
      4 C           1.6066    1.0488   21.6171 C.3     1  UNL1        0.1169
      5 C           2.1446    0.3246   22.8154 C.3     1  UNL1        0.0312
      6 C           3.2740   -0.6499   22.6581 C.3     1  UNL1        0.0214
      7 O           1.0685    1.7732   20.4188 O.3     1  UNL1       -0.3560
      8 C          -0.0609    2.7477   20.5761 C.3     1  UNL1        0.1464
      9 C          -0.6522    2.9979   21.9317 C.3     1  UNL1        0.0561
     10 C          -0.1142    2.2737   23.1300 C.2     1  UNL1       -0.0161
     11 C          -0.4924    2.3145   24.5809 C.ar    1  UNL1        0.0113
     12 C          -1.5367    3.0935   25.3244 C.ar    1  UNL1        0.0009
     13 C          -1.6854    2.9232   26.8073 C.ar    1  UNL1        0.0001
     14 C          -0.7898    1.9739   27.5467 C.ar    1  UNL1        0.0015
     15 C           0.2545    1.1949   26.8032 C.ar    1  UNL1        0.0187
     16 C           0.4032    1.3652   25.3204 C.ar    1  UNL1        0.0758
     17 N           1.3350    0.7377   24.3264 N.2     1  UNL1       -0.2659
     18 C           1.0152    1.2991   22.9727 C.3     1  UNL1        0.1463
     19 C           4.7503   -1.4709   20.2342 C.ar    1  UNL1       -0.0093
     20 C           4.2745   -2.6258   19.4038 C.ar    1  UNL1       -0.0030
     21 C           5.1596   -3.1964   18.3355 C.ar    1  UNL1       -0.0003
     22 C           6.5204   -2.6120   18.0978 C.ar    1  UNL1       -0.0000
     23 C           6.9962   -1.4571   18.9283 C.ar    1  UNL1       -0.0003
     24 C           6.1112   -0.8865   19.9964 C.ar    1  UNL1       -0.0030
     25 C           4.4045   -3.2906   22.1659 C.3     1  UNL1        0.0898
     26 N           4.7107   -1.8226   22.1298 N.3     1  UNL1       -0.2693
     27 C           5.8624   -1.2771   22.9211 C.3     1  UNL1        0.0898
@<TRIPOS>BOND
     1    25    26    1
     2    26    27    1
     3     1    26    1
     4     1    19    1
     5    19    20   ar
     6    20    21   ar
     7    21    22   ar
     8    22    23   ar
     9    23    24   ar
    10     1     2    1
    11     2     3    1
    12     4     3    1
    13     4     5    1
    14     5     6    1
    15     4     7    1
    16     7     8    1
    17     8     9    1
    18     9    10    1
    19    10    11    2
    20    11    12   ar
    21    12    13   ar
    22    13    14   ar
    23    14    15   ar
    24    15    16   ar
    25    16    17    2
    26    17    18    1
    27     6     1    1
    28    18    10    1
    29    24    19   ar
    30    18     4    1
    31    16    11   ar
