@<TRIPOS>MOLECULE
*****
 30 33 0 0 0
SMALL
GASTEIGER

@<TRIPOS>ATOM
      1 C           7.8895   -7.0973   26.5310 C.ar    1  UNL1        0.1247
      2 C           8.0179   -8.5867   26.4079 C.ar    1  UNL1        0.1182
      3 N           8.2791   -9.1441   27.7758 N.ar    1  UNL1       -0.2208
      4 N           8.3122   -7.9990   28.7443 N.ar    1  UNL1       -0.0633
      5 N           8.0713   -6.7341   27.9749 N.ar    1  UNL1       -0.1287
      6 C           7.0976   -4.2233   23.1601 C.ar    1  UNL1        0.1486
      7 C           6.5683   -3.9329   24.5332 C.ar    1  UNL1        0.0375
      8 C           6.8322   -4.8909   25.6568 C.ar    1  UNL1        0.0063
      9 C           7.6255   -6.1393   25.4073 C.ar    1  UNL1        0.0403
     10 C           8.1548   -6.4297   24.0342 C.ar    1  UNL1        0.1021
     11 N           7.8908   -5.4717   22.9106 N.ar    1  UNL1       -0.2263
     12 C           4.2980   -3.9271   21.5094 C.3     1  UNL1        0.0722
     13 C           5.5468   -3.1291   21.2777 C.ar    1  UNL1        0.1258
     14 N           5.7281   -2.0549   20.2466 N.ar    1  UNL1       -0.2289
     15 C           7.1269   -1.5271   20.3680 C.ar    1  UNL1        0.1192
     16 C           7.8102   -2.2751   21.4742 C.ar    1  UNL1        0.1031
     17 N           6.8336   -3.2652   22.0364 N.ar    1  UNL1       -0.2771
     18 C           8.4732  -10.5921   28.1156 C.3     1  UNL1        0.2139
     19 C           7.3597  -11.5714   27.8894 C.2     1  UNL1        0.2511
     20 O           7.6734  -13.0006   27.5591 O.2     1  UNL1       -0.2726
     21 N           5.9326  -11.1214   27.9934 N.am    1  UNL1       -0.2816
     22 H           5.7267  -10.1834   28.2102 H       1  UNL1        0.1549
     23 C           4.8190  -12.1007   27.7672 C.ar    1  UNL1        0.0619
     24 C           4.6672  -12.7685   26.4327 C.ar    1  UNL1        0.0156
     25 C           3.5537  -13.7478   26.2065 C.ar    1  UNL1        0.0022
     26 C           2.5920  -14.0592   27.3148 C.ar    1  UNL1        0.0123
     27 C           2.7439  -13.3913   28.6493 C.ar    1  UNL1        0.0694
     28 CL          1.7823  -13.7027   29.7576 Cl      1  UNL1       -0.0813
     29 C           3.8574  -12.4121   28.8755 C.ar    1  UNL1        0.0816
     30 CL          4.0093  -11.7442   30.2100 Cl      1  UNL1       -0.0801
@<TRIPOS>BOND
     1    12    13    1
     2    13    14   ar
     3    14    15   ar
     4    15    16   ar
     5    16    17   ar
     6    17     6    1
     7     6     7   ar
     8     7     8   ar
     9     8     9   ar
    10     9     1    1
    11     1     2   ar
    12     2     3   ar
    13     3    18    1
    14    18    19    1
    15    19    20    2
    16    19    21   am
    17    21    23    1
    18    23    24   ar
    19    24    25   ar
    20    25    26   ar
    21    26    27   ar
    22    27    28    1
    23    27    29   ar
    24    29    30    1
    25     3     4   ar
    26     4     5   ar
    27     9    10   ar
    28    10    11   ar
    29    17    13   ar
    30    11     6   ar
    31     5     1   ar
    32    29    23   ar
    33    21    22    1
@<TRIPOS>MOLECULE
*****
 30 33 0 0 0
SMALL
GASTEIGER

@<TRIPOS>ATOM
      1 C           0.0426    2.0499   22.6331 C.ar    1  UNL1        0.1247
      2 C           0.8849    1.2012   21.7274 C.ar    1  UNL1        0.1182
      3 N           0.5179    1.5296   20.3106 N.ar    1  UNL1       -0.2208
      4 N          -0.5513    2.5813   20.3406 N.ar    1  UNL1       -0.0633
      5 N          -0.8450    2.9029   21.7760 N.ar    1  UNL1       -0.1287
      6 C           0.1582    2.0390   27.1316 C.ar    1  UNL1        0.1486
      7 C          -0.9486    2.7506   26.4115 C.ar    1  UNL1        0.0375
      8 C          -0.9871    2.7542   24.9121 C.ar    1  UNL1        0.0063
      9 C           0.0812    2.0463   24.1326 C.ar    1  UNL1        0.0403
     10 C           1.1880    1.3347   24.8527 C.ar    1  UNL1        0.1021
     11 N           1.2266    1.3311   26.3521 N.ar    1  UNL1       -0.2263
     12 C          -1.1828   -0.2098   29.0795 C.3     1  UNL1        0.0722
     13 C          -0.4196    1.0017   29.5264 C.ar    1  UNL1        0.1258
     14 N          -0.1388    1.3923   30.9472 N.ar    1  UNL1       -0.2289
     15 C           0.6512    2.6674   30.9300 C.ar    1  UNL1        0.1192
     16 C           0.8586    3.0648   29.4986 C.ar    1  UNL1        0.1031
     17 N           0.1968    2.0354   28.6311 N.ar    1  UNL1       -0.2771
     18 C           1.1151    0.9144   19.0798 C.3     1  UNL1        0.2139
     19 C           2.3192    0.0271   19.1935 C.2     1  UNL1        0.2511
     20 O           3.6522    0.5046   18.6983 O.2     1  UNL1       -0.2726
     21 N           2.1904   -1.3377   19.8025 N.am    1  UNL1       -0.2816
     22 H           1.3155   -1.6511   20.1275 H       1  UNL1        0.1549
     23 C           3.3945   -2.2249   19.9162 C.ar    1  UNL1        0.0619
     24 C           3.9012   -2.9596   18.7106 C.ar    1  UNL1        0.0156
     25 C           5.1053   -3.8469   18.8243 C.ar    1  UNL1        0.0022
     26 C           5.8026   -3.9994   20.1437 C.ar    1  UNL1        0.0123
     27 C           5.2958   -3.2648   21.3493 C.ar    1  UNL1        0.0694
     28 CL          5.9931   -3.4174   22.6685 Cl      1  UNL1       -0.0813
     29 C           4.0917   -2.3775   21.2355 C.ar    1  UNL1        0.0816
     30 CL          3.5849   -1.6428   22.4410 Cl      1  UNL1       -0.0801
@<TRIPOS>BOND
     1    12    13    1
     2    13    14   ar
     3    14    15   ar
     4    15    16   ar
     5    16    17   ar
     6    17     6    1
     7     6     7   ar
     8     7     8   ar
     9     8     9   ar
    10     9     1    1
    11     1     2   ar
    12     2     3   ar
    13     3    18    1
    14    18    19    1
    15    19    20    2
    16    19    21   am
    17    21    23    1
    18    23    24   ar
    19    24    25   ar
    20    25    26   ar
    21    26    27   ar
    22    27    28    1
    23    27    29   ar
    24    29    30    1
    25     3     4   ar
    26     4     5   ar
    27     9    10   ar
    28    10    11   ar
    29    17    13   ar
    30    11     6   ar
    31     5     1   ar
    32    29    23   ar
    33    21    22    1
@<TRIPOS>MOLECULE
*****
 30 33 0 0 0
SMALL
GASTEIGER

@<TRIPOS>ATOM
      1 C           6.6077   -2.2753   32.6887 C.ar    1  UNL1        0.1247
      2 C           6.1123   -3.5911   32.1661 C.ar    1  UNL1        0.1182
      3 N           7.2871   -4.3424   31.6135 N.ar    1  UNL1       -0.2208
      4 N           8.5086   -3.4908   31.7946 N.ar    1  UNL1       -0.0633
      5 N           8.0887   -2.2133   32.4591 N.ar    1  UNL1       -0.1287
      6 C           4.0923    0.9245   34.6081 C.ar    1  UNL1        0.1486
      7 C           3.5752    0.1803   33.4129 C.ar    1  UNL1        0.0375
      8 C           4.4137   -0.8863   32.7731 C.ar    1  UNL1        0.0063
      9 C           5.7692   -1.2086   33.3285 C.ar    1  UNL1        0.0403
     10 C           6.2863   -0.4644   34.5238 C.ar    1  UNL1        0.1021
     11 N           5.4479    0.6021   35.1636 N.ar    1  UNL1       -0.2263
     12 C           3.2667    1.0816   37.7615 C.3     1  UNL1        0.0722
     13 C           2.8744    2.0633   36.6974 C.ar    1  UNL1        0.1258
     14 N           2.0337    3.2896   36.8959 N.ar    1  UNL1       -0.2289
     15 C           1.8936    3.9754   35.5692 C.ar    1  UNL1        0.1192
     16 C           2.6477    3.1728   34.5507 C.ar    1  UNL1        0.1031
     17 N           3.2539    1.9911   35.2480 N.ar    1  UNL1       -0.2771
     18 C           7.2474   -5.7058   30.9894 C.3     1  UNL1        0.2139
     19 C           7.6936   -5.8941   29.5697 C.2     1  UNL1        0.2511
     20 O           9.1568   -5.9137   29.2397 O.2     1  UNL1       -0.2726
     21 N           6.6766   -6.0628   28.4801 N.am    1  UNL1       -0.2816
     22 H           5.7163   -6.0499   28.6967 H       1  UNL1        0.1549
     23 C           7.1228   -6.2511   27.0604 C.ar    1  UNL1        0.0619
     24 C           7.6127   -7.5919   26.5998 C.ar    1  UNL1        0.0156
     25 C           8.0589   -7.7802   25.1801 C.ar    1  UNL1        0.0022
     26 C           8.0150   -6.6276   24.2211 C.ar    1  UNL1        0.0123
     27 C           7.5251   -5.2869   24.6816 C.ar    1  UNL1        0.0694
     28 CL          7.4813   -4.1344   23.7226 Cl      1  UNL1       -0.0813
     29 C           7.0789   -5.0986   26.1013 C.ar    1  UNL1        0.0816
     30 CL          6.5890   -3.7578   26.5620 Cl      1  UNL1       -0.0801
@<TRIPOS>BOND
     1    12    13    1
     2    13    14   ar
     3    14    15   ar
     4    15    16   ar
     5    16    17   ar
     6    17     6    1
     7     6     7   ar
     8     7     8   ar
     9     8     9   ar
    10     9     1    1
    11     1     2   ar
    12     2     3   ar
    13     3    18    1
    14    18    19    1
    15    19    20    2
    16    19    21   am
    17    21    23    1
    18    23    24   ar
    19    24    25   ar
    20    25    26   ar
    21    26    27   ar
    22    27    28    1
    23    27    29   ar
    24    29    30    1
    25     3     4   ar
    26     4     5   ar
    27     9    10   ar
    28    10    11   ar
    29    17    13   ar
    30    11     6   ar
    31     5     1   ar
    32    29    23   ar
    33    21    22    1
@<TRIPOS>MOLECULE
*****
 30 33 0 0 0
SMALL
GASTEIGER

@<TRIPOS>ATOM
      1 C           4.7767   -0.5800   18.3707 C.ar    1  UNL1        0.1247
      2 C           5.7168   -0.8344   19.5115 C.ar    1  UNL1        0.1182
      3 N           6.7758   -1.7845   19.0365 N.ar    1  UNL1       -0.2208
      4 N           6.4902   -2.1173   17.6020 N.ar    1  UNL1       -0.0633
      5 N           5.2547   -1.3729   17.1905 N.ar    1  UNL1       -0.1287
      6 C           1.1577    2.0926   18.4712 C.ar    1  UNL1        0.1486
      7 C           2.5291    2.6811   18.6231 C.ar    1  UNL1        0.0375
      8 C           3.7353    1.7902   18.5896 C.ar    1  UNL1        0.0063
      9 C           3.5703    0.3109   18.4042 C.ar    1  UNL1        0.0403
     10 C           2.1990   -0.2776   18.2522 C.ar    1  UNL1        0.1021
     11 N           0.9927    0.6133   18.2857 N.ar    1  UNL1       -0.2263
     12 C          -0.5553    2.9031   21.1280 C.3     1  UNL1        0.0722
     13 C          -0.8360    3.3560   19.7259 C.ar    1  UNL1        0.1258
     14 N          -1.9534    4.2610   19.2987 N.ar    1  UNL1       -0.2289
     15 C          -1.8566    4.4478   17.8135 C.ar    1  UNL1        0.1192
     16 C          -0.6795    3.6583   17.3228 C.ar    1  UNL1        0.1031
     17 N          -0.0486    2.9835   18.5047 N.ar    1  UNL1       -0.2771
     18 C           7.9196   -2.3096   19.8525 C.3     1  UNL1        0.2139
     19 C           7.7096   -3.4711   20.7782 C.2     1  UNL1        0.2511
     20 O           6.5225   -4.3700   20.5963 O.2     1  UNL1       -0.2726
     21 N           8.6864   -3.7336   21.8858 N.am    1  UNL1       -0.2816
     22 H           9.4655   -3.1436   22.0052 H       1  UNL1        0.1549
     23 C           8.4763   -4.8951   22.8115 C.ar    1  UNL1        0.0619
     24 C           9.0447   -6.2401   22.4680 C.ar    1  UNL1        0.0156
     25 C           8.8346   -7.4016   23.3937 C.ar    1  UNL1        0.0022
     26 C           8.0562   -7.2180   24.6628 C.ar    1  UNL1        0.0123
     27 C           7.4879   -5.8730   25.0062 C.ar    1  UNL1        0.0694
     28 CL          6.7095   -5.6894   26.2752 Cl      1  UNL1       -0.0813
     29 C           7.6980   -4.7115   24.0805 C.ar    1  UNL1        0.0816
     30 CL          7.1297   -3.3665   24.4238 Cl      1  UNL1       -0.0801
@<TRIPOS>BOND
     1    12    13    1
     2    13    14   ar
     3    14    15   ar
     4    15    16   ar
     5    16    17   ar
     6    17     6    1
     7     6     7   ar
     8     7     8   ar
     9     8     9   ar
    10     9     1    1
    11     1     2   ar
    12     2     3   ar
    13     3    18    1
    14    18    19    1
    15    19    20    2
    16    19    21   am
    17    21    23    1
    18    23    24   ar
    19    24    25   ar
    20    25    26   ar
    21    26    27   ar
    22    27    28    1
    23    27    29   ar
    24    29    30    1
    25     3     4   ar
    26     4     5   ar
    27     9    10   ar
    28    10    11   ar
    29    17    13   ar
    30    11     6   ar
    31     5     1   ar
    32    29    23   ar
    33    21    22    1
@<TRIPOS>MOLECULE
*****
 30 33 0 0 0
SMALL
GASTEIGER

@<TRIPOS>ATOM
      1 C           0.4842    1.8787   19.1097 C.ar    1  UNL1        0.1247
      2 C          -0.5571    2.3590   20.0768 C.ar    1  UNL1        0.1182
      3 N          -1.3673    3.4218   19.3956 N.ar    1  UNL1       -0.2208
      4 N          -0.8268    3.5983   18.0075 N.ar    1  UNL1       -0.0633
      5 N           0.3175    2.6446   17.8308 N.ar    1  UNL1       -0.1287
      6 C           3.5666   -1.3017   19.9058 C.ar    1  UNL1        0.1486
      7 C           2.4794   -1.0438   20.9065 C.ar    1  UNL1        0.0375
      8 C           1.4520    0.0163   20.6411 C.ar    1  UNL1        0.0063
      9 C           1.5117    0.8185   19.3751 C.ar    1  UNL1        0.0403
     10 C           2.5989    0.5606   18.3744 C.ar    1  UNL1        0.1021
     11 N           3.6264   -0.4995   18.6397 N.ar    1  UNL1       -0.2263
     12 C           3.2984   -4.4650   19.1501 C.3     1  UNL1        0.0722
     13 C           4.4709   -3.8158   19.8238 C.ar    1  UNL1        0.1258
     14 N           5.7259   -4.5067   20.2684 N.ar    1  UNL1       -0.2289
     15 C           6.6249   -3.4796   20.8905 C.ar    1  UNL1        0.1192
     16 C           5.9254   -2.1540   20.8304 C.ar    1  UNL1        0.1031
     17 N           4.5942   -2.3618   20.1711 N.ar    1  UNL1       -0.2771
     18 C          -2.5162    4.1757   19.9968 C.3     1  UNL1        0.2139
     19 C          -2.9509    3.8843   21.4026 C.2     1  UNL1        0.2511
     20 O          -3.9879    2.8325   21.6643 O.2     1  UNL1       -0.2726
     21 N          -2.3487    4.6448   22.5467 N.am    1  UNL1       -0.2816
     22 H          -1.6681    5.3351   22.3749 H       1  UNL1        0.1549
     23 C          -2.7833    4.3535   23.9525 C.ar    1  UNL1        0.0619
     24 C          -4.1081    4.8541   24.4468 C.ar    1  UNL1        0.0156
     25 C          -4.5428    4.5628   25.8526 C.ar    1  UNL1        0.0022
     26 C          -3.6526    3.7708   26.7640 C.ar    1  UNL1        0.0123
     27 C          -2.3279    3.2703   26.2696 C.ar    1  UNL1        0.0694
     28 CL         -1.4378    2.4784   27.1810 Cl      1  UNL1       -0.0813
     29 C          -1.8932    3.5616   24.8639 C.ar    1  UNL1        0.0816
     30 CL         -0.5685    3.0611   24.3694 Cl      1  UNL1       -0.0801
@<TRIPOS>BOND
     1    12    13    1
     2    13    14   ar
     3    14    15   ar
     4    15    16   ar
     5    16    17   ar
     6    17     6    1
     7     6     7   ar
     8     7     8   ar
     9     8     9   ar
    10     9     1    1
    11     1     2   ar
    12     2     3   ar
    13     3    18    1
    14    18    19    1
    15    19    20    2
    16    19    21   am
    17    21    23    1
    18    23    24   ar
    19    24    25   ar
    20    25    26   ar
    21    26    27   ar
    22    27    28    1
    23    27    29   ar
    24    29    30    1
    25     3     4   ar
    26     4     5   ar
    27     9    10   ar
    28    10    11   ar
    29    17    13   ar
    30    11     6   ar
    31     5     1   ar
    32    29    23   ar
    33    21    22    1
@<TRIPOS>MOLECULE
*****
 30 33 0 0 0
SMALL
GASTEIGER

@<TRIPOS>ATOM
      1 C           0.2835    2.0303   19.2582 C.ar    1  UNL1        0.1247
      2 C          -0.8748    2.3931   20.1394 C.ar    1  UNL1        0.1182
      3 N          -1.6355    3.5006   19.4726 N.ar    1  UNL1       -0.2208
      4 N          -0.9473    3.8223   18.1791 N.ar    1  UNL1       -0.0633
      5 N           0.2387    2.9135   18.0466 N.ar    1  UNL1       -0.1287
      6 C           3.3538   -1.1497   20.1012 C.ar    1  UNL1        0.1486
      7 C           2.4096   -0.7136   21.1819 C.ar    1  UNL1        0.0375
      8 C           1.3862    0.3464   20.9009 C.ar    1  UNL1        0.0063
      9 C           1.3070    0.9703   19.5391 C.ar    1  UNL1        0.0403
     10 C           2.2513    0.5342   18.4583 C.ar    1  UNL1        0.1021
     11 N           3.2747   -0.5258   18.7394 N.ar    1  UNL1       -0.2263
     12 C           3.2237   -4.2543   19.1039 C.3     1  UNL1        0.0722
     13 C           4.3175   -3.6367   19.9237 C.ar    1  UNL1        0.1258
     14 N           5.5435   -4.3377   20.4291 N.ar    1  UNL1       -0.2289
     15 C           6.3611   -3.3440   21.1999 C.ar    1  UNL1        0.1192
     16 C           5.6404   -2.0288   21.1708 C.ar    1  UNL1        0.1031
     17 N           4.3773   -2.2097   20.3821 N.ar    1  UNL1       -0.2771
     18 C          -2.8680    4.1691   20.0056 C.3     1  UNL1        0.2139
     19 C          -3.3008    3.9257   21.4210 C.2     1  UNL1        0.2511
     20 O          -4.2858    2.8367   21.7274 O.2     1  UNL1       -0.2726
     21 N          -2.7485    4.7713   22.5301 N.am    1  UNL1       -0.2816
     22 H          -2.1020    5.4860   22.3290 H       1  UNL1        0.1549
     23 C          -3.1812    4.5278   23.9455 C.ar    1  UNL1        0.0619
     24 C          -2.3428    3.6737   24.8497 C.ar    1  UNL1        0.0156
     25 C          -2.7755    3.4302   26.2652 C.ar    1  UNL1        0.0022
     26 C          -4.0467    4.0410   26.7764 C.ar    1  UNL1        0.0123
     27 C          -4.8851    4.8951   25.8722 C.ar    1  UNL1        0.0694
     28 CL         -6.1562    5.5057   26.3835 Cl      1  UNL1       -0.0813
     29 C          -4.4523    5.1385   24.4568 C.ar    1  UNL1        0.0816
     30 CL         -5.2907    5.9926   23.5525 Cl      1  UNL1       -0.0801
@<TRIPOS>BOND
     1    12    13    1
     2    13    14   ar
     3    14    15   ar
     4    15    16   ar
     5    16    17   ar
     6    17     6    1
     7     6     7   ar
     8     7     8   ar
     9     8     9   ar
    10     9     1    1
    11     1     2   ar
    12     2     3   ar
    13     3    18    1
    14    18    19    1
    15    19    20    2
    16    19    21   am
    17    21    23    1
    18    23    24   ar
    19    24    25   ar
    20    25    26   ar
    21    26    27   ar
    22    27    28    1
    23    27    29   ar
    24    29    30    1
    25     3     4   ar
    26     4     5   ar
    27     9    10   ar
    28    10    11   ar
    29    17    13   ar
    30    11     6   ar
    31     5     1   ar
    32    29    23   ar
    33    21    22    1
@<TRIPOS>MOLECULE
*****
 30 33 0 0 0
SMALL
GASTEIGER

@<TRIPOS>ATOM
      1 C           7.3093   -5.2018   25.6447 C.ar    1  UNL1        0.1247
      2 C           6.5385   -4.7906   26.8641 C.ar    1  UNL1        0.1182
      3 N           7.0990   -5.5348   28.0396 N.ar    1  UNL1       -0.2208
      4 N           8.2163   -6.4060   27.5468 N.ar    1  UNL1       -0.0633
      5 N           8.3462   -6.2001   26.0667 N.ar    1  UNL1       -0.1287
      6 C           6.6302   -3.7032   21.4563 C.ar    1  UNL1        0.1486
      7 C           5.7692   -3.2062   22.5795 C.ar    1  UNL1        0.0375
      8 C           5.9956   -3.7057   23.9756 C.ar    1  UNL1        0.0063
      9 C           7.0830   -4.7022   24.2485 C.ar    1  UNL1        0.0403
     10 C           7.9440   -5.1992   23.1253 C.ar    1  UNL1        0.1021
     11 N           7.7176   -4.6997   21.7292 N.ar    1  UNL1       -0.2263
     12 C           4.2515   -4.6616   19.4381 C.3     1  UNL1        0.0722
     13 C           5.3105   -3.6442   19.1325 C.ar    1  UNL1        0.1258
     14 N           5.4620   -2.8887   17.8455 N.ar    1  UNL1       -0.2289
     15 C           6.6491   -1.9812   17.9778 C.ar    1  UNL1        0.1192
     16 C           7.2311   -2.1759   19.3465 C.ar    1  UNL1        0.1031
     17 N           6.4038   -3.2037   20.0601 N.ar    1  UNL1       -0.2771
     18 C           6.6254   -5.4268   29.4588 C.3     1  UNL1        0.2139
     19 C           6.8703   -4.1684   30.2375 C.2     1  UNL1        0.2511
     20 O           7.3860   -2.9439   29.5412 O.2     1  UNL1       -0.2726
     21 N           6.5996   -4.1345   31.7125 N.am    1  UNL1       -0.2816
     22 H           6.2612   -4.9381   32.1695 H       1  UNL1        0.1549
     23 C           6.8445   -2.8760   32.4912 C.ar    1  UNL1        0.0619
     24 C           8.2462   -2.3850   32.7013 C.ar    1  UNL1        0.0156
     25 C           8.4912   -1.1265   33.4800 C.ar    1  UNL1        0.0022
     26 C           7.3344   -0.3592   34.0486 C.ar    1  UNL1        0.0123
     27 C           5.9328   -0.8503   33.8385 C.ar    1  UNL1        0.0694
     28 CL          4.7761   -0.0831   34.4071 Cl      1  UNL1       -0.0813
     29 C           5.6878   -2.1088   33.0598 C.ar    1  UNL1        0.0816
     30 CL          4.2862   -2.5999   32.8496 Cl      1  UNL1       -0.0801
@<TRIPOS>BOND
     1    12    13    1
     2    13    14   ar
     3    14    15   ar
     4    15    16   ar
     5    16    17   ar
     6    17     6    1
     7     6     7   ar
     8     7     8   ar
     9     8     9   ar
    10     9     1    1
    11     1     2   ar
    12     2     3   ar
    13     3    18    1
    14    18    19    1
    15    19    20    2
    16    19    21   am
    17    21    23    1
    18    23    24   ar
    19    24    25   ar
    20    25    26   ar
    21    26    27   ar
    22    27    28    1
    23    27    29   ar
    24    29    30    1
    25     3     4   ar
    26     4     5   ar
    27     9    10   ar
    28    10    11   ar
    29    17    13   ar
    30    11     6   ar
    31     5     1   ar
    32    29    23   ar
    33    21    22    1
@<TRIPOS>MOLECULE
*****
 30 33 0 0 0
SMALL
GASTEIGER

@<TRIPOS>ATOM
      1 C           8.0807   -6.2304   24.7530 C.ar    1  UNL1        0.1247
      2 C           7.9893   -5.7220   26.1613 C.ar    1  UNL1        0.1182
      3 N           8.4366   -6.8198   27.0804 N.ar    1  UNL1       -0.2208
      4 N           8.8044   -8.0067   26.2401 N.ar    1  UNL1       -0.0633
      5 N           8.5844   -7.6424   24.8017 N.ar    1  UNL1       -0.1287
      6 C           7.0282   -3.9241   21.0351 C.ar    1  UNL1        0.1486
      7 C           6.2975   -3.6543   22.3169 C.ar    1  UNL1        0.0375
      8 C           6.6483   -4.4231   23.5562 C.ar    1  UNL1        0.0063
      9 C           7.7299   -5.4616   23.5136 C.ar    1  UNL1        0.0403
     10 C           8.4606   -5.7313   22.2318 C.ar    1  UNL1        0.1021
     11 N           8.1098   -4.9626   20.9925 N.ar    1  UNL1       -0.2263
     12 C           4.5925   -4.6131   18.9753 C.3     1  UNL1        0.0722
     13 C           5.5579   -3.4720   18.8490 C.ar    1  UNL1        0.1258
     14 N           5.5732   -2.4473   17.7537 N.ar    1  UNL1       -0.2289
     15 C           6.7022   -1.4972   18.0234 C.ar    1  UNL1        0.1192
     16 C           7.3846   -1.9348   19.2855 C.ar    1  UNL1        0.1031
     17 N           6.6774   -3.1553   19.7957 N.ar    1  UNL1       -0.2771
     18 C           8.5042   -6.7441   28.5769 C.3     1  UNL1        0.2139
     19 C           8.2358   -5.4439   29.2750 C.2     1  UNL1        0.2511
     20 O           9.3454   -4.4529   29.4675 O.2     1  UNL1       -0.2726
     21 N           6.8579   -5.1345   29.7806 N.am    1  UNL1       -0.2816
     22 H           6.1297   -5.7849   29.6542 H       1  UNL1        0.1549
     23 C           6.5895   -3.8342   30.4786 C.ar    1  UNL1        0.0619
     24 C           6.6011   -3.7713   31.9773 C.ar    1  UNL1        0.0156
     25 C           6.3327   -2.4710   32.6754 C.ar    1  UNL1        0.0022
     26 C           6.0527   -1.2338   31.8748 C.ar    1  UNL1        0.0123
     27 C           6.0411   -1.2968   30.3762 C.ar    1  UNL1        0.0694
     28 CL          5.7611   -0.0596   29.5756 Cl      1  UNL1       -0.0813
     29 C           6.3095   -2.5970   29.6781 C.ar    1  UNL1        0.0816
     30 CL          6.2979   -2.6601   28.1795 Cl      1  UNL1       -0.0801
@<TRIPOS>BOND
     1    12    13    1
     2    13    14   ar
     3    14    15   ar
     4    15    16   ar
     5    16    17   ar
     6    17     6    1
     7     6     7   ar
     8     7     8   ar
     9     8     9   ar
    10     9     1    1
    11     1     2   ar
    12     2     3   ar
    13     3    18    1
    14    18    19    1
    15    19    20    2
    16    19    21   am
    17    21    23    1
    18    23    24   ar
    19    24    25   ar
    20    25    26   ar
    21    26    27   ar
    22    27    28    1
    23    27    29   ar
    24    29    30    1
    25     3     4   ar
    26     4     5   ar
    27     9    10   ar
    28    10    11   ar
    29    17    13   ar
    30    11     6   ar
    31     5     1   ar
    32    29    23   ar
    33    21    22    1
@<TRIPOS>MOLECULE
*****
 30 33 0 0 0
SMALL
GASTEIGER

@<TRIPOS>ATOM
      1 C           0.8452    1.3549   26.7015 C.ar    1  UNL1        0.1247
      2 C           1.5126    1.5474   25.3720 C.ar    1  UNL1        0.1182
      3 N           0.4703    1.9948   24.3905 N.ar    1  UNL1       -0.2208
      4 N          -0.8413    2.0788   25.1133 N.ar    1  UNL1       -0.0633
      5 N          -0.6096    1.6834   26.5416 N.ar    1  UNL1       -0.1287
      6 C           2.8547    0.0257   30.5021 C.ar    1  UNL1        0.1486
      7 C           3.5593    0.9670   29.5708 C.ar    1  UNL1        0.0375
      8 C           2.8895    1.4101   28.3039 C.ar    1  UNL1        0.0063
      9 C           1.5150    0.9118   27.9684 C.ar    1  UNL1        0.0403
     10 C           0.8104   -0.0295   28.8997 C.ar    1  UNL1        0.1021
     11 N           1.4802   -0.4725   30.1666 N.ar    1  UNL1       -0.2263
     12 C           2.7795    1.5956   33.3622 C.3     1  UNL1        0.0722
     13 C           3.4900    0.3042   33.0836 C.ar    1  UNL1        0.1258
     14 N           4.2906   -0.4923   34.0708 N.ar    1  UNL1       -0.2289
     15 C           4.8200   -1.7062   33.3663 C.ar    1  UNL1        0.1192
     16 C           4.3466   -1.6599   31.9438 C.ar    1  UNL1        0.1031
     17 N           3.5246   -0.4174   31.7691 N.ar    1  UNL1       -0.2771
     18 C           0.6994    2.3038   22.9406 C.3     1  UNL1        0.2139
     19 C           1.1378    1.2185   22.0026 C.2     1  UNL1        0.2511
     20 O           0.1153    0.4167   21.2531 O.2     1  UNL1       -0.2726
     21 N           2.5987    0.9350   21.8140 N.am    1  UNL1       -0.2816
     22 H           3.2697    1.4613   22.3059 H       1  UNL1        0.1549
     23 C           3.0371   -0.1503   20.8760 C.ar    1  UNL1        0.0619
     24 C           3.4136   -1.4992   21.4134 C.ar    1  UNL1        0.0156
     25 C           3.8520   -2.5845   20.4753 C.ar    1  UNL1        0.0022
     26 C           3.9139   -2.3208   18.9999 C.ar    1  UNL1        0.0123
     27 C           3.5373   -0.9720   18.4626 C.ar    1  UNL1        0.0694
     28 CL          3.5992   -0.7084   16.9872 Cl      1  UNL1       -0.0813
     29 C           3.0989    0.1133   19.4006 C.ar    1  UNL1        0.0816
     30 CL          2.7224    1.4622   18.8633 Cl      1  UNL1       -0.0801
@<TRIPOS>BOND
     1    12    13    1
     2    13    14   ar
     3    14    15   ar
     4    15    16   ar
     5    16    17   ar
     6    17     6    1
     7     6     7   ar
     8     7     8   ar
     9     8     9   ar
    10     9     1    1
    11     1     2   ar
    12     2     3   ar
    13     3    18    1
    14    18    19    1
    15    19    20    2
    16    19    21   am
    17    21    23    1
    18    23    24   ar
    19    24    25   ar
    20    25    26   ar
    21    26    27   ar
    22    27    28    1
    23    27    29   ar
    24    29    30    1
    25     3     4   ar
    26     4     5   ar
    27     9    10   ar
    28    10    11   ar
    29    17    13   ar
    30    11     6   ar
    31     5     1   ar
    32    29    23   ar
    33    21    22    1
