@<TRIPOS>MOLECULE
*****
 33 37 0 0 0
SMALL
GASTEIGER

@<TRIPOS>ATOM
      1 C           2.4754    0.2456   22.3759 C.ar    1  UNL1        0.1829
      2 N           3.6807   -0.5295   21.9326 N.ar    1  UNL1       -0.2103
      3 C           3.6987   -0.5408   20.4327 C.ar    1  UNL1        0.1414
      4 N           2.5044    0.2272   19.9491 N.ar    1  UNL1       -0.2361
      5 N           1.7484    0.7132   21.1500 N.ar    1  UNL1       -0.1488
      6 C           2.2597    0.3847   18.4776 C.3     1  UNL1        0.1289
      7 C           3.2092   -0.2257   17.4898 C.3     1  UNL1        0.0272
      8 C           4.4034   -0.9937   17.9735 C.3     1  UNL1        0.0140
      9 C           4.6482   -1.1513   19.4449 C.3     1  UNL1        0.0806
     10 C           2.5973    0.4307   26.3383 C.ar    1  UNL1        0.1548
     11 C           3.0042    0.1693   24.9184 C.ar    1  UNL1        0.0415
     12 C           2.0685    0.5071   23.7958 C.ar    1  UNL1        0.0406
     13 C           0.7260    1.1064   24.0930 C.ar    1  UNL1        0.0048
     14 C           0.3191    1.3678   25.5129 C.ar    1  UNL1        0.0207
     15 C           1.2548    1.0300   26.6355 C.ar    1  UNL1        0.0994
     16 N           0.8479    1.2915   28.0554 N.ar    1  UNL1       -0.2839
     17 C           0.0029    0.3940   28.9100 C.ar    1  UNL1        0.1826
     18 N          -0.1527    1.0442   30.2528 N.ar    1  UNL1       -0.2280
     19 C           0.5962    2.3437   30.2281 C.ar    1  UNL1        0.0786
     20 C           0.7072    3.3190   31.3622 C.3     1  UNL1        0.0538
     21 C           1.2145    2.4965   28.8700 C.ar    1  UNL1        0.0963
     22 C           4.0060   -1.3187   27.6441 C.3     1  UNL1        0.2525
     23 O           3.5330    0.0929   27.4610 O.3     1  UNL1       -0.4700
     24 C           5.8424   -1.9193   19.9286 C.ar    1  UNL1       -0.0114
     25 C           7.1105   -1.1957   20.2726 C.ar    1  UNL1       -0.0039
     26 C           8.3047   -1.9637   20.7563 C.ar    1  UNL1       -0.0003
     27 C           8.2309   -3.4553   20.8959 C.ar    1  UNL1       -0.0001
     28 C           6.9629   -4.1789   20.5519 C.ar    1  UNL1        0.0035
     29 C           5.7686   -3.4109   20.0683 C.ar    1  UNL1        0.0679
     30 C           4.5005   -4.1346   19.7242 C.3     1  UNL1        0.4183
     31 F           3.2325   -4.8583   19.3803 F       1  UNL1       -0.1659
     32 F           4.9765   -4.2970   18.3111 F       1  UNL1       -0.1659
     33 F           4.0246   -3.9722   21.1374 F       1  UNL1       -0.1659
@<TRIPOS>BOND
     1    22    23    1
     2    23    10    1
     3    10    11   ar
     4    11    12   ar
     5    12     1    1
     6     1     2   ar
     7     2     3   ar
     8     3     4   ar
     9     4     5   ar
    10     4     6    1
    11     6     7    1
    12     7     8    1
    13     8     9    1
    14     9    24    1
    15    24    25   ar
    16    25    26   ar
    17    26    27   ar
    18    27    28   ar
    19    28    29   ar
    20    29    30    1
    21    30    31    1
    22    30    32    1
    23    30    33    1
    24    12    13   ar
    25    13    14   ar
    26    14    15   ar
    27    15    16    1
    28    16    17   ar
    29    17    18   ar
    30    18    19   ar
    31    19    20    1
    32    19    21   ar
    33    15    10   ar
    34    21    16   ar
    35     5     1   ar
    36    29    24   ar
    37     9     3    1
@<TRIPOS>MOLECULE
*****
 33 37 0 0 0
SMALL
GASTEIGER

@<TRIPOS>ATOM
      1 C           4.9189   -1.8485   24.2453 C.ar    1  UNL1        0.1829
      2 N           4.9221   -1.4713   22.7935 N.ar    1  UNL1       -0.2103
      3 C           5.8904   -2.3701   22.0832 C.ar    1  UNL1        0.1414
      4 N           6.4856   -3.3028   23.0959 N.ar    1  UNL1       -0.2361
      5 N           5.8852   -2.9805   24.4322 N.ar    1  UNL1       -0.1488
      6 C           7.4975   -4.3252   22.6706 C.3     1  UNL1        0.1289
      7 C           7.9141   -4.4148   21.2324 C.3     1  UNL1        0.0272
      8 C           7.3189   -3.4820   20.2196 C.3     1  UNL1        0.0140
      9 C           6.3071   -2.4597   20.6450 C.3     1  UNL1        0.0806
     10 C           2.3268    0.5508   26.0547 C.ar    1  UNL1        0.1548
     11 C           3.1516   -0.0911   24.9788 C.ar    1  UNL1        0.0415
     12 C           4.0941   -1.2066   25.3212 C.ar    1  UNL1        0.0406
     13 C           4.2120   -1.6800   26.7396 C.ar    1  UNL1        0.0048
     14 C           3.3872   -1.0380   27.8156 C.ar    1  UNL1        0.0207
     15 C           2.4447    0.0774   27.4731 C.ar    1  UNL1        0.0994
     16 N           1.6199    0.7194   28.5491 N.ar    1  UNL1       -0.2839
     17 C           0.3359    0.1862   29.1122 C.ar    1  UNL1        0.1826
     18 N          -0.1432    1.1446   30.1620 N.ar    1  UNL1       -0.2280
     19 C           0.8447    2.2701   30.2477 C.ar    1  UNL1        0.0786
     20 C           0.7582    3.4510   31.1685 C.3     1  UNL1        0.0538
     21 C           1.9344    2.0073   29.2509 C.ar    1  UNL1        0.0963
     22 C          -0.0505    1.3651   25.3949 C.3     1  UNL1        0.2525
     23 O           1.3842    1.6663   25.7122 O.3     1  UNL1       -0.4700
     24 C           5.7119   -1.5269   19.6322 C.ar    1  UNL1       -0.0114
     25 C           6.3277   -0.1789   19.4010 C.ar    1  UNL1       -0.0039
     26 C           5.7325    0.7539   18.3883 C.ar    1  UNL1       -0.0003
     27 C           4.5214    0.3385   17.6067 C.ar    1  UNL1       -0.0001
     28 C           3.9056   -1.0095   17.8379 C.ar    1  UNL1        0.0035
     29 C           4.5008   -1.9422   18.8506 C.ar    1  UNL1        0.0679
     30 C           3.8850   -3.2904   19.0818 C.3     1  UNL1        0.4183
     31 F           3.2692   -4.6384   19.3129 F       1  UNL1       -0.1659
     32 F           2.9123   -2.6805   20.0471 F       1  UNL1       -0.1659
     33 F           4.8577   -3.9002   18.1165 F       1  UNL1       -0.1659
@<TRIPOS>BOND
     1    22    23    1
     2    23    10    1
     3    10    11   ar
     4    11    12   ar
     5    12     1    1
     6     1     2   ar
     7     2     3   ar
     8     3     4   ar
     9     4     5   ar
    10     4     6    1
    11     6     7    1
    12     7     8    1
    13     8     9    1
    14     9    24    1
    15    24    25   ar
    16    25    26   ar
    17    26    27   ar
    18    27    28   ar
    19    28    29   ar
    20    29    30    1
    21    30    31    1
    22    30    32    1
    23    30    33    1
    24    12    13   ar
    25    13    14   ar
    26    14    15   ar
    27    15    16    1
    28    16    17   ar
    29    17    18   ar
    30    18    19   ar
    31    19    20    1
    32    19    21   ar
    33    15    10   ar
    34    21    16   ar
    35     5     1   ar
    36    29    24   ar
    37     9     3    1
@<TRIPOS>MOLECULE
*****
 33 37 0 0 0
SMALL
GASTEIGER

@<TRIPOS>ATOM
      1 C           0.0083    2.1650   19.4352 C.ar    1  UNL1        0.1829
      2 N          -0.9816    2.5633   20.4894 N.ar    1  UNL1       -0.2103
      3 C          -1.7381    3.7574   19.9874 C.ar    1  UNL1        0.1414
      4 N          -1.2157    4.0970   18.6230 N.ar    1  UNL1       -0.2361
      5 N          -0.1363    3.1129   18.2817 N.ar    1  UNL1       -0.1488
      6 C          -1.7902    5.2586   17.8676 C.3     1  UNL1        0.1289
      7 C          -2.8873    6.0804   18.4767 C.3     1  UNL1        0.0272
      8 C          -3.4097    5.7408   19.8411 C.3     1  UNL1        0.0140
      9 C          -2.8351    4.5792   20.5965 C.3     1  UNL1        0.0806
     10 C           2.8153   -0.4553   18.4327 C.ar    1  UNL1        0.1548
     11 C           1.8502    0.6899   18.3482 C.ar    1  UNL1        0.0415
     12 C           0.9735    1.0198   19.5197 C.ar    1  UNL1        0.0406
     13 C           1.0619    0.2046   20.7757 C.ar    1  UNL1        0.0048
     14 C           2.0270   -0.9406   20.8601 C.ar    1  UNL1        0.0207
     15 C           2.9038   -1.2705   19.6886 C.ar    1  UNL1        0.0994
     16 N           3.8689   -2.4156   19.7731 N.ar    1  UNL1       -0.2839
     17 C           3.6127   -3.8204   19.3137 C.ar    1  UNL1        0.1826
     18 N           4.8451   -4.6301   19.5885 N.ar    1  UNL1       -0.2280
     19 C           5.8631   -3.7257   20.2177 C.ar    1  UNL1        0.0786
     20 C           7.2422   -4.1206   20.6560 C.3     1  UNL1        0.0538
     21 C           5.2597   -2.3571   20.3318 C.ar    1  UNL1        0.0963
     22 C           5.0450   -0.1499   17.1344 C.3     1  UNL1        0.2525
     23 O           3.6921   -0.7852   17.2611 O.3     1  UNL1       -0.4700
     24 C          -3.3576    4.2396   21.9609 C.ar    1  UNL1       -0.0114
     25 C          -2.4439    4.2955   23.1492 C.ar    1  UNL1       -0.0039
     26 C          -2.9664    3.9558   24.5136 C.ar    1  UNL1       -0.0003
     27 C          -4.4025    3.5602   24.6898 C.ar    1  UNL1       -0.0001
     28 C          -5.3161    3.5043   23.5015 C.ar    1  UNL1        0.0035
     29 C          -4.7937    3.8440   22.1371 C.ar    1  UNL1        0.0679
     30 C          -5.7074    3.7881   20.9488 C.3     1  UNL1        0.4183
     31 F          -6.6211    3.7321   19.7605 F       1  UNL1       -0.1659
     32 F          -6.3347    5.0838   21.3700 F       1  UNL1       -0.1659
     33 F          -5.0802    2.4923   20.5275 F       1  UNL1       -0.1659
@<TRIPOS>BOND
     1    22    23    1
     2    23    10    1
     3    10    11   ar
     4    11    12   ar
     5    12     1    1
     6     1     2   ar
     7     2     3   ar
     8     3     4   ar
     9     4     5   ar
    10     4     6    1
    11     6     7    1
    12     7     8    1
    13     8     9    1
    14     9    24    1
    15    24    25   ar
    16    25    26   ar
    17    26    27   ar
    18    27    28   ar
    19    28    29   ar
    20    29    30    1
    21    30    31    1
    22    30    32    1
    23    30    33    1
    24    12    13   ar
    25    13    14   ar
    26    14    15   ar
    27    15    16    1
    28    16    17   ar
    29    17    18   ar
    30    18    19   ar
    31    19    20    1
    32    19    21   ar
    33    15    10   ar
    34    21    16   ar
    35     5     1   ar
    36    29    24   ar
    37     9     3    1
@<TRIPOS>MOLECULE
*****
 33 37 0 0 0
SMALL
GASTEIGER

@<TRIPOS>ATOM
      1 C           2.3962    0.2919   23.3128 C.ar    1  UNL1        0.1829
      2 N           2.9469   -0.5345   22.1886 N.ar    1  UNL1       -0.2103
      3 C           2.4232    0.0277   20.9002 C.ar    1  UNL1        0.1414
      4 N           1.5488    1.2015   21.2282 N.ar    1  UNL1       -0.2361
      5 N           1.5322    1.3648   22.7192 N.ar    1  UNL1       -0.1488
      6 C           0.8808    1.9700   20.1268 C.3     1  UNL1        0.1289
      7 C           1.0872    1.5647   18.6975 C.3     1  UNL1        0.0272
      8 C           1.9616    0.3909   18.3695 C.3     1  UNL1        0.0140
      9 C           2.6296   -0.3776   19.4709 C.3     1  UNL1        0.0806
     10 C           2.3109    0.7884   27.2493 C.ar    1  UNL1        0.1548
     11 C           2.0444    0.9981   25.7881 C.ar    1  UNL1        0.0415
     12 C           2.6627    0.0822   24.7739 C.ar    1  UNL1        0.0406
     13 C           3.5477   -1.0434   25.2209 C.ar    1  UNL1        0.0048
     14 C           3.8142   -1.2531   26.6820 C.ar    1  UNL1        0.0207
     15 C           3.1958   -0.3372   27.6962 C.ar    1  UNL1        0.0994
     16 N           3.4623   -0.5469   29.1574 N.ar    1  UNL1       -0.2839
     17 C           2.4251   -0.6728   30.2337 C.ar    1  UNL1        0.1826
     18 N           3.1346   -0.8712   31.5403 N.ar    1  UNL1       -0.2280
     19 C           4.6104   -0.8680   31.2715 C.ar    1  UNL1        0.0786
     20 C           5.6934   -1.0357   32.2957 C.3     1  UNL1        0.0538
     21 C           4.8129   -0.6676   29.7989 C.ar    1  UNL1        0.0963
     22 C           0.2050    1.8954   28.2932 C.3     1  UNL1        0.2525
     23 O           1.6924    1.7044   28.2635 O.3     1  UNL1       -0.4700
     24 C           3.5040   -1.5514   19.1429 C.ar    1  UNL1       -0.0114
     25 C           3.0599   -2.9397   19.4972 C.ar    1  UNL1       -0.0039
     26 C           3.9343   -4.1135   19.1692 C.ar    1  UNL1       -0.0003
     27 C           5.2528   -3.8991   18.4870 C.ar    1  UNL1       -0.0001
     28 C           5.6969   -2.5109   18.1327 C.ar    1  UNL1        0.0035
     29 C           4.8225   -1.3371   18.4607 C.ar    1  UNL1        0.0679
     30 C           5.2667    0.0512   18.1064 C.3     1  UNL1        0.4183
     31 F           5.7109    1.4394   17.7521 F       1  UNL1       -0.1659
     32 F           4.7614   -0.1440   16.7077 F       1  UNL1       -0.1659
     33 F           5.7720    0.2465   19.5051 F       1  UNL1       -0.1659
@<TRIPOS>BOND
     1    22    23    1
     2    23    10    1
     3    10    11   ar
     4    11    12   ar
     5    12     1    1
     6     1     2   ar
     7     2     3   ar
     8     3     4   ar
     9     4     5   ar
    10     4     6    1
    11     6     7    1
    12     7     8    1
    13     8     9    1
    14     9    24    1
    15    24    25   ar
    16    25    26   ar
    17    26    27   ar
    18    27    28   ar
    19    28    29   ar
    20    29    30    1
    21    30    31    1
    22    30    32    1
    23    30    33    1
    24    12    13   ar
    25    13    14   ar
    26    14    15   ar
    27    15    16    1
    28    16    17   ar
    29    17    18   ar
    30    18    19   ar
    31    19    20    1
    32    19    21   ar
    33    15    10   ar
    34    21    16   ar
    35     5     1   ar
    36    29    24   ar
    37     9     3    1
@<TRIPOS>MOLECULE
*****
 33 37 0 0 0
SMALL
GASTEIGER

@<TRIPOS>ATOM
      1 C           4.3300   -2.0356   23.7718 C.ar    1  UNL1        0.1829
      2 N           3.5635   -1.3367   22.6883 N.ar    1  UNL1       -0.2103
      3 C           3.7267   -2.1250   21.4226 C.ar    1  UNL1        0.1414
      4 N           4.5941   -3.3111   21.7238 N.ar    1  UNL1       -0.2361
      5 N           4.9670   -3.2558   23.1757 N.ar    1  UNL1       -0.1488
      6 C           4.9324   -4.2881   20.6371 C.3     1  UNL1        0.1289
      7 C           4.4033   -4.0791   19.2493 C.3     1  UNL1        0.0272
      8 C           3.5359   -2.8930   18.9480 C.3     1  UNL1        0.0140
      9 C           3.1976   -1.9160   20.0347 C.3     1  UNL1        0.0806
     10 C           3.5362   -0.2032   27.2013 C.ar    1  UNL1        0.1548
     11 C           3.4261   -0.6466   25.7726 C.ar    1  UNL1        0.0415
     12 C           4.4402   -1.5922   25.2005 C.ar    1  UNL1        0.0406
     13 C           5.5645   -2.0943   26.0570 C.ar    1  UNL1        0.0048
     14 C           5.6747   -1.6509   27.4858 C.ar    1  UNL1        0.0207
     15 C           4.6605   -0.7053   28.0579 C.ar    1  UNL1        0.0994
     16 N           4.7707   -0.2619   29.4866 N.ar    1  UNL1       -0.2839
     17 C           5.6669    0.8228   30.0065 C.ar    1  UNL1        0.1826
     18 N           5.4541    0.9298   31.4875 N.ar    1  UNL1       -0.2280
     19 C           4.4264   -0.0887   31.8829 C.ar    1  UNL1        0.0786
     20 C           3.9115   -0.3287   33.2712 C.3     1  UNL1        0.0538
     21 C           4.0041   -0.8252   30.6463 C.ar    1  UNL1        0.0963
     22 C           1.2469    0.2110   28.3579 C.3     1  UNL1        0.2525
     23 O           2.5220    0.7425   27.7735 O.3     1  UNL1       -0.4700
     24 C           2.3301   -0.7299   19.7334 C.ar    1  UNL1       -0.0114
     25 C           1.0380   -0.5391   20.4709 C.ar    1  UNL1       -0.0039
     26 C           0.1705    0.6470   20.1696 C.ar    1  UNL1       -0.0003
     27 C           0.5952    1.6423   19.1310 C.ar    1  UNL1       -0.0001
     28 C           1.8874    1.4515   18.3935 C.ar    1  UNL1        0.0035
     29 C           2.7548    0.2654   18.6948 C.ar    1  UNL1        0.0679
     30 C           4.0471    0.0747   17.9573 C.3     1  UNL1        0.4183
     31 F           5.3392   -0.1160   17.2198 F       1  UNL1       -0.1659
     32 F           4.7927    0.6885   19.1049 F       1  UNL1       -0.1659
     33 F           3.3014   -0.5391   16.8096 F       1  UNL1       -0.1659
@<TRIPOS>BOND
     1    22    23    1
     2    23    10    1
     3    10    11   ar
     4    11    12   ar
     5    12     1    1
     6     1     2   ar
     7     2     3   ar
     8     3     4   ar
     9     4     5   ar
    10     4     6    1
    11     6     7    1
    12     7     8    1
    13     8     9    1
    14     9    24    1
    15    24    25   ar
    16    25    26   ar
    17    26    27   ar
    18    27    28   ar
    19    28    29   ar
    20    29    30    1
    21    30    31    1
    22    30    32    1
    23    30    33    1
    24    12    13   ar
    25    13    14   ar
    26    14    15   ar
    27    15    16    1
    28    16    17   ar
    29    17    18   ar
    30    18    19   ar
    31    19    20    1
    32    19    21   ar
    33    15    10   ar
    34    21    16   ar
    35     5     1   ar
    36    29    24   ar
    37     9     3    1
@<TRIPOS>MOLECULE
*****
 33 37 0 0 0
SMALL
GASTEIGER

@<TRIPOS>ATOM
      1 C           2.3770    0.3278   23.3159 C.ar    1  UNL1        0.1829
      2 N           2.9269   -0.5096   22.1995 N.ar    1  UNL1       -0.2103
      3 C           2.4081    0.0444   20.9056 C.ar    1  UNL1        0.1414
      4 N           1.5376    1.2242   21.2224 N.ar    1  UNL1       -0.2361
      5 N           1.5184    1.3993   22.7120 N.ar    1  UNL1       -0.1488
      6 C           0.8750    1.9865   20.1135 C.3     1  UNL1        0.1289
      7 C           1.0828    1.5690   18.6879 C.3     1  UNL1        0.0272
      8 C           1.9533    0.3892   18.3711 C.3     1  UNL1        0.0140
      9 C           2.6159   -0.3731   19.4800 C.3     1  UNL1        0.0806
     10 C           3.8987   -1.0971   26.6929 C.ar    1  UNL1        0.1548
     11 C           3.6361   -0.8980   25.2295 C.ar    1  UNL1        0.0415
     12 C           2.6396    0.1287   24.7793 C.ar    1  UNL1        0.0406
     13 C           1.9057    0.9563   25.7924 C.ar    1  UNL1        0.0048
     14 C           2.1683    0.7572   27.2557 C.ar    1  UNL1        0.0207
     15 C           3.1648   -0.2695   27.7060 C.ar    1  UNL1        0.0994
     16 N           3.4275   -0.4686   29.1693 N.ar    1  UNL1       -0.2839
     17 C           2.3879   -0.6603   30.2336 C.ar    1  UNL1        0.1826
     18 N           3.0937   -0.8212   31.5473 N.ar    1  UNL1       -0.2280
     19 C           4.5695   -0.7289   31.2951 C.ar    1  UNL1        0.0786
     20 C           5.6494   -0.8358   32.3306 C.3     1  UNL1        0.0538
     21 C           4.7757   -0.5110   29.8254 C.ar    1  UNL1        0.0963
     22 C           6.0603   -2.4737   26.2654 C.3     1  UNL1        0.2525
     23 O           4.8953   -2.1239   27.1431 O.3     1  UNL1       -0.4700
     24 C           3.4864   -1.5529   19.1633 C.ar    1  UNL1       -0.0114
     25 C           3.0351   -2.9367   19.5256 C.ar    1  UNL1       -0.0039
     26 C           3.9056   -4.1165   19.2089 C.ar    1  UNL1       -0.0003
     27 C           5.2274   -3.9125   18.5298 C.ar    1  UNL1       -0.0001
     28 C           5.6787   -2.5287   18.1674 C.ar    1  UNL1        0.0035
     29 C           4.8082   -1.3489   18.4841 C.ar    1  UNL1        0.0679
     30 C           5.2595    0.0350   18.1217 C.3     1  UNL1        0.4183
     31 F           5.7109    1.4187   17.7593 F       1  UNL1       -0.1659
     32 F           5.7629    0.2371   19.5202 F       1  UNL1       -0.1659
     33 F           4.7561   -0.1671   16.7233 F       1  UNL1       -0.1659
@<TRIPOS>BOND
     1    22    23    1
     2    23    10    1
     3    10    11   ar
     4    11    12   ar
     5    12     1    1
     6     1     2   ar
     7     2     3   ar
     8     3     4   ar
     9     4     5   ar
    10     4     6    1
    11     6     7    1
    12     7     8    1
    13     8     9    1
    14     9    24    1
    15    24    25   ar
    16    25    26   ar
    17    26    27   ar
    18    27    28   ar
    19    28    29   ar
    20    29    30    1
    21    30    31    1
    22    30    32    1
    23    30    33    1
    24    12    13   ar
    25    13    14   ar
    26    14    15   ar
    27    15    16    1
    28    16    17   ar
    29    17    18   ar
    30    18    19   ar
    31    19    20    1
    32    19    21   ar
    33    15    10   ar
    34    21    16   ar
    35     5     1   ar
    36    29    24   ar
    37     9     3    1
@<TRIPOS>MOLECULE
*****
 33 37 0 0 0
SMALL
GASTEIGER

@<TRIPOS>ATOM
      1 C           3.1934   -0.5294   24.0949 C.ar    1  UNL1        0.1829
      2 N           3.5467   -1.1527   22.7771 N.ar    1  UNL1       -0.2103
      3 C           2.5785   -0.6454   21.7499 C.ar    1  UNL1        0.1414
      4 N           1.6267    0.2915   22.4328 N.ar    1  UNL1       -0.2361
      5 N           2.0068    0.3632   23.8821 N.ar    1  UNL1       -0.1488
      6 C           0.5371    0.9583   21.6467 C.3     1  UNL1        0.1289
      7 C           0.3991    0.6881   20.1777 C.3     1  UNL1        0.0272
      8 C           1.3508   -0.2488   19.4948 C.3     1  UNL1        0.0140
      9 C           2.4405   -0.9156   20.2809 C.3     1  UNL1        0.0806
     10 C           3.8465   -0.9350   27.9883 C.ar    1  UNL1        0.1548
     11 C           3.1377   -0.7060   26.6863 C.ar    1  UNL1        0.0415
     12 C           3.9022   -0.7584   25.3969 C.ar    1  UNL1        0.0406
     13 C           5.3755   -1.0397   25.4094 C.ar    1  UNL1        0.0048
     14 C           6.0843   -1.2687   26.7114 C.ar    1  UNL1        0.0207
     15 C           5.3198   -1.2164   28.0008 C.ar    1  UNL1        0.0994
     16 N           6.0286   -1.4453   29.3028 N.ar    1  UNL1       -0.2839
     17 C           6.3541   -0.3976   30.3257 C.ar    1  UNL1        0.1826
     18 N           7.0630   -1.0670   31.4656 N.ar    1  UNL1       -0.2280
     19 C           7.1757   -2.5285   31.1472 C.ar    1  UNL1        0.0786
     20 C           7.8153   -3.5728   32.0134 C.3     1  UNL1        0.0538
     21 C           6.5364   -2.7623   29.8105 C.ar    1  UNL1        0.0963
     22 C           2.5035    0.4166   29.7546 C.3     1  UNL1        0.2525
     23 O           3.0819   -0.8827   29.2778 O.3     1  UNL1       -0.4700
     24 C           3.3922   -1.8525   19.5980 C.ar    1  UNL1       -0.0114
     25 C           3.2765   -3.3317   19.8186 C.ar    1  UNL1       -0.0039
     26 C           4.2282   -4.2686   19.1357 C.ar    1  UNL1       -0.0003
     27 C           5.2957   -3.7264   18.2321 C.ar    1  UNL1       -0.0001
     28 C           5.4115   -2.2473   18.0115 C.ar    1  UNL1        0.0035
     29 C           4.4597   -1.3103   18.6944 C.ar    1  UNL1        0.0679
     30 C           4.5756    0.1689   18.4738 C.3     1  UNL1        0.4183
     31 F           4.6914    1.6480   18.2532 F       1  UNL1       -0.1659
     32 F           3.7495    0.0477   17.2276 F       1  UNL1       -0.1659
     33 F           5.4016    0.2900   19.7199 F       1  UNL1       -0.1659
@<TRIPOS>BOND
     1    22    23    1
     2    23    10    1
     3    10    11   ar
     4    11    12   ar
     5    12     1    1
     6     1     2   ar
     7     2     3   ar
     8     3     4   ar
     9     4     5   ar
    10     4     6    1
    11     6     7    1
    12     7     8    1
    13     8     9    1
    14     9    24    1
    15    24    25   ar
    16    25    26   ar
    17    26    27   ar
    18    27    28   ar
    19    28    29   ar
    20    29    30    1
    21    30    31    1
    22    30    32    1
    23    30    33    1
    24    12    13   ar
    25    13    14   ar
    26    14    15   ar
    27    15    16    1
    28    16    17   ar
    29    17    18   ar
    30    18    19   ar
    31    19    20    1
    32    19    21   ar
    33    15    10   ar
    34    21    16   ar
    35     5     1   ar
    36    29    24   ar
    37     9     3    1
@<TRIPOS>MOLECULE
*****
 33 37 0 0 0
SMALL
GASTEIGER

@<TRIPOS>ATOM
      1 C           3.5120   -0.7767   22.6558 C.ar    1  UNL1        0.1829
      2 N           3.0327    0.1662   21.5922 N.ar    1  UNL1       -0.2103
      3 C           3.3918   -0.4185   20.2583 C.ar    1  UNL1        0.1414
      4 N           4.0929   -1.7228   20.4975 N.ar    1  UNL1       -0.2361
      5 N           4.1672   -1.9442   21.9792 N.ar    1  UNL1       -0.1488
      6 C           4.5731   -2.5404   19.3353 C.3     1  UNL1        0.1289
      7 C           4.3522   -2.0537   17.9338 C.3     1  UNL1        0.0272
      8 C           3.6511   -0.7494   17.6945 C.3     1  UNL1        0.0140
      9 C           3.1709    0.0682   18.8568 C.3     1  UNL1        0.0806
     10 C           2.3085    0.6785   26.1464 C.ar    1  UNL1        0.1548
     11 C           2.4582    0.4874   24.6661 C.ar    1  UNL1        0.0415
     12 C           3.3622   -0.5857   24.1360 C.ar    1  UNL1        0.0406
     13 C           4.1166   -1.4678   25.0862 C.ar    1  UNL1        0.0048
     14 C           3.9668   -1.2768   26.5664 C.ar    1  UNL1        0.0207
     15 C           3.0628   -0.2037   27.0965 C.ar    1  UNL1        0.0994
     16 N           2.9131   -0.0126   28.5767 N.ar    1  UNL1       -0.2839
     17 C           1.7169   -0.3924   29.3982 C.ar    1  UNL1        0.1826
     18 N           1.9978   -0.0228   30.8246 N.ar    1  UNL1       -0.2280
     19 C           3.3677    0.5854   30.8847 C.ar    1  UNL1        0.0786
     20 C           4.0518    1.0974   32.1175 C.3     1  UNL1        0.0538
     21 C           3.9333    0.5916   29.4954 C.ar    1  UNL1        0.0963
     22 C          -0.0797    1.5363   26.7036 C.3     1  UNL1        0.2525
     23 O           1.4044    1.7517   26.6764 O.3     1  UNL1       -0.4700
     24 C           2.4697    1.3725   18.6176 C.ar    1  UNL1       -0.0114
     25 C           0.9871    1.3966   18.3913 C.ar    1  UNL1       -0.0039
     26 C           0.2860    2.7008   18.1521 C.ar    1  UNL1       -0.0003
     27 C           1.0675    3.9811   18.1391 C.ar    1  UNL1       -0.0001
     28 C           2.5501    3.9570   18.3654 C.ar    1  UNL1        0.0035
     29 C           3.2512    2.6527   18.6046 C.ar    1  UNL1        0.0679
     30 C           4.7339    2.6287   18.8309 C.3     1  UNL1        0.4183
     31 F           6.2165    2.6047   19.0572 F       1  UNL1       -0.1659
     32 F           4.5121    2.8080   20.3035 F       1  UNL1       -0.1659
     33 F           4.9557    2.4495   17.3583 F       1  UNL1       -0.1659
@<TRIPOS>BOND
     1    22    23    1
     2    23    10    1
     3    10    11   ar
     4    11    12   ar
     5    12     1    1
     6     1     2   ar
     7     2     3   ar
     8     3     4   ar
     9     4     5   ar
    10     4     6    1
    11     6     7    1
    12     7     8    1
    13     8     9    1
    14     9    24    1
    15    24    25   ar
    16    25    26   ar
    17    26    27   ar
    18    27    28   ar
    19    28    29   ar
    20    29    30    1
    21    30    31    1
    22    30    32    1
    23    30    33    1
    24    12    13   ar
    25    13    14   ar
    26    14    15   ar
    27    15    16    1
    28    16    17   ar
    29    17    18   ar
    30    18    19   ar
    31    19    20    1
    32    19    21   ar
    33    15    10   ar
    34    21    16   ar
    35     5     1   ar
    36    29    24   ar
    37     9     3    1
@<TRIPOS>MOLECULE
*****
 33 37 0 0 0
SMALL
GASTEIGER

@<TRIPOS>ATOM
      1 C           3.8033   -1.2398   24.2986 C.ar    1  UNL1        0.1829
      2 N           3.1757   -0.6910   23.0516 N.ar    1  UNL1       -0.2103
      3 C           3.4690   -1.6409   21.9284 C.ar    1  UNL1        0.1414
      4 N           4.2779   -2.7768   22.4812 N.ar    1  UNL1       -0.2361
      5 N           4.4845   -2.5288   23.9460 N.ar    1  UNL1       -0.1488
      6 C           4.7219   -3.8900   21.5792 C.3     1  UNL1        0.1289
      7 C           4.3569   -3.8674   20.1245 C.3     1  UNL1        0.0272
      8 C           3.5480   -2.7316   19.5717 C.3     1  UNL1        0.0140
      9 C           3.1041   -1.6184   20.4736 C.3     1  UNL1        0.0806
     10 C           4.3261   -0.6846   28.1933 C.ar    1  UNL1        0.1548
     11 C           4.3718   -1.3143   26.8326 C.ar    1  UNL1        0.0415
     12 C           3.7577   -0.6101   25.6593 C.ar    1  UNL1        0.0406
     13 C           3.0979    0.7240   25.8466 C.ar    1  UNL1        0.0048
     14 C           3.0523    1.3537   27.2072 C.ar    1  UNL1        0.0207
     15 C           3.6664    0.6494   28.3806 C.ar    1  UNL1        0.0994
     16 N           3.6208    1.2791   29.7412 N.ar    1  UNL1       -0.2839
     17 C           4.6454    2.2118   30.3159 C.ar    1  UNL1        0.1826
     18 N           4.2004    2.5959   31.6959 N.ar    1  UNL1       -0.2280
     19 C           2.9008    1.9005   31.9742 C.ar    1  UNL1        0.0786
     20 C           2.1000    2.0012   33.2385 C.3     1  UNL1        0.0538
     21 C           2.5426    1.0867   30.7661 C.ar    1  UNL1        0.0963
     22 C           6.3467   -1.9033   29.2806 C.3     1  UNL1        0.2525
     23 O           4.9403   -1.3890   29.3667 O.3     1  UNL1       -0.4700
     24 C           2.2952   -0.4825   19.9208 C.ar    1  UNL1       -0.0114
     25 C           0.8888   -0.2633   20.3941 C.ar    1  UNL1       -0.0039
     26 C           0.0799    0.8725   19.8413 C.ar    1  UNL1       -0.0003
     27 C           0.6774    1.7891   18.8153 C.ar    1  UNL1       -0.0001
     28 C           2.0838    1.5699   18.3421 C.ar    1  UNL1        0.0035
     29 C           2.8927    0.4341   18.8949 C.ar    1  UNL1        0.0679
     30 C           4.2991    0.2150   18.4216 C.3     1  UNL1        0.4183
     31 F           5.7055   -0.0042   17.9484 F       1  UNL1       -0.1659
     32 F           3.7789   -0.4694   17.1924 F       1  UNL1       -0.1659
     33 F           4.8193    0.8993   19.6508 F       1  UNL1       -0.1659
@<TRIPOS>BOND
     1    22    23    1
     2    23    10    1
     3    10    11   ar
     4    11    12   ar
     5    12     1    1
     6     1     2   ar
     7     2     3   ar
     8     3     4   ar
     9     4     5   ar
    10     4     6    1
    11     6     7    1
    12     7     8    1
    13     8     9    1
    14     9    24    1
    15    24    25   ar
    16    25    26   ar
    17    26    27   ar
    18    27    28   ar
    19    28    29   ar
    20    29    30    1
    21    30    31    1
    22    30    32    1
    23    30    33    1
    24    12    13   ar
    25    13    14   ar
    26    14    15   ar
    27    15    16    1
    28    16    17   ar
    29    17    18   ar
    30    18    19   ar
    31    19    20    1
    32    19    21   ar
    33    15    10   ar
    34    21    16   ar
    35     5     1   ar
    36    29    24   ar
    37     9     3    1
