@<TRIPOS>MOLECULE
*****
 32 35 0 0 0
SMALL
GASTEIGER

@<TRIPOS>ATOM
      1 C         -10.4165  -17.9436   21.3051 C.ar    1  UNL1        0.1220
      2 N         -10.0672  -18.9912   20.2900 N.ar    1  UNL1       -0.2322
      3 C          -8.6457  -19.4462   20.1404 C.ar    1  UNL1        0.0874
      4 C          -8.2964  -20.4939   19.1253 C.ar    1  UNL1        0.0224
      5 C          -6.8750  -20.9488   18.9757 C.ar    1  UNL1        0.0390
      6 C          -5.8028  -20.3561   19.8412 C.ar    1  UNL1        0.1455
      7 C          -6.1520  -19.3085   20.8563 C.ar    1  UNL1        0.0437
      8 C          -7.5735  -18.8536   21.0059 C.ar    1  UNL1        0.0769
      9 C          -7.9228  -17.8059   22.0210 C.ar    1  UNL1        0.2632
     10 O          -6.8506  -17.2132   22.8865 O.2     1  UNL1       -0.2669
     11 N          -9.3443  -17.3509   22.1706 N.ar    1  UNL1       -0.2840
     12 C         -12.3793  -16.4131   20.5602 C.3     1  UNL1        0.0079
     13 C         -11.8380  -17.4886   21.4547 C.3     1  UNL1        0.0570
     14 C         -12.7181  -18.1092   22.4989 C.3     1  UNL1        0.0079
     15 O          -4.3813  -20.8112   19.6916 O.3     1  UNL1       -0.4535
     16 C          -3.2588  -19.8286   19.8484 C.ar    1  UNL1        0.1454
     17 C          -2.4803  -19.7774   21.1295 C.ar    1  UNL1        0.0398
     18 C          -1.3578  -18.7947   21.2863 C.ar    1  UNL1        0.0328
     19 C          -1.0139  -17.8633   20.1619 C.ar    1  UNL1        0.1403
     20 F           0.1085  -16.8808   20.3187 F       1  UNL1       -0.2042
     21 C          -1.7924  -17.9145   18.8808 C.ar    1  UNL1        0.0328
     22 C          -2.9148  -18.8971   18.7240 C.ar    1  UNL1        0.0398
     23 C          -9.6936  -16.3033   23.1857 C.3     1  UNL1        0.1115
     24 C          -9.2083  -16.4367   24.5988 C.3     1  UNL1        0.0388
     25 C          -9.8120  -17.4686   25.5048 C.3     1  UNL1        0.0048
     26 C          -9.3267  -17.6021   26.9178 C.3     1  UNL1        0.0174
     27 C          -8.2376  -16.7037   27.4248 C.3     1  UNL1        0.0720
     28 N          -7.6339  -15.6720   26.5188 N.3     1  UNL1       -0.2739
     29 C          -8.1192  -15.5385   25.1057 C.3     1  UNL1        0.0739
     30 C          -6.5449  -14.7737   27.0257 C.3     1  UNL1        0.0576
     31 C          -5.2222  -14.7265   26.3199 C.3     1  UNL1        0.0173
     32 C          -6.7786  -13.9225   28.2386 C.3     1  UNL1        0.0173
@<TRIPOS>BOND
     1    12    13    1
     2    13    14    1
     3    13     1    1
     4     1     2   ar
     5     2     3   ar
     6     3     4   ar
     7     4     5   ar
     8     5     6   ar
     9     6    15    1
    10    15    16    1
    11    16    17   ar
    12    17    18   ar
    13    18    19   ar
    14    19    20    1
    15    19    21   ar
    16    21    22   ar
    17     6     7   ar
    18     7     8   ar
    19     8     9   ar
    20     9    10    2
    21     9    11   ar
    22    11    23    1
    23    24    23    1
    24    24    25    1
    25    25    26    1
    26    26    27    1
    27    27    28    1
    28    28    30    1
    29    30    31    1
    30    30    32    1
    31    28    29    1
    32    11     1   ar
    33    29    24    1
    34     8     3   ar
    35    22    16   ar
@<TRIPOS>MOLECULE
*****
 32 35 0 0 0
SMALL
GASTEIGER

@<TRIPOS>ATOM
      1 C           5.2181   -1.4979   18.8628 C.ar    1  UNL1        0.1220
      2 N           6.7103   -1.6478   18.8351 N.ar    1  UNL1       -0.2322
      3 C           7.3766   -2.6794   19.6966 C.ar    1  UNL1        0.0874
      4 C           8.8688   -2.8293   19.6689 C.ar    1  UNL1        0.0224
      5 C           9.5350   -3.8608   20.5304 C.ar    1  UNL1        0.0390
      6 C           8.7090   -4.7424   21.4195 C.ar    1  UNL1        0.1455
      7 C           7.2168   -4.5925   21.4471 C.ar    1  UNL1        0.0437
      8 C           6.5506   -3.5610   20.5857 C.ar    1  UNL1        0.0769
      9 C           5.0583   -3.4111   20.6133 C.ar    1  UNL1        0.2632
     10 O           4.2323   -4.2927   21.5024 O.2     1  UNL1       -0.2669
     11 N           4.3921   -2.3795   19.7519 N.ar    1  UNL1       -0.2840
     12 C           3.9069   -0.8715   16.7091 C.3     1  UNL1        0.0079
     13 C           4.5519   -0.4664   18.0013 C.3     1  UNL1        0.0570
     14 C           4.5306    0.9703   18.4321 C.3     1  UNL1        0.0079
     15 O           9.3753   -5.7740   22.2809 O.3     1  UNL1       -0.4535
     16 C           8.8678   -6.0337   23.6683 C.ar    1  UNL1        0.1454
     17 C           8.8010   -4.9141   24.6644 C.ar    1  UNL1        0.0398
     18 C           8.2935   -5.1740   26.0518 C.ar    1  UNL1        0.0328
     19 C           7.8528   -6.5533   26.4432 C.ar    1  UNL1        0.1403
     20 F           7.3453   -6.8130   27.8306 F       1  UNL1       -0.2042
     21 C           7.9196   -7.6729   25.4472 C.ar    1  UNL1        0.0328
     22 C           8.4271   -7.4131   24.0598 C.ar    1  UNL1        0.0398
     23 C           2.8998   -2.2296   19.7795 C.3     1  UNL1        0.1115
     24 C           2.2692   -1.1572   20.6175 C.3     1  UNL1        0.0388
     25 C           1.1181   -0.3621   20.0762 C.3     1  UNL1        0.0048
     26 C           0.4875    0.7103   20.9142 C.3     1  UNL1        0.0174
     27 C           1.0080    0.9877   22.2935 C.3     1  UNL1        0.0720
     28 N           2.1591    0.1927   22.8346 N.3     1  UNL1       -0.2739
     29 C           2.7897   -0.8798   21.9966 C.3     1  UNL1        0.0739
     30 C           2.6796    0.4701   24.2138 C.3     1  UNL1        0.0576
     31 C           2.3871    1.7840   24.8756 C.3     1  UNL1        0.0173
     32 C           3.4925   -0.5665   24.9312 C.3     1  UNL1        0.0173
@<TRIPOS>BOND
     1    12    13    1
     2    13    14    1
     3    13     1    1
     4     1     2   ar
     5     2     3   ar
     6     3     4   ar
     7     4     5   ar
     8     5     6   ar
     9     6    15    1
    10    15    16    1
    11    16    17   ar
    12    17    18   ar
    13    18    19   ar
    14    19    20    1
    15    19    21   ar
    16    21    22   ar
    17     6     7   ar
    18     7     8   ar
    19     8     9   ar
    20     9    10    2
    21     9    11   ar
    22    11    23    1
    23    24    23    1
    24    24    25    1
    25    25    26    1
    26    26    27    1
    27    27    28    1
    28    28    30    1
    29    30    31    1
    30    30    32    1
    31    28    29    1
    32    11     1   ar
    33    29    24    1
    34     8     3   ar
    35    22    16   ar
@<TRIPOS>MOLECULE
*****
 32 35 0 0 0
SMALL
GASTEIGER

@<TRIPOS>ATOM
      1 C           6.6052   -0.4728   18.6134 C.ar    1  UNL1        0.1220
      2 N           7.8813   -0.7773   19.3405 N.ar    1  UNL1       -0.2322
      3 C           8.0530   -2.0963   20.0339 C.ar    1  UNL1        0.0874
      4 C           9.3291   -2.4008   20.7611 C.ar    1  UNL1        0.0224
      5 C           9.5008   -3.7198   21.4544 C.ar    1  UNL1        0.0390
      6 C           8.3964   -4.7343   21.4206 C.ar    1  UNL1        0.1455
      7 C           7.1203   -4.4297   20.6935 C.ar    1  UNL1        0.0437
      8 C           6.9486   -3.1108   20.0002 C.ar    1  UNL1        0.0769
      9 C           5.6724   -2.8062   19.2730 C.ar    1  UNL1        0.2632
     10 O           4.5680   -3.8206   19.2392 O.2     1  UNL1       -0.2669
     11 N           5.5008   -1.4872   18.5796 N.ar    1  UNL1       -0.2840
     12 C           6.0160    2.0561   18.7023 C.3     1  UNL1        0.0079
     13 C           6.4334    0.8463   17.9200 C.3     1  UNL1        0.0570
     14 C           6.6791    0.9554   16.4443 C.3     1  UNL1        0.0079
     15 O           8.5682   -6.0533   22.1140 O.3     1  UNL1       -0.4535
     16 C           8.1948   -6.1948   23.5599 C.ar    1  UNL1        0.1454
     17 C           7.5321   -5.0568   24.2782 C.ar    1  UNL1        0.0398
     18 C           7.1587   -5.1984   25.7241 C.ar    1  UNL1        0.0328
     19 C           7.4480   -6.4778   26.4516 C.ar    1  UNL1        0.1403
     20 F           7.0746   -6.6193   27.8975 F       1  UNL1       -0.2042
     21 C           8.1107   -7.6157   25.7333 C.ar    1  UNL1        0.0328
     22 C           8.4841   -7.4743   24.2875 C.ar    1  UNL1        0.0398
     23 C           4.2246   -1.1826   17.8524 C.3     1  UNL1        0.1115
     24 C           3.1020   -0.4892   18.5659 C.3     1  UNL1        0.0388
     25 C           2.4027   -1.1705   19.7046 C.3     1  UNL1        0.0048
     26 C           1.2801   -0.4771   20.4180 C.3     1  UNL1        0.0174
     27 C           0.8569    0.8978   19.9927 C.3     1  UNL1        0.0720
     28 N           1.5563    1.5791   18.8540 N.3     1  UNL1       -0.2739
     29 C           2.6788    0.8856   18.1406 C.3     1  UNL1        0.0739
     30 C           1.1331    2.9538   18.4288 C.3     1  UNL1        0.0576
     31 C           2.1208    4.0826   18.4495 C.3     1  UNL1        0.0173
     32 C          -0.2778    3.1999   17.9828 C.3     1  UNL1        0.0173
@<TRIPOS>BOND
     1    12    13    1
     2    13    14    1
     3    13     1    1
     4     1     2   ar
     5     2     3   ar
     6     3     4   ar
     7     4     5   ar
     8     5     6   ar
     9     6    15    1
    10    15    16    1
    11    16    17   ar
    12    17    18   ar
    13    18    19   ar
    14    19    20    1
    15    19    21   ar
    16    21    22   ar
    17     6     7   ar
    18     7     8   ar
    19     8     9   ar
    20     9    10    2
    21     9    11   ar
    22    11    23    1
    23    24    23    1
    24    24    25    1
    25    25    26    1
    26    26    27    1
    27    27    28    1
    28    28    30    1
    29    30    31    1
    30    30    32    1
    31    28    29    1
    32    11     1   ar
    33    29    24    1
    34     8     3   ar
    35    22    16   ar
@<TRIPOS>MOLECULE
*****
 32 35 0 0 0
SMALL
GASTEIGER

@<TRIPOS>ATOM
      1 C           3.2336    0.9075   18.6265 C.ar    1  UNL1        0.1220
      2 N           3.0464    2.3546   18.2789 N.ar    1  UNL1       -0.2322
      3 C           1.7897    3.0667   18.6836 C.ar    1  UNL1        0.0874
      4 C           1.6025    4.5138   18.3360 C.ar    1  UNL1        0.0224
      5 C           0.3459    5.2258   18.7407 C.ar    1  UNL1        0.0390
      6 C          -0.7235    4.4908   19.4931 C.ar    1  UNL1        0.1455
      7 C          -0.5363    3.0437   19.8407 C.ar    1  UNL1        0.0437
      8 C           0.7203    2.3317   19.4360 C.ar    1  UNL1        0.0769
      9 C           0.9076    0.8845   19.7836 C.ar    1  UNL1        0.2632
     10 O          -0.1618    0.1495   20.5360 O.2     1  UNL1       -0.2669
     11 N           2.1642    0.1725   19.3789 N.ar    1  UNL1       -0.2840
     12 C           4.5200   -0.6147   16.9598 C.3     1  UNL1        0.0079
     13 C           4.4903    0.1954   18.2218 C.3     1  UNL1        0.0570
     14 C           5.7172    0.2935   19.0791 C.3     1  UNL1        0.0079
     15 O          -1.9802    5.2029   19.8979 O.3     1  UNL1       -0.4535
     16 C          -3.3178    4.6119   19.5642 C.ar    1  UNL1        0.1454
     17 C          -4.3074    4.3317   20.6560 C.ar    1  UNL1        0.0398
     18 C          -5.6451    3.7407   20.3222 C.ar    1  UNL1        0.0328
     19 C          -5.9931    3.4298   18.8967 C.ar    1  UNL1        0.1403
     20 F          -7.3307    2.8388   18.5630 F       1  UNL1       -0.2042
     21 C          -5.0035    3.7099   17.8049 C.ar    1  UNL1        0.0328
     22 C          -3.6658    4.3009   18.1386 C.ar    1  UNL1        0.0398
     23 C           2.3515   -1.2747   19.7265 C.3     1  UNL1        0.1115
     24 C           3.1300   -1.6574   20.9502 C.3     1  UNL1        0.0388
     25 C           4.1691   -2.7363   20.8710 C.3     1  UNL1        0.0048
     26 C           4.9477   -3.1190   22.0947 C.3     1  UNL1        0.0174
     27 C           4.6871   -2.4228   23.3976 C.3     1  UNL1        0.0720
     28 N           3.6480   -1.3439   23.4767 N.3     1  UNL1       -0.2739
     29 C           2.8694   -0.9612   22.2530 C.3     1  UNL1        0.0739
     30 C           3.3874   -0.6478   24.7796 C.3     1  UNL1        0.0576
     31 C           2.4597    0.5299   24.8282 C.3     1  UNL1        0.0173
     32 C           4.0546   -1.1293   26.0338 C.3     1  UNL1        0.0173
@<TRIPOS>BOND
     1    12    13    1
     2    13    14    1
     3    13     1    1
     4     1     2   ar
     5     2     3   ar
     6     3     4   ar
     7     4     5   ar
     8     5     6   ar
     9     6    15    1
    10    15    16    1
    11    16    17   ar
    12    17    18   ar
    13    18    19   ar
    14    19    20    1
    15    19    21   ar
    16    21    22   ar
    17     6     7   ar
    18     7     8   ar
    19     8     9   ar
    20     9    10    2
    21     9    11   ar
    22    11    23    1
    23    24    23    1
    24    24    25    1
    25    25    26    1
    26    26    27    1
    27    27    28    1
    28    28    30    1
    29    30    31    1
    30    30    32    1
    31    28    29    1
    32    11     1   ar
    33    29    24    1
    34     8     3   ar
    35    22    16   ar
@<TRIPOS>MOLECULE
*****
 32 35 0 0 0
SMALL
GASTEIGER

@<TRIPOS>ATOM
      1 C           7.4291   -4.1485   22.2823 C.ar    1  UNL1        0.1220
      2 N           7.7762   -5.5620   22.6449 N.ar    1  UNL1       -0.2322
      3 C           7.8509   -5.9698   24.0865 C.ar    1  UNL1        0.0874
      4 C           8.1980   -7.3832   24.4491 C.ar    1  UNL1        0.0224
      5 C           8.2726   -7.7909   25.8907 C.ar    1  UNL1        0.0390
      6 C           8.0001   -6.7852   26.9696 C.ar    1  UNL1        0.1455
      7 C           7.6530   -5.3717   26.6070 C.ar    1  UNL1        0.0437
      8 C           7.5784   -4.9640   25.1655 C.ar    1  UNL1        0.0769
      9 C           7.2313   -3.5504   24.8028 C.ar    1  UNL1        0.2632
     10 O           6.9588   -2.5446   25.8817 O.2     1  UNL1       -0.2669
     11 N           7.1567   -3.1427   23.3612 N.ar    1  UNL1       -0.2840
     12 C           8.5262   -3.0671   20.1901 C.3     1  UNL1        0.0079
     13 C           7.3545   -3.7407   20.8406 C.3     1  UNL1        0.0570
     14 C           6.1081   -4.0066   20.0496 C.3     1  UNL1        0.0079
     15 O           8.0748   -7.1929   28.4113 O.3     1  UNL1       -0.4535
     16 C           8.1445   -6.1468   29.4839 C.ar    1  UNL1        0.1454
     17 C           6.8939   -5.7094   30.1874 C.ar    1  UNL1        0.0398
     18 C           6.9636   -4.6632   31.2601 C.ar    1  UNL1        0.0328
     19 C           8.2838   -4.0545   31.6294 C.ar    1  UNL1        0.1403
     20 F           8.3535   -3.0083   32.7020 F       1  UNL1       -0.2042
     21 C           9.5344   -4.4918   30.9259 C.ar    1  UNL1        0.0328
     22 C           9.4647   -5.5380   29.8532 C.ar    1  UNL1        0.0398
     23 C           6.8095   -1.7292   22.9985 C.3     1  UNL1        0.1115
     24 C           5.3723   -1.3098   22.9068 C.3     1  UNL1        0.0388
     25 C           4.6155   -0.9488   24.1507 C.3     1  UNL1        0.0048
     26 C           3.1782   -0.5294   24.0589 C.3     1  UNL1        0.0174
     27 C           2.4978   -0.4710   22.7234 C.3     1  UNL1        0.0720
     28 N           3.2546   -0.8320   21.4797 N.3     1  UNL1       -0.2739
     29 C           4.6918   -1.2514   21.5714 C.3     1  UNL1        0.0739
     30 C           2.5741   -0.7736   20.1442 C.3     1  UNL1        0.0576
     31 C           3.3670   -0.9848   18.8885 C.3     1  UNL1        0.0173
     32 C           1.1006   -0.5039   20.0644 C.3     1  UNL1        0.0173
@<TRIPOS>BOND
     1    12    13    1
     2    13    14    1
     3    13     1    1
     4     1     2   ar
     5     2     3   ar
     6     3     4   ar
     7     4     5   ar
     8     5     6   ar
     9     6    15    1
    10    15    16    1
    11    16    17   ar
    12    17    18   ar
    13    18    19   ar
    14    19    20    1
    15    19    21   ar
    16    21    22   ar
    17     6     7   ar
    18     7     8   ar
    19     8     9   ar
    20     9    10    2
    21     9    11   ar
    22    11    23    1
    23    24    23    1
    24    24    25    1
    25    25    26    1
    26    26    27    1
    27    27    28    1
    28    28    30    1
    29    30    31    1
    30    30    32    1
    31    28    29    1
    32    11     1   ar
    33    29    24    1
    34     8     3   ar
    35    22    16   ar
@<TRIPOS>MOLECULE
*****
 32 35 0 0 0
SMALL
GASTEIGER

@<TRIPOS>ATOM
      1 C           5.9747   -1.9658   26.2197 C.ar    1  UNL1        0.1220
      2 N           6.1574   -2.9906   25.1397 N.ar    1  UNL1       -0.2322
      3 C           5.4116   -2.8569   23.8450 C.ar    1  UNL1        0.0874
      4 C           5.5942   -3.8817   22.7650 C.ar    1  UNL1        0.0224
      5 C           4.8485   -3.7480   21.4705 C.ar    1  UNL1        0.0390
      6 C           3.9200   -2.5896   21.2559 C.ar    1  UNL1        0.1455
      7 C           3.7374   -1.5648   22.3359 C.ar    1  UNL1        0.0437
      8 C           4.4831   -1.6985   23.6305 C.ar    1  UNL1        0.0769
      9 C           4.3005   -0.6737   24.7106 C.ar    1  UNL1        0.2632
     10 O           3.3720    0.4847   24.4961 O.2     1  UNL1       -0.2669
     11 N           5.0462   -0.8074   26.0051 N.ar    1  UNL1       -0.2840
     12 C           7.9220   -1.2417   27.7797 C.3     1  UNL1        0.0079
     13 C           6.7205   -2.0995   27.5143 C.3     1  UNL1        0.0570
     14 C           6.2647   -3.0910   28.5435 C.3     1  UNL1        0.0079
     15 O           3.1742   -2.4559   19.9613 O.3     1  UNL1       -0.4535
     16 C           2.5657   -1.1394   19.5788 C.ar    1  UNL1        0.1454
     17 C           3.3037   -0.2103   18.6611 C.ar    1  UNL1        0.0398
     18 C           2.6950    1.1062   18.2786 C.ar    1  UNL1        0.0328
     19 C           1.3484    1.4937   18.8138 C.ar    1  UNL1        0.1403
     20 F           0.7398    2.8102   18.4313 F       1  UNL1       -0.2042
     21 C           0.6104    0.5646   19.7315 C.ar    1  UNL1        0.0328
     22 C           1.2190   -0.7519   20.1140 C.ar    1  UNL1        0.0398
     23 C           4.8636    0.2174   27.0852 C.3     1  UNL1        0.1115
     24 C           3.7697    0.0525   28.0983 C.3     1  UNL1        0.0388
     25 C           4.1030   -0.3601   29.5015 C.3     1  UNL1        0.0048
     26 C           3.0091   -0.5250   30.5145 C.3     1  UNL1        0.0174
     27 C           1.5820   -0.2773   30.1244 C.3     1  UNL1        0.0720
     28 N           1.2488    0.1352   28.7213 N.3     1  UNL1       -0.2739
     29 C           2.3427    0.3001   27.7083 C.3     1  UNL1        0.0739
     30 C          -0.1782    0.3829   28.3313 C.3     1  UNL1        0.0576
     31 C          -0.5336    1.5887   27.5130 C.3     1  UNL1        0.0173
     32 C          -1.2499   -0.5754   28.7595 C.3     1  UNL1        0.0173
@<TRIPOS>BOND
     1    12    13    1
     2    13    14    1
     3    13     1    1
     4     1     2   ar
     5     2     3   ar
     6     3     4   ar
     7     4     5   ar
     8     5     6   ar
     9     6    15    1
    10    15    16    1
    11    16    17   ar
    12    17    18   ar
    13    18    19   ar
    14    19    20    1
    15    19    21   ar
    16    21    22   ar
    17     6     7   ar
    18     7     8   ar
    19     8     9   ar
    20     9    10    2
    21     9    11   ar
    22    11    23    1
    23    24    23    1
    24    24    25    1
    25    25    26    1
    26    26    27    1
    27    27    28    1
    28    28    30    1
    29    30    31    1
    30    30    32    1
    31    28    29    1
    32    11     1   ar
    33    29    24    1
    34     8     3   ar
    35    22    16   ar
@<TRIPOS>MOLECULE
*****
 32 35 0 0 0
SMALL
GASTEIGER

@<TRIPOS>ATOM
      1 C           3.1625    0.9017   18.6424 C.ar    1  UNL1        0.1220
      2 N           2.9263    2.3255   18.2341 N.ar    1  UNL1       -0.2322
      3 C           1.6810    3.0357   18.6758 C.ar    1  UNL1        0.0874
      4 C           1.4448    4.4596   18.2676 C.ar    1  UNL1        0.0224
      5 C           0.1996    5.1697   18.7093 C.ar    1  UNL1        0.0390
      6 C          -0.8094    4.4559   19.5592 C.ar    1  UNL1        0.1455
      7 C          -0.5732    3.0321   19.9675 C.ar    1  UNL1        0.0437
      8 C           0.6720    2.3220   19.5258 C.ar    1  UNL1        0.0769
      9 C           0.9083    0.8980   19.9340 C.ar    1  UNL1        0.2632
     10 O          -0.1008    0.1842   20.7840 O.2     1  UNL1       -0.2669
     11 N           2.1535    0.1879   19.4923 N.ar    1  UNL1       -0.2840
     12 C           4.3802   -0.6833   16.9826 C.3     1  UNL1        0.0079
     13 C           4.4078    0.1915   18.2007 C.3     1  UNL1        0.0570
     14 C           5.6805    0.3562   18.9772 C.3     1  UNL1        0.0079
     15 O          -2.0547    5.1661   20.0009 O.3     1  UNL1       -0.4535
     16 C          -3.4015    4.6113   19.6430 C.ar    1  UNL1        0.1454
     17 C          -4.4487    4.4416   20.7035 C.ar    1  UNL1        0.0398
     18 C          -5.7956    3.8867   20.3455 C.ar    1  UNL1        0.0328
     19 C          -6.0952    3.5015   18.9272 C.ar    1  UNL1        0.1403
     20 F          -7.4420    2.9466   18.5693 F       1  UNL1       -0.2042
     21 C          -5.0480    3.6711   17.8667 C.ar    1  UNL1        0.0328
     22 C          -3.7012    4.2260   18.2246 C.ar    1  UNL1        0.0398
     23 C           2.3897   -1.2361   19.9006 C.3     1  UNL1        0.1115
     24 C           3.2363   -1.5416   21.1006 C.3     1  UNL1        0.0388
     25 C           2.9130   -0.9165   22.4253 C.3     1  UNL1        0.0048
     26 C           3.7596   -1.2221   23.6253 C.3     1  UNL1        0.0174
     27 C           4.9294   -2.1527   23.5006 C.3     1  UNL1        0.0720
     28 N           5.2525   -2.7778   22.1759 N.3     1  UNL1       -0.2739
     29 C           4.4060   -2.4723   20.9759 C.3     1  UNL1        0.0739
     30 C           6.4223   -3.7084   22.0513 C.3     1  UNL1        0.0576
     31 C           6.9716   -4.3900   23.2694 C.3     1  UNL1        0.0173
     32 C           7.0427   -3.9576   20.7085 C.3     1  UNL1        0.0173
@<TRIPOS>BOND
     1    12    13    1
     2    13    14    1
     3    13     1    1
     4     1     2   ar
     5     2     3   ar
     6     3     4   ar
     7     4     5   ar
     8     5     6   ar
     9     6    15    1
    10    15    16    1
    11    16    17   ar
    12    17    18   ar
    13    18    19   ar
    14    19    20    1
    15    19    21   ar
    16    21    22   ar
    17     6     7   ar
    18     7     8   ar
    19     8     9   ar
    20     9    10    2
    21     9    11   ar
    22    11    23    1
    23    24    23    1
    24    24    25    1
    25    25    26    1
    26    26    27    1
    27    27    28    1
    28    28    30    1
    29    30    31    1
    30    30    32    1
    31    28    29    1
    32    11     1   ar
    33    29    24    1
    34     8     3   ar
    35    22    16   ar
@<TRIPOS>MOLECULE
*****
 32 35 0 0 0
SMALL
GASTEIGER

@<TRIPOS>ATOM
      1 C           0.7165    2.0401   26.0407 C.ar    1  UNL1        0.1220
      2 N           1.5923    0.8459   25.8022 N.ar    1  UNL1       -0.2322
      3 C           2.1492    0.5855   24.4339 C.ar    1  UNL1        0.0874
      4 C           3.0250   -0.6087   24.1954 C.ar    1  UNL1        0.0224
      5 C           3.5818   -0.8691   22.8272 C.ar    1  UNL1        0.0390
      6 C           3.2629    0.0648   21.6975 C.ar    1  UNL1        0.1455
      7 C           2.3872    1.2590   21.9360 C.ar    1  UNL1        0.0437
      8 C           1.8303    1.5193   23.3042 C.ar    1  UNL1        0.0769
      9 C           0.9545    2.7136   23.5428 C.ar    1  UNL1        0.2632
     10 O           0.6356    3.6474   22.4130 O.2     1  UNL1       -0.2669
     11 N           0.3977    2.9739   24.9110 N.ar    1  UNL1       -0.2840
     12 C           0.7277    3.4030   28.2526 C.3     1  UNL1        0.0079
     13 C           0.1596    2.3005   27.4090 C.3     1  UNL1        0.0570
     14 C          -0.9653    1.4583   27.9336 C.3     1  UNL1        0.0079
     15 O           3.8198   -0.1956   20.3292 O.3     1  UNL1       -0.4535
     16 C           4.1206   -1.6000   19.8967 C.ar    1  UNL1        0.1454
     17 C           2.9993   -2.5366   19.5568 C.ar    1  UNL1        0.0398
     18 C           3.3002   -3.9411   19.1243 C.ar    1  UNL1        0.0328
     19 C           4.7223   -4.4089   19.0317 C.ar    1  UNL1        0.1403
     20 F           5.0232   -5.8133   18.5992 F       1  UNL1       -0.2042
     21 C           5.8437   -3.4723   19.3715 C.ar    1  UNL1        0.0328
     22 C           5.5428   -2.0679   19.8040 C.ar    1  UNL1        0.0398
     23 C          -0.4782    4.1681   25.1495 C.3     1  UNL1        0.1115
     24 C          -1.9702    4.0297   25.0807 C.3     1  UNL1        0.0388
     25 C          -2.7816    4.0214   26.3423 C.3     1  UNL1        0.0048
     26 C          -4.2736    3.8830   26.2735 C.3     1  UNL1        0.0174
     27 C          -4.9542    3.7529   24.9431 C.3     1  UNL1        0.0720
     28 N          -4.1428    3.7612   23.6816 N.3     1  UNL1       -0.2739
     29 C          -2.6508    3.8996   23.7504 C.3     1  UNL1        0.0739
     30 C          -4.8234    3.6311   22.3513 C.3     1  UNL1        0.0576
     31 C          -6.2808    3.9604   22.2190 C.3     1  UNL1        0.0173
     32 C          -4.0465    3.1718   21.1531 C.3     1  UNL1        0.0173
@<TRIPOS>BOND
     1    12    13    1
     2    13    14    1
     3    13     1    1
     4     1     2   ar
     5     2     3   ar
     6     3     4   ar
     7     4     5   ar
     8     5     6   ar
     9     6    15    1
    10    15    16    1
    11    16    17   ar
    12    17    18   ar
    13    18    19   ar
    14    19    20    1
    15    19    21   ar
    16    21    22   ar
    17     6     7   ar
    18     7     8   ar
    19     8     9   ar
    20     9    10    2
    21     9    11   ar
    22    11    23    1
    23    24    23    1
    24    24    25    1
    25    25    26    1
    26    26    27    1
    27    27    28    1
    28    28    30    1
    29    30    31    1
    30    30    32    1
    31    28    29    1
    32    11     1   ar
    33    29    24    1
    34     8     3   ar
    35    22    16   ar
@<TRIPOS>MOLECULE
*****
 32 35 0 0 0
SMALL
GASTEIGER

@<TRIPOS>ATOM
      1 C           2.9697    0.8913   18.6461 C.ar    1  UNL1        0.1220
      2 N           2.6425    2.2983   18.2421 N.ar    1  UNL1       -0.2322
      3 C           1.3580    2.9285   18.6925 C.ar    1  UNL1        0.0874
      4 C           1.0308    4.3355   18.2885 C.ar    1  UNL1        0.0224
      5 C          -0.2537    4.9657   18.7389 C.ar    1  UNL1        0.0390
      6 C          -1.2110    4.1889   19.5933 C.ar    1  UNL1        0.1455
      7 C          -0.8839    2.7819   19.9973 C.ar    1  UNL1        0.0437
      8 C           0.4006    2.1517   19.5469 C.ar    1  UNL1        0.0769
      9 C           0.7278    0.7446   19.9509 C.ar    1  UNL1        0.2632
     10 O          -0.2296   -0.0322   20.8053 O.2     1  UNL1       -0.2669
     11 N           2.0123    0.1144   19.5005 N.ar    1  UNL1       -0.2840
     12 C           4.2825   -0.5782   16.9528 C.3     1  UNL1        0.0079
     13 C           4.2542    0.2610   18.1957 C.3     1  UNL1        0.0570
     14 C           5.5105    0.4701   18.9882 C.3     1  UNL1        0.0079
     15 O          -2.4956    4.8191   20.0437 O.3     1  UNL1       -0.4535
     16 C          -3.1246    4.3970   21.3383 C.ar    1  UNL1        0.1454
     17 C          -2.5063    4.8079   22.6417 C.ar    1  UNL1        0.0398
     18 C          -3.1354    4.3857   23.9364 C.ar    1  UNL1        0.0328
     19 C          -4.3827    3.5526   23.9276 C.ar    1  UNL1        0.1403
     20 F          -5.0117    3.1304   25.2222 F       1  UNL1       -0.2042
     21 C          -5.0010    3.1417   22.6242 C.ar    1  UNL1        0.0328
     22 C          -4.3720    3.5638   21.3296 C.ar    1  UNL1        0.0398
     23 C           2.3395   -1.2927   19.9045 C.3     1  UNL1        0.1115
     24 C           3.1981   -1.5470   21.1078 C.3     1  UNL1        0.0388
     25 C           2.9001   -0.8506   22.4025 C.3     1  UNL1        0.0048
     26 C           3.7588   -1.1049   23.6059 C.3     1  UNL1        0.0174
     27 C           4.9154   -2.0558   23.5145 C.3     1  UNL1        0.0720
     28 N           5.2133   -2.7521   22.2198 N.3     1  UNL1       -0.2739
     29 C           4.3547   -2.4978   21.0165 C.3     1  UNL1        0.0739
     30 C           6.3699   -3.7029   22.1285 C.3     1  UNL1        0.0576
     31 C           6.8883   -4.3744   23.3656 C.3     1  UNL1        0.0173
     32 C           7.0081   -3.9822   20.8000 C.3     1  UNL1        0.0173
@<TRIPOS>BOND
     1    12    13    1
     2    13    14    1
     3    13     1    1
     4     1     2   ar
     5     2     3   ar
     6     3     4   ar
     7     4     5   ar
     8     5     6   ar
     9     6    15    1
    10    15    16    1
    11    16    17   ar
    12    17    18   ar
    13    18    19   ar
    14    19    20    1
    15    19    21   ar
    16    21    22   ar
    17     6     7   ar
    18     7     8   ar
    19     8     9   ar
    20     9    10    2
    21     9    11   ar
    22    11    23    1
    23    24    23    1
    24    24    25    1
    25    25    26    1
    26    26    27    1
    27    27    28    1
    28    28    30    1
    29    30    31    1
    30    30    32    1
    31    28    29    1
    32    11     1   ar
    33    29    24    1
    34     8     3   ar
    35    22    16   ar
