@<TRIPOS>MOLECULE
*****
 30 32 0 0 0
SMALL
GASTEIGER

@<TRIPOS>ATOM
      1 C          -8.0987  -19.2795   21.1572 C.ar    1  UNL1        0.1345
      2 C          -8.3630  -18.0946   22.0383 C.ar    1  UNL1        0.0487
      3 C          -9.5761  -17.2434   21.8066 C.ar    1  UNL1        0.0529
      4 C         -10.5251  -17.5770   20.6939 C.ar    1  UNL1        0.1037
      5 C         -10.2609  -18.7618   19.8128 C.ar    1  UNL1        0.1054
      6 N          -9.0477  -19.6131   20.0444 N.ar    1  UNL1       -0.2290
      7 C         -11.7382  -16.7257   20.4622 C.3     1  UNL1        0.4212
      8 F         -12.9514  -15.8745   20.2306 F       1  UNL1       -0.1658
      9 F         -12.5503  -17.6495   21.3207 F       1  UNL1       -0.1658
     10 F         -10.9261  -15.8019   19.6037 F       1  UNL1       -0.1658
     11 N          -6.8856  -20.1307   21.3888 N.pl3   1  UNL1       -0.2821
     12 H          -6.9872  -21.0546   21.7133 H       1  UNL1        0.1551
     13 C          -2.7817  -18.4613   20.6008 C.ar    1  UNL1        0.1683
     14 C          -3.1212  -19.0090   21.9553 C.ar    1  UNL1        0.1299
     15 N          -4.4892  -19.5655   22.2180 N.ar    1  UNL1       -0.2251
     16 C          -5.5176  -19.5742   21.1262 C.ar    1  UNL1        0.1527
     17 C          -5.1782  -19.0265   19.7717 C.ar    1  UNL1        0.1340
     18 N          -3.8102  -18.4700   19.5090 N.ar    1  UNL1       -0.2290
     19 N          -0.0458  -17.3483   20.0754 N.1     1  UNL1       -0.1892
     20 C          -1.4137  -17.9048   20.3381 C.1     1  UNL1        0.1214
     21 N          -9.8404  -16.0585   22.6877 N.pl3   1  UNL1       -0.3306
     22 H         -10.0973  -15.1959   22.2888 H       1  UNL1        0.1469
     23 C          -9.7132  -16.1879   24.1767 C.3     1  UNL1        0.1184
     24 C          -8.4353  -15.7959   24.8572 C.3     1  UNL1        0.1503
     25 C          -7.3980  -15.0111   24.1103 C.3     1  UNL1        0.1003
     26 N          -6.1200  -14.6191   24.7908 N.3     1  UNL1       -0.2933
     27 C          -5.8794  -15.0119   26.2183 C.3     1  UNL1        0.1011
     28 C          -6.9167  -15.7967   26.9653 C.3     1  UNL1        0.1592
     29 O          -8.1947  -16.1888   26.2847 O.3     1  UNL1       -0.3516
     30 H          -6.0662  -13.6012   24.7524 H       1  UNL1        0.1234
@<TRIPOS>BOND
     1    19    20    3
     2    20    13    1
     3    13    14   ar
     4    14    15   ar
     5    15    16   ar
     6    16    11    1
     7    11     1    1
     8     1     2   ar
     9     2     3   ar
    10     3    21    1
    11    21    23    1
    12    24    23    1
    13    24    25    1
    14    25    26    1
    15    26    27    1
    16    27    28    1
    17    28    29    1
    18     3     4   ar
    19     4     7    1
    20     7     8    1
    21     7     9    1
    22     7    10    1
    23     4     5   ar
    24     5     6   ar
    25    16    17   ar
    26    17    18   ar
    27    18    13   ar
    28     6     1   ar
    29    29    24    1
    30    11    12    1
    31    21    22    1
    32    26    30    1
@<TRIPOS>MOLECULE
*****
 30 32 0 0 0
SMALL
GASTEIGER

@<TRIPOS>ATOM
      1 C          -8.0449  -19.4667   22.1696 C.ar    1  UNL1        0.1345
      2 C          -7.8542  -17.9833   22.2853 C.ar    1  UNL1        0.0487
      3 C          -9.0281  -17.0621   22.1327 C.ar    1  UNL1        0.0529
      4 C         -10.3927  -17.6242   21.8646 C.ar    1  UNL1        0.1037
      5 C         -10.5834  -19.1075   21.7489 C.ar    1  UNL1        0.1054
      6 N          -9.4095  -20.0288   21.9014 N.ar    1  UNL1       -0.2290
      7 C         -11.5666  -16.7029   21.7120 C.3     1  UNL1        0.4212
      8 F         -12.7405  -15.7816   21.5595 F       1  UNL1       -0.1658
      9 F         -11.8659  -16.8420   23.1752 F       1  UNL1       -0.1658
     10 F         -11.2673  -16.5637   20.2488 F       1  UNL1       -0.1658
     11 N          -6.8710  -20.3879   22.3222 N.pl3   1  UNL1       -0.2821
     12 H          -6.9815  -21.2553   22.7745 H       1  UNL1        0.1551
     13 C          -2.8442  -19.1870   20.7120 C.ar    1  UNL1        0.1683
     14 C          -3.1493  -19.0183   22.1709 C.ar    1  UNL1        0.1299
     15 N          -4.4916  -19.4186   22.7076 N.ar    1  UNL1       -0.2251
     16 C          -5.5288  -19.9876   21.7854 C.ar    1  UNL1        0.1527
     17 C          -5.2237  -20.1563   20.3265 C.ar    1  UNL1        0.1340
     18 N          -3.8814  -19.7560   19.7898 N.ar    1  UNL1       -0.2290
     19 N          -0.1597  -18.3863   19.6385 N.1     1  UNL1       -0.1892
     20 C          -1.5020  -18.7866   20.1753 C.1     1  UNL1        0.1214
     21 N          -8.8374  -15.5787   22.2484 N.pl3   1  UNL1       -0.3306
     22 H          -9.5604  -14.9670   21.9795 H       1  UNL1        0.1469
     23 C          -7.5451  -15.0274   22.7737 C.3     1  UNL1        0.1184
     24 C          -7.2410  -15.0976   24.2409 C.3     1  UNL1        0.1503
     25 C          -8.3576  -15.2396   25.2323 C.3     1  UNL1        0.1003
     26 N          -8.0535  -15.3098   26.6994 N.3     1  UNL1       -0.2933
     27 C          -6.6327  -15.2380   27.1752 C.3     1  UNL1        0.1011
     28 C          -5.5161  -15.0960   26.1838 C.3     1  UNL1        0.1592
     29 O          -5.8203  -15.0258   24.7166 O.3     1  UNL1       -0.3516
     30 H          -8.4327  -16.1946   27.0367 H       1  UNL1        0.1234
@<TRIPOS>BOND
     1    19    20    3
     2    20    13    1
     3    13    14   ar
     4    14    15   ar
     5    15    16   ar
     6    16    11    1
     7    11     1    1
     8     1     2   ar
     9     2     3   ar
    10     3    21    1
    11    21    23    1
    12    24    23    1
    13    24    25    1
    14    25    26    1
    15    26    27    1
    16    27    28    1
    17    28    29    1
    18     3     4   ar
    19     4     7    1
    20     7     8    1
    21     7     9    1
    22     7    10    1
    23     4     5   ar
    24     5     6   ar
    25    16    17   ar
    26    17    18   ar
    27    18    13   ar
    28     6     1   ar
    29    29    24    1
    30    11    12    1
    31    21    22    1
    32    26    30    1
@<TRIPOS>MOLECULE
*****
 30 32 0 0 0
SMALL
GASTEIGER

@<TRIPOS>ATOM
      1 C          -7.8326  -17.6099   21.9586 C.ar    1  UNL1        0.1345
      2 C          -6.5698  -17.9681   22.6847 C.ar    1  UNL1        0.0487
      3 C          -5.6194  -18.9644   22.0897 C.ar    1  UNL1        0.0529
      4 C          -5.9317  -19.6025   20.7686 C.ar    1  UNL1        0.1037
      5 C          -7.1943  -19.2443   20.0425 C.ar    1  UNL1        0.1054
      6 N          -8.1448  -18.2479   20.6375 N.ar    1  UNL1       -0.2290
      7 C          -4.9811  -20.5988   20.1736 C.3     1  UNL1        0.4212
      8 F          -4.0307  -21.5951   19.5786 F       1  UNL1       -0.1658
      9 F          -5.8464  -21.7197   20.6683 F       1  UNL1       -0.1658
     10 F          -4.1158  -19.4779   19.6789 F       1  UNL1       -0.1658
     11 N          -8.7830  -16.6136   22.5536 N.pl3   1  UNL1       -0.2821
     12 H          -8.5077  -15.6746   22.6622 H       1  UNL1        0.1551
     13 C         -12.8929  -17.9165   23.8427 C.ar    1  UNL1        0.1683
     14 C         -12.7369  -16.8584   22.7910 C.ar    1  UNL1        0.1299
     15 N         -11.3670  -16.4241   22.3614 N.ar    1  UNL1       -0.2251
     16 C         -10.1530  -17.0479   22.9833 C.ar    1  UNL1        0.1527
     17 C         -10.3089  -18.1061   24.0349 C.ar    1  UNL1        0.1340
     18 N         -11.6788  -18.5404   24.4646 N.ar    1  UNL1       -0.2290
     19 N         -15.6327  -18.7852   24.7020 N.1     1  UNL1       -0.1892
     20 C         -14.2628  -18.3509   24.2723 C.1     1  UNL1        0.1214
     21 N          -4.3566  -19.3226   22.8158 N.pl3   1  UNL1       -0.3306
     22 H          -4.2052  -20.2492   23.1123 H       1  UNL1        0.1469
     23 C          -3.3247  -18.2692   23.0903 C.3     1  UNL1        0.1184
     24 C          -2.2913  -17.9433   22.0530 C.3     1  UNL1        0.1503
     25 C          -1.9085  -16.5155   21.7984 C.3     1  UNL1        0.1003
     26 N          -0.8751  -16.1896   20.7611 N.3     1  UNL1       -0.2933
     27 C          -0.2246  -17.2916   19.9784 C.3     1  UNL1        0.1011
     28 C          -0.6074  -18.7194   20.2330 C.3     1  UNL1        0.1592
     29 O          -1.6408  -19.0452   21.2704 O.3     1  UNL1       -0.3516
     30 H          -0.1273  -15.6864   21.2384 H       1  UNL1        0.1234
@<TRIPOS>BOND
     1    19    20    3
     2    20    13    1
     3    13    14   ar
     4    14    15   ar
     5    15    16   ar
     6    16    11    1
     7    11     1    1
     8     1     2   ar
     9     2     3   ar
    10     3    21    1
    11    21    23    1
    12    24    23    1
    13    24    25    1
    14    25    26    1
    15    26    27    1
    16    27    28    1
    17    28    29    1
    18     3     4   ar
    19     4     7    1
    20     7     8    1
    21     7     9    1
    22     7    10    1
    23     4     5   ar
    24     5     6   ar
    25    16    17   ar
    26    17    18   ar
    27    18    13   ar
    28     6     1   ar
    29    29    24    1
    30    11    12    1
    31    21    22    1
    32    26    30    1
@<TRIPOS>MOLECULE
*****
 30 32 0 0 0
SMALL
GASTEIGER

@<TRIPOS>ATOM
      1 C          -6.6251  -16.1552   23.9996 C.ar    1  UNL1        0.1345
      2 C          -7.0143  -16.8833   22.7472 C.ar    1  UNL1        0.0487
      3 C          -8.4615  -17.1398   22.4477 C.ar    1  UNL1        0.0529
      4 C          -9.5196  -16.6681   23.4006 C.ar    1  UNL1        0.1037
      5 C          -9.1305  -15.9401   24.6530 C.ar    1  UNL1        0.1054
      6 N          -7.6832  -15.6836   24.9525 N.ar    1  UNL1       -0.2290
      7 C         -10.9669  -16.9246   23.1011 C.3     1  UNL1        0.4212
      8 F         -12.4141  -17.1811   22.8016 F       1  UNL1       -0.1658
      9 F         -10.9435  -18.1176   24.0101 F       1  UNL1       -0.1658
     10 F         -10.9902  -15.7317   22.1921 F       1  UNL1       -0.1658
     11 N          -5.1778  -15.8988   24.2991 N.pl3   1  UNL1       -0.2821
     12 H          -4.9254  -15.3616   25.0845 H       1  UNL1        0.1551
     13 C          -1.9901  -17.5848   21.6073 C.ar    1  UNL1        0.1683
     14 C          -2.3216  -16.1230   21.5529 C.ar    1  UNL1        0.1299
     15 N          -3.3842  -15.5609   22.4501 N.ar    1  UNL1       -0.2251
     16 C          -4.1153  -16.4608   23.4018 C.ar    1  UNL1        0.1527
     17 C          -3.7837  -17.9227   23.4562 C.ar    1  UNL1        0.1340
     18 N          -2.7212  -18.4847   22.5590 N.ar    1  UNL1       -0.2290
     19 N           0.1351  -18.7089   19.8128 N.1     1  UNL1       -0.1892
     20 C          -0.9275  -18.1468   20.7101 C.1     1  UNL1        0.1214
     21 N          -8.8507  -17.8679   21.1953 N.pl3   1  UNL1       -0.3306
     22 H          -9.4127  -17.4219   20.5211 H       1  UNL1        0.1469
     23 C          -8.3836  -19.2754   20.9702 C.3     1  UNL1        0.1184
     24 C          -6.9644  -19.5384   20.5619 C.3     1  UNL1        0.1503
     25 C          -6.3546  -20.8886   20.7960 C.3     1  UNL1        0.1003
     26 N          -4.9354  -21.1516   20.3877 N.3     1  UNL1       -0.2933
     27 C          -4.1260  -20.0643   19.7453 C.3     1  UNL1        0.1011
     28 C          -4.7358  -18.7140   19.5112 C.3     1  UNL1        0.1592
     29 O          -6.1551  -18.4510   19.9195 O.3     1  UNL1       -0.3516
     30 H          -4.9579  -21.9302   19.7291 H       1  UNL1        0.1234
@<TRIPOS>BOND
     1    19    20    3
     2    20    13    1
     3    13    14   ar
     4    14    15   ar
     5    15    16   ar
     6    16    11    1
     7    11     1    1
     8     1     2   ar
     9     2     3   ar
    10     3    21    1
    11    21    23    1
    12    24    23    1
    13    24    25    1
    14    25    26    1
    15    26    27    1
    16    27    28    1
    17    28    29    1
    18     3     4   ar
    19     4     7    1
    20     7     8    1
    21     7     9    1
    22     7    10    1
    23     4     5   ar
    24     5     6   ar
    25    16    17   ar
    26    17    18   ar
    27    18    13   ar
    28     6     1   ar
    29    29    24    1
    30    11    12    1
    31    21    22    1
    32    26    30    1
@<TRIPOS>MOLECULE
*****
 30 32 0 0 0
SMALL
GASTEIGER

@<TRIPOS>ATOM
      1 C          -5.0562  -19.9650   20.4862 C.ar    1  UNL1        0.1345
      2 C          -4.7587  -18.9013   21.5012 C.ar    1  UNL1        0.0487
      3 C          -3.4672  -18.1413   21.4345 C.ar    1  UNL1        0.0529
      4 C          -2.4732  -18.4450   20.3530 C.ar    1  UNL1        0.1037
      5 C          -2.7707  -19.5086   19.3380 C.ar    1  UNL1        0.1054
      6 N          -4.0623  -20.2687   19.4046 N.ar    1  UNL1       -0.2290
      7 C          -1.1817  -17.6849   20.2863 C.3     1  UNL1        0.4212
      8 F           0.1097  -16.9249   20.2197 F       1  UNL1       -0.1658
      9 F          -1.7030  -16.9016   19.1182 F       1  UNL1       -0.1658
     10 F          -0.6604  -18.4683   21.4545 F       1  UNL1       -0.1658
     11 N          -6.3477  -20.7250   20.5529 N.pl3   1  UNL1       -0.2821
     12 H          -6.3401  -21.7095   20.5533 H       1  UNL1        0.1551
     13 C         -10.2571  -18.5052   20.7511 C.ar    1  UNL1        0.1683
     14 C          -9.5369  -18.8702   22.0153 C.ar    1  UNL1        0.1299
     15 N          -8.2338  -19.6101   21.9492 N.ar    1  UNL1       -0.2251
     16 C          -7.6508  -19.9851   20.6190 C.ar    1  UNL1        0.1527
     17 C          -8.3710  -19.6201   19.3548 C.ar    1  UNL1        0.1340
     18 N          -9.6741  -18.8801   19.4209 N.ar    1  UNL1       -0.2290
     19 N         -12.8633  -17.0253   20.8833 N.1     1  UNL1       -0.1892
     20 C         -11.5602  -17.7652   20.8172 C.1     1  UNL1        0.1214
     21 N          -3.1696  -17.0776   22.4495 N.pl3   1  UNL1       -0.3306
     22 H          -2.5224  -16.3657   22.2411 H       1  UNL1        0.1469
     23 C          -3.8582  -17.0988   23.7820 C.3     1  UNL1        0.1184
     24 C          -5.1375  -16.3403   23.9772 C.3     1  UNL1        0.1503
     25 C          -5.2728  -15.3799   25.1214 C.3     1  UNL1        0.1003
     26 N          -6.5521  -14.6214   25.3167 N.3     1  UNL1       -0.2933
     27 C          -7.6961  -14.8234   24.3677 C.3     1  UNL1        0.1011
     28 C          -7.5608  -15.7838   23.2235 C.3     1  UNL1        0.1592
     29 O          -6.2814  -16.5423   23.0282 O.3     1  UNL1       -0.3516
     30 H          -6.3144  -13.6300   25.2846 H       1  UNL1        0.1234
@<TRIPOS>BOND
     1    19    20    3
     2    20    13    1
     3    13    14   ar
     4    14    15   ar
     5    15    16   ar
     6    16    11    1
     7    11     1    1
     8     1     2   ar
     9     2     3   ar
    10     3    21    1
    11    21    23    1
    12    24    23    1
    13    24    25    1
    14    25    26    1
    15    26    27    1
    16    27    28    1
    17    28    29    1
    18     3     4   ar
    19     4     7    1
    20     7     8    1
    21     7     9    1
    22     7    10    1
    23     4     5   ar
    24     5     6   ar
    25    16    17   ar
    26    17    18   ar
    27    18    13   ar
    28     6     1   ar
    29    29    24    1
    30    11    12    1
    31    21    22    1
    32    26    30    1
@<TRIPOS>MOLECULE
*****
 30 32 0 0 0
SMALL
GASTEIGER

@<TRIPOS>ATOM
      1 C          -7.9950  -18.7423   20.8188 C.ar    1  UNL1        0.1345
      2 C          -7.2721  -17.9185   21.8430 C.ar    1  UNL1        0.0487
      3 C          -5.8220  -18.1772   22.1260 C.ar    1  UNL1        0.0529
      4 C          -5.0946  -19.2597   21.3850 C.ar    1  UNL1        0.1037
      5 C          -5.8174  -20.0835   20.3608 C.ar    1  UNL1        0.1054
      6 N          -7.2676  -19.8248   20.0777 N.ar    1  UNL1       -0.2290
      7 C          -3.6444  -19.5184   21.6681 C.3     1  UNL1        0.4212
      8 F          -2.1943  -19.7771   21.9512 F       1  UNL1       -0.1658
      9 F          -4.0083  -20.0958   23.0038 F       1  UNL1       -0.1658
     10 F          -3.2806  -18.9410   20.3324 F       1  UNL1       -0.1658
     11 N          -9.4451  -18.4836   20.5357 N.pl3   1  UNL1       -0.2821
     12 H          -9.7409  -18.2941   19.6160 H       1  UNL1        0.1551
     13 C         -12.4433  -18.5735   23.8901 C.ar    1  UNL1        0.1683
     14 C         -11.1536  -19.3288   24.0166 C.ar    1  UNL1        0.1299
     15 N         -10.1542  -19.2989   22.8984 N.ar    1  UNL1       -0.2251
     16 C         -10.4445  -18.5136   21.6538 C.ar    1  UNL1        0.1527
     17 C         -11.7342  -17.7582   21.5274 C.ar    1  UNL1        0.1340
     18 N         -12.7336  -17.7882   22.6456 N.ar    1  UNL1       -0.2290
     19 N         -14.4422  -18.6334   26.1264 N.1     1  UNL1       -0.1892
     20 C         -13.4428  -18.6034   25.0083 C.1     1  UNL1        0.1214
     21 N          -5.0991  -17.3534   23.1502 N.pl3   1  UNL1       -0.3306
     22 H          -4.2986  -17.7136   23.5960 H       1  UNL1        0.1469
     23 C          -5.5959  -15.9808   23.4952 C.3     1  UNL1        0.1184
     24 C          -6.3851  -15.7626   24.7520 C.3     1  UNL1        0.1503
     25 C          -5.7187  -15.1851   25.9653 C.3     1  UNL1        0.1003
     26 N          -6.5079  -14.9669   27.2221 N.3     1  UNL1       -0.2933
     27 C          -7.9636  -15.3264   27.2656 C.3     1  UNL1        0.1011
     28 C          -8.6300  -15.9040   26.0522 C.3     1  UNL1        0.1592
     29 O          -7.8407  -16.1221   24.7954 O.3     1  UNL1       -0.3516
     30 H          -6.4434  -13.9729   27.4415 H       1  UNL1        0.1234
@<TRIPOS>BOND
     1    19    20    3
     2    20    13    1
     3    13    14   ar
     4    14    15   ar
     5    15    16   ar
     6    16    11    1
     7    11     1    1
     8     1     2   ar
     9     2     3   ar
    10     3    21    1
    11    21    23    1
    12    24    23    1
    13    24    25    1
    14    25    26    1
    15    26    27    1
    16    27    28    1
    17    28    29    1
    18     3     4   ar
    19     4     7    1
    20     7     8    1
    21     7     9    1
    22     7    10    1
    23     4     5   ar
    24     5     6   ar
    25    16    17   ar
    26    17    18   ar
    27    18    13   ar
    28     6     1   ar
    29    29    24    1
    30    11    12    1
    31    21    22    1
    32    26    30    1
@<TRIPOS>MOLECULE
*****
 30 32 0 0 0
SMALL
GASTEIGER

@<TRIPOS>ATOM
      1 C          -7.7544  -17.2668   21.9992 C.ar    1  UNL1        0.1345
      2 C          -6.9488  -18.4944   21.6923 C.ar    1  UNL1        0.0487
      3 C          -5.5325  -18.6020   22.1746 C.ar    1  UNL1        0.0529
      4 C          -4.9218  -17.4821   22.9638 C.ar    1  UNL1        0.1037
      5 C          -5.7274  -16.2546   23.2708 C.ar    1  UNL1        0.1054
      6 N          -7.1437  -16.1469   22.7885 N.ar    1  UNL1       -0.2290
      7 C          -3.5055  -17.5898   23.4461 C.3     1  UNL1        0.4212
      8 F          -2.0893  -17.6974   23.9283 F       1  UNL1       -0.1658
      9 F          -3.0219  -16.9879   22.1601 F       1  UNL1       -0.1658
     10 F          -3.9891  -18.1917   24.7321 F       1  UNL1       -0.1658
     11 N          -9.1706  -17.1592   21.5170 N.pl3   1  UNL1       -0.2821
     12 H          -9.3560  -16.8643   20.5961 H       1  UNL1        0.1551
     13 C         -12.5722  -18.1840   24.2791 C.ar    1  UNL1        0.1683
     14 C         -11.1758  -18.6155   24.6167 C.ar    1  UNL1        0.1299
     15 N         -10.0420  -18.2739   23.6960 N.ar    1  UNL1       -0.2251
     16 C         -10.3045  -17.5008   22.4377 C.ar    1  UNL1        0.1527
     17 C         -11.7008  -17.0693   22.1001 C.ar    1  UNL1        0.1340
     18 N         -12.8347  -17.4110   23.0208 N.ar    1  UNL1       -0.2290
     19 N         -14.8399  -18.8673   26.1205 N.1     1  UNL1       -0.1892
     20 C         -13.7060  -18.5257   25.1998 C.1     1  UNL1        0.1214
     21 N          -4.7269  -19.8296   21.8676 N.pl3   1  UNL1       -0.3306
     22 H          -4.5825  -20.5104   22.5639 H       1  UNL1        0.1469
     23 C          -4.1413  -20.0197   20.4998 C.3     1  UNL1        0.1184
     24 C          -2.9574  -19.2046   20.0709 C.3     1  UNL1        0.1503
     25 C          -3.0833  -18.2442   18.9255 C.3     1  UNL1        0.1003
     26 N          -1.8994  -17.4292   18.4966 N.3     1  UNL1       -0.2933
     27 C          -0.5895  -17.5745   19.2131 C.3     1  UNL1        0.1011
     28 C          -0.4637  -18.5348   20.3585 C.3     1  UNL1        0.1592
     29 O          -1.6477  -19.3499   20.7874 O.3     1  UNL1       -0.3516
     30 H          -2.1718  -16.4495   18.5768 H       1  UNL1        0.1234
@<TRIPOS>BOND
     1    19    20    3
     2    20    13    1
     3    13    14   ar
     4    14    15   ar
     5    15    16   ar
     6    16    11    1
     7    11     1    1
     8     1     2   ar
     9     2     3   ar
    10     3    21    1
    11    21    23    1
    12    24    23    1
    13    24    25    1
    14    25    26    1
    15    26    27    1
    16    27    28    1
    17    28    29    1
    18     3     4   ar
    19     4     7    1
    20     7     8    1
    21     7     9    1
    22     7    10    1
    23     4     5   ar
    24     5     6   ar
    25    16    17   ar
    26    17    18   ar
    27    18    13   ar
    28     6     1   ar
    29    29    24    1
    30    11    12    1
    31    21    22    1
    32    26    30    1
@<TRIPOS>MOLECULE
*****
 30 32 0 0 0
SMALL
GASTEIGER

@<TRIPOS>ATOM
      1 C          -6.9884  -16.2261   23.4472 C.ar    1  UNL1        0.1345
      2 C          -8.0003  -17.2491   23.8711 C.ar    1  UNL1        0.0487
      3 C          -9.3875  -17.2125   23.3016 C.ar    1  UNL1        0.0529
      4 C          -9.7628  -16.1530   22.3083 C.ar    1  UNL1        0.1037
      5 C          -8.7509  -15.1301   21.8845 C.ar    1  UNL1        0.1054
      6 N          -7.3636  -15.1666   22.4539 N.ar    1  UNL1       -0.2290
      7 C         -11.1501  -16.1165   21.7388 C.3     1  UNL1        0.4212
      8 F         -12.5373  -16.0799   21.1694 F       1  UNL1       -0.1658
      9 F         -10.6252  -16.6221   20.4278 F       1  UNL1       -0.1658
     10 F         -11.6750  -15.6108   23.0498 F       1  UNL1       -0.1658
     11 N          -5.6012  -16.2627   24.0167 N.pl3   1  UNL1       -0.2821
     12 H          -5.4408  -15.9661   24.9417 H       1  UNL1        0.1551
     13 C          -2.1726  -17.7282   21.4973 C.ar    1  UNL1        0.1683
     14 C          -2.3242  -16.2625   21.7780 C.ar    1  UNL1        0.1299
     15 N          -3.4671  -15.7741   22.6178 N.ar    1  UNL1       -0.2251
     16 C          -4.4583  -16.7512   23.1769 C.ar    1  UNL1        0.1527
     17 C          -4.3067  -18.2169   22.8962 C.ar    1  UNL1        0.1340
     18 N          -3.1638  -18.7053   22.0564 N.ar    1  UNL1       -0.2290
     19 N           0.1131  -18.7052   19.8177 N.1     1  UNL1       -0.1892
     20 C          -1.0297  -18.2167   20.6575 C.1     1  UNL1        0.1214
     21 N         -10.3995  -18.2354   23.7254 N.pl3   1  UNL1       -0.3306
     22 H         -10.9598  -18.0743   24.5187 H       1  UNL1        0.1469
     23 C         -10.5577  -19.5039   22.9406 C.3     1  UNL1        0.1184
     24 C          -9.9124  -19.6375   21.5931 C.3     1  UNL1        0.1503
     25 C         -10.7624  -19.7694   20.3642 C.3     1  UNL1        0.1003
     26 N         -10.1171  -19.9031   19.0168 N.3     1  UNL1       -0.2933
     27 C          -8.6218  -19.9048   18.8981 C.3     1  UNL1        0.1011
     28 C          -7.7718  -19.7729   20.1270 C.3     1  UNL1        0.1592
     29 O          -8.4172  -19.6392   21.4745 O.3     1  UNL1       -0.3516
     30 H         -10.4566  -19.1264   18.4494 H       1  UNL1        0.1234
@<TRIPOS>BOND
     1    19    20    3
     2    20    13    1
     3    13    14   ar
     4    14    15   ar
     5    15    16   ar
     6    16    11    1
     7    11     1    1
     8     1     2   ar
     9     2     3   ar
    10     3    21    1
    11    21    23    1
    12    24    23    1
    13    24    25    1
    14    25    26    1
    15    26    27    1
    16    27    28    1
    17    28    29    1
    18     3     4   ar
    19     4     7    1
    20     7     8    1
    21     7     9    1
    22     7    10    1
    23     4     5   ar
    24     5     6   ar
    25    16    17   ar
    26    17    18   ar
    27    18    13   ar
    28     6     1   ar
    29    29    24    1
    30    11    12    1
    31    21    22    1
    32    26    30    1
@<TRIPOS>MOLECULE
*****
 30 32 0 0 0
SMALL
GASTEIGER

@<TRIPOS>ATOM
      1 C          -4.3142  -16.3585   23.1551 C.ar    1  UNL1        0.1345
      2 C          -4.3282  -17.8181   22.8095 C.ar    1  UNL1        0.0487
      3 C          -3.3081  -18.3741   21.8608 C.ar    1  UNL1        0.0529
      4 C          -2.2739  -17.4704   21.2576 C.ar    1  UNL1        0.1037
      5 C          -2.2598  -16.0109   21.6031 C.ar    1  UNL1        0.1054
      6 N          -3.2800  -15.4549   22.5518 N.ar    1  UNL1       -0.2290
      7 C          -1.2537  -18.0265   20.3088 C.3     1  UNL1        0.4212
      8 F          -0.2336  -18.5824   19.3600 F       1  UNL1       -0.1658
      9 F          -2.0535  -17.5134   19.1482 F       1  UNL1       -0.1658
     10 F          -0.4539  -18.5396   21.4694 F       1  UNL1       -0.1658
     11 N          -5.3344  -15.8025   24.1038 N.pl3   1  UNL1       -0.2821
     12 H          -5.0442  -15.3312   24.9180 H       1  UNL1        0.1551
     13 C          -9.7216  -16.2892   23.2288 C.ar    1  UNL1        0.1683
     14 C          -8.7670  -15.9638   22.1186 C.ar    1  UNL1        0.1299
     15 N          -7.3046  -15.8016   22.4102 N.ar    1  UNL1       -0.2251
     16 C          -6.7968  -15.9647   23.8122 C.ar    1  UNL1        0.1527
     17 C          -7.7514  -16.2901   24.9224 C.ar    1  UNL1        0.1340
     18 N          -9.2138  -16.4524   24.6308 N.ar    1  UNL1       -0.2290
     19 N         -12.6464  -16.6136   22.6455 N.1     1  UNL1       -0.1892
     20 C         -11.1840  -16.4514   22.9372 C.1     1  UNL1        0.1214
     21 N          -3.3221  -19.8337   21.5153 N.pl3   1  UNL1       -0.3306
     22 H          -2.6334  -20.4333   21.8833 H       1  UNL1        0.1469
     23 C          -4.3854  -20.3797   20.6090 C.3     1  UNL1        0.1184
     24 C          -5.8229  -20.0161   20.8353 C.3     1  UNL1        0.1503
     25 C          -6.5891  -19.2887   19.7704 C.3     1  UNL1        0.1003
     26 N          -8.0266  -18.9251   19.9967 N.3     1  UNL1       -0.2933
     27 C          -8.6981  -19.2889   21.2878 C.3     1  UNL1        0.1011
     28 C          -7.9319  -20.0162   22.3526 C.3     1  UNL1        0.1592
     29 O          -6.4943  -20.3799   22.1263 O.3     1  UNL1       -0.3516
     30 H          -8.5633  -19.3679   19.2508 H       1  UNL1        0.1234
@<TRIPOS>BOND
     1    19    20    3
     2    20    13    1
     3    13    14   ar
     4    14    15   ar
     5    15    16   ar
     6    16    11    1
     7    11     1    1
     8     1     2   ar
     9     2     3   ar
    10     3    21    1
    11    21    23    1
    12    24    23    1
    13    24    25    1
    14    25    26    1
    15    26    27    1
    16    27    28    1
    17    28    29    1
    18     3     4   ar
    19     4     7    1
    20     7     8    1
    21     7     9    1
    22     7    10    1
    23     4     5   ar
    24     5     6   ar
    25    16    17   ar
    26    17    18   ar
    27    18    13   ar
    28     6     1   ar
    29    29    24    1
    30    11    12    1
    31    21    22    1
    32    26    30    1
