@<TRIPOS>MOLECULE
*****
 30 33 0 0 0
SMALL
GASTEIGER

@<TRIPOS>ATOM
      1 N          -8.0327  -19.5235   21.4362 N.3     1  UNL1       -0.2679
      2 C          -8.6610  -19.1365   22.7422 C.3     1  UNL1        0.0978
      3 C          -9.5233  -20.1177   23.4795 C.3     1  UNL1        0.0224
      4 C         -10.1516  -19.7307   24.7855 C.3     1  UNL1        0.0065
      5 C          -9.9176  -18.3625   25.3540 C.3     1  UNL1        0.0277
      6 C          -9.0554  -17.3814   24.6166 C.ar    1  UNL1       -0.0073
      7 C          -8.8214  -16.0131   25.1852 C.ar    1  UNL1       -0.0015
      8 C          -7.9591  -15.0319   24.4478 C.ar    1  UNL1        0.0203
      9 C          -7.3308  -15.4189   23.1419 C.ar    1  UNL1        0.0985
     10 N          -7.5648  -16.7871   22.5733 N.ar    1  UNL1       -0.2471
     11 C          -8.4271  -17.7684   23.3107 C.ar    1  UNL1        0.0695
     12 C          -8.7241  -19.1977   20.1456 C.3     1  UNL1        0.0725
     13 C         -10.2226  -19.1722   20.0830 C.3     1  UNL1        0.0187
     14 C         -10.9414  -17.8774   19.8448 C.3     1  UNL1        0.0183
     15 N         -10.1724  -15.6648   20.9687 N.3     1  UNL1       -0.3211
     16 C         -11.0624  -16.8721   20.9514 C.3     1  UNL1        0.0652
     17 H         -10.3897  -15.0938   21.7856 H       1  UNL1        0.1189
     18 H         -10.3247  -15.1179   20.1213 H       1  UNL1        0.1189
     19 C          -6.7131  -20.2364   21.4209 C.3     1  UNL1        0.0886
     20 C          -5.4357  -19.4502   21.4354 C.3     1  UNL1        0.0748
     21 C          -4.5672  -19.4079   20.2131 C.3     1  UNL1        0.0432
     22 C          -3.2898  -18.6216   20.2275 C.ar    1  UNL1       -0.0234
     23 C          -2.4214  -18.5793   19.0052 C.ar    1  UNL1       -0.0045
     24 C          -1.1440  -17.7931   19.0197 C.ar    1  UNL1       -0.0003
     25 C          -0.7351  -17.0493   20.2564 C.ar    1  UNL1       -0.0003
     26 C          -1.6036  -17.0916   21.4787 C.ar    1  UNL1       -0.0032
     27 C          -2.8809  -17.8778   21.4642 C.ar    1  UNL1       -0.0103
     28 C          -3.7494  -17.9202   22.6866 C.3     1  UNL1        0.0953
     29 N          -5.0267  -18.7064   22.6721 N.3     1  UNL1       -0.2934
     30 H          -5.7787  -18.0504   22.8833 H       1  UNL1        0.1236
@<TRIPOS>BOND
     1    15    16    1
     2    16    14    1
     3    14    13    1
     4    13    12    1
     5    12     1    1
     6     1    19    1
     7    20    19    1
     8    20    21    1
     9    21    22    1
    10    22    23   ar
    11    23    24   ar
    12    24    25   ar
    13    25    26   ar
    14    26    27   ar
    15    27    28    1
    16    28    29    1
    17     2     1    1
    18     2     3    1
    19     3     4    1
    20     4     5    1
    21     5     6    1
    22     6     7   ar
    23     7     8   ar
    24     8     9   ar
    25     9    10   ar
    26    10    11   ar
    27    29    20    1
    28    11     2    1
    29    27    22   ar
    30    11     6   ar
    31    15    17    1
    32    15    18    1
    33    29    30    1
@<TRIPOS>MOLECULE
*****
 30 33 0 0 0
SMALL
GASTEIGER

@<TRIPOS>ATOM
      1 N          -8.2049  -17.8728   23.0437 N.3     1  UNL1       -0.2679
      2 C          -9.6956  -17.9465   23.1934 C.3     1  UNL1        0.0978
      3 C         -10.2969  -18.6426   24.3782 C.3     1  UNL1        0.0224
      4 C         -11.7876  -18.7163   24.5279 C.3     1  UNL1        0.0065
      5 C         -12.6770  -18.0940   23.4927 C.3     1  UNL1        0.0277
      6 C         -12.0757  -17.3979   22.3079 C.ar    1  UNL1       -0.0073
      7 C         -12.9651  -16.7755   21.2726 C.ar    1  UNL1       -0.0015
      8 C         -12.3638  -16.0795   20.0878 C.ar    1  UNL1        0.0203
      9 C         -10.8731  -16.0058   19.9381 C.ar    1  UNL1        0.0985
     10 N          -9.9837  -16.6281   20.9733 N.ar    1  UNL1       -0.2471
     11 C         -10.5850  -17.3242   22.1582 C.ar    1  UNL1        0.0695
     12 C          -7.4892  -16.5784   23.2931 C.3     1  UNL1        0.0725
     13 C          -8.0589  -15.5799   24.2567 C.3     1  UNL1        0.0187
     14 C          -7.9562  -15.8200   25.7338 C.3     1  UNL1        0.0183
     15 N          -5.6888  -14.5606   25.8860 N.3     1  UNL1       -0.3211
     16 C          -6.6661  -15.5493   26.4496 C.3     1  UNL1        0.0652
     17 H          -4.8740  -14.5021   26.4968 H       1  UNL1        0.1189
     18 H          -6.1316  -13.6441   25.8210 H       1  UNL1        0.1189
     19 C          -7.4300  -19.0935   22.6447 C.3     1  UNL1        0.0886
     20 C          -6.2174  -18.9599   21.7718 C.3     1  UNL1        0.0748
     21 C          -4.8607  -18.8014   22.3918 C.3     1  UNL1        0.0432
     22 C          -3.6481  -18.6679   21.5189 C.ar    1  UNL1       -0.0234
     23 C          -2.2915  -18.5094   22.1389 C.ar    1  UNL1       -0.0045
     24 C          -1.0790  -18.3758   21.2660 C.ar    1  UNL1       -0.0003
     25 C          -1.2231  -18.4008   19.7732 C.ar    1  UNL1       -0.0003
     26 C          -2.5797  -18.5593   19.1532 C.ar    1  UNL1       -0.0032
     27 C          -3.7922  -18.6928   20.0261 C.ar    1  UNL1       -0.0103
     28 C          -5.1490  -18.8513   19.4061 C.3     1  UNL1        0.0953
     29 N          -6.3615  -18.9849   20.2790 N.3     1  UNL1       -0.2934
     30 H          -6.7996  -19.8746   20.0403 H       1  UNL1        0.1236
@<TRIPOS>BOND
     1    15    16    1
     2    16    14    1
     3    14    13    1
     4    13    12    1
     5    12     1    1
     6     1    19    1
     7    20    19    1
     8    20    21    1
     9    21    22    1
    10    22    23   ar
    11    23    24   ar
    12    24    25   ar
    13    25    26   ar
    14    26    27   ar
    15    27    28    1
    16    28    29    1
    17     2     1    1
    18     2     3    1
    19     3     4    1
    20     4     5    1
    21     5     6    1
    22     6     7   ar
    23     7     8   ar
    24     8     9   ar
    25     9    10   ar
    26    10    11   ar
    27    29    20    1
    28    11     2    1
    29    27    22   ar
    30    11     6   ar
    31    15    17    1
    32    15    18    1
    33    29    30    1
@<TRIPOS>MOLECULE
*****
 30 33 0 0 0
SMALL
GASTEIGER

@<TRIPOS>ATOM
      1 N          -5.6879  -16.5786   23.4636 N.3     1  UNL1       -0.2679
      2 C          -5.2214  -17.7057   22.5907 C.3     1  UNL1        0.0978
      3 C          -6.0934  -18.9095   22.3902 C.3     1  UNL1        0.0224
      4 C          -5.6269  -20.0366   21.5172 C.3     1  UNL1        0.0065
      5 C          -4.2882  -19.9599   20.8449 C.3     1  UNL1        0.0277
      6 C          -3.4162  -18.7561   21.0454 C.ar    1  UNL1       -0.0073
      7 C          -2.0774  -18.6793   20.3731 C.ar    1  UNL1       -0.0015
      8 C          -1.2054  -17.4755   20.5736 C.ar    1  UNL1        0.0203
      9 C          -1.6719  -16.3484   21.4465 C.ar    1  UNL1        0.0985
     10 N          -3.0106  -16.4251   22.1189 N.ar    1  UNL1       -0.2471
     11 C          -3.8827  -17.6290   21.9184 C.ar    1  UNL1        0.0695
     12 C          -5.1708  -16.4525   24.8660 C.3     1  UNL1        0.0725
     13 C          -5.5340  -15.2560   25.6946 C.3     1  UNL1        0.0187
     14 C          -6.3347  -15.4289   26.9511 C.3     1  UNL1        0.0183
     15 N          -8.5315  -16.7603   27.3406 N.3     1  UNL1       -0.3211
     16 C          -7.8305  -15.5162   26.8811 C.3     1  UNL1        0.0652
     17 H          -9.5383  -16.6465   27.2228 H       1  UNL1        0.1189
     18 H          -8.3208  -16.9255   28.3248 H       1  UNL1        0.1189
     19 C          -6.6716  -15.5776   22.9342 C.3     1  UNL1        0.0886
     20 C          -8.1098  -15.9631   22.7526 C.3     1  UNL1        0.0748
     21 C          -8.7644  -16.8979   23.7261 C.3     1  UNL1        0.0432
     22 C         -10.2027  -17.2834   23.5445 C.ar    1  UNL1       -0.0234
     23 C         -10.8573  -18.2182   24.5179 C.ar    1  UNL1       -0.0045
     24 C         -12.2954  -18.6036   24.3363 C.ar    1  UNL1       -0.0003
     25 C         -13.0790  -18.0543   23.1812 C.ar    1  UNL1       -0.0003
     26 C         -12.4244  -17.1195   22.2078 C.ar    1  UNL1       -0.0032
     27 C         -10.9863  -16.7341   22.3894 C.ar    1  UNL1       -0.0103
     28 C         -10.3316  -15.7993   21.4159 C.3     1  UNL1        0.0953
     29 N          -8.8934  -15.4138   21.5975 N.3     1  UNL1       -0.2934
     30 H          -8.8694  -14.3976   21.6821 H       1  UNL1        0.1236
@<TRIPOS>BOND
     1    15    16    1
     2    16    14    1
     3    14    13    1
     4    13    12    1
     5    12     1    1
     6     1    19    1
     7    20    19    1
     8    20    21    1
     9    21    22    1
    10    22    23   ar
    11    23    24   ar
    12    24    25   ar
    13    25    26   ar
    14    26    27   ar
    15    27    28    1
    16    28    29    1
    17     2     1    1
    18     2     3    1
    19     3     4    1
    20     4     5    1
    21     5     6    1
    22     6     7   ar
    23     7     8   ar
    24     8     9   ar
    25     9    10   ar
    26    10    11   ar
    27    29    20    1
    28    11     2    1
    29    27    22   ar
    30    11     6   ar
    31    15    17    1
    32    15    18    1
    33    29    30    1
@<TRIPOS>MOLECULE
*****
 30 33 0 0 0
SMALL
GASTEIGER

@<TRIPOS>ATOM
      1 N          -8.1748  -18.5189   21.3225 N.3     1  UNL1       -0.2679
      2 C          -9.1445  -18.9832   22.3684 C.3     1  UNL1        0.0978
      3 C          -8.7658  -20.0948   23.3017 C.3     1  UNL1        0.0224
      4 C          -9.7355  -20.5591   24.3476 C.3     1  UNL1        0.0065
      5 C         -11.0840  -19.9119   24.4603 C.3     1  UNL1        0.0277
      6 C         -11.4627  -18.8004   23.5270 C.ar    1  UNL1       -0.0073
      7 C         -12.8113  -18.1532   23.6397 C.ar    1  UNL1       -0.0015
      8 C         -13.1900  -17.0417   22.7064 C.ar    1  UNL1        0.0203
      9 C         -12.2203  -16.5773   21.6605 C.ar    1  UNL1        0.0985
     10 N         -10.8718  -17.2245   21.5478 N.ar    1  UNL1       -0.2471
     11 C         -10.4930  -18.3361   22.4811 C.ar    1  UNL1        0.0695
     12 C          -7.8565  -19.3998   20.1509 C.3     1  UNL1        0.0725
     13 C          -6.5955  -20.2122   20.1440 C.3     1  UNL1        0.0187
     14 C          -5.7100  -20.2327   21.3545 C.3     1  UNL1        0.0183
     15 N          -4.0606  -18.2415   21.1001 N.3     1  UNL1       -0.3211
     16 C          -4.3061  -19.7120   21.2656 C.3     1  UNL1        0.0652
     17 H          -3.0565  -18.0670   21.0581 H       1  UNL1        0.1189
     18 H          -4.4601  -17.7388   21.8926 H       1  UNL1        0.1189
     19 C          -7.5233  -17.1736   21.4481 C.3     1  UNL1        0.0886
     20 C          -7.1078  -16.6645   22.7966 C.3     1  UNL1        0.0748
     21 C          -8.1459  -16.3577   23.8349 C.3     1  UNL1        0.0432
     22 C          -7.7304  -15.8486   25.1833 C.ar    1  UNL1       -0.0234
     23 C          -8.7685  -15.5418   26.2217 C.ar    1  UNL1       -0.0045
     24 C          -8.3530  -15.0326   27.5700 C.ar    1  UNL1       -0.0003
     25 C          -6.8994  -14.8303   27.8800 C.ar    1  UNL1       -0.0003
     26 C          -5.8613  -15.1371   26.8417 C.ar    1  UNL1       -0.0032
     27 C          -6.2768  -15.6462   25.4933 C.ar    1  UNL1       -0.0103
     28 C          -5.2387  -15.9531   24.4549 C.3     1  UNL1        0.0953
     29 N          -5.6542  -16.4622   23.1066 N.3     1  UNL1       -0.2934
     30 H          -5.1975  -17.3653   22.9793 H       1  UNL1        0.1236
@<TRIPOS>BOND
     1    15    16    1
     2    16    14    1
     3    14    13    1
     4    13    12    1
     5    12     1    1
     6     1    19    1
     7    20    19    1
     8    20    21    1
     9    21    22    1
    10    22    23   ar
    11    23    24   ar
    12    24    25   ar
    13    25    26   ar
    14    26    27   ar
    15    27    28    1
    16    28    29    1
    17     2     1    1
    18     2     3    1
    19     3     4    1
    20     4     5    1
    21     5     6    1
    22     6     7   ar
    23     7     8   ar
    24     8     9   ar
    25     9    10   ar
    26    10    11   ar
    27    29    20    1
    28    11     2    1
    29    27    22   ar
    30    11     6   ar
    31    15    17    1
    32    15    18    1
    33    29    30    1
@<TRIPOS>MOLECULE
*****
 30 33 0 0 0
SMALL
GASTEIGER

@<TRIPOS>ATOM
      1 N          -5.8142  -17.6143   22.5663 N.3     1  UNL1       -0.2679
      2 C          -5.1375  -18.6040   21.6648 C.3     1  UNL1        0.0978
      3 C          -5.8388  -19.8743   21.2851 C.3     1  UNL1        0.0224
      4 C          -5.1622  -20.8641   20.3837 C.3     1  UNL1        0.0065
      5 C          -3.7841  -20.5834   19.8620 C.3     1  UNL1        0.0277
      6 C          -3.0828  -19.3131   20.2417 C.ar    1  UNL1       -0.0073
      7 C          -1.7047  -19.0323   19.7200 C.ar    1  UNL1       -0.0015
      8 C          -1.0033  -17.7620   20.0997 C.ar    1  UNL1        0.0203
      9 C          -1.6800  -16.7723   21.0012 C.ar    1  UNL1        0.0985
     10 N          -3.0580  -17.0529   21.5229 N.ar    1  UNL1       -0.2471
     11 C          -3.7595  -18.3233   21.1431 C.ar    1  UNL1        0.0695
     12 C          -5.2088  -17.2748   23.8960 C.3     1  UNL1        0.0725
     13 C          -5.0994  -15.8420   24.3264 C.3     1  UNL1        0.0187
     14 C          -6.2117  -15.2062   25.1066 C.3     1  UNL1        0.0183
     15 N          -7.4767  -14.9503   27.3614 N.3     1  UNL1       -0.3211
     16 C          -6.2344  -15.3123   26.6026 C.3     1  UNL1        0.0652
     17 H          -7.3152  -15.0808   28.3601 H       1  UNL1        0.1189
     18 H          -8.2456  -15.5489   27.0603 H       1  UNL1        0.1189
     19 C          -7.0962  -16.9641   22.1380 C.3     1  UNL1        0.0886
     20 C          -8.3999  -17.4172   22.7256 C.3     1  UNL1        0.0748
     21 C          -9.6780  -16.7418   22.3255 C.3     1  UNL1        0.0432
     22 C         -10.9817  -17.1949   22.9132 C.ar    1  UNL1       -0.0234
     23 C         -12.2598  -16.5195   22.5130 C.ar    1  UNL1       -0.0045
     24 C         -13.5633  -16.9727   23.1007 C.ar    1  UNL1       -0.0003
     25 C         -13.5887  -18.1012   24.0885 C.ar    1  UNL1       -0.0003
     26 C         -12.3106  -18.7766   24.4886 C.ar    1  UNL1       -0.0032
     27 C         -11.0071  -18.3234   23.9010 C.ar    1  UNL1       -0.0103
     28 C          -9.7288  -18.9988   24.3011 C.3     1  UNL1        0.0953
     29 N          -8.4253  -18.5457   23.7135 N.3     1  UNL1       -0.2934
     30 H          -8.0156  -19.3549   23.2467 H       1  UNL1        0.1236
@<TRIPOS>BOND
     1    15    16    1
     2    16    14    1
     3    14    13    1
     4    13    12    1
     5    12     1    1
     6     1    19    1
     7    20    19    1
     8    20    21    1
     9    21    22    1
    10    22    23   ar
    11    23    24   ar
    12    24    25   ar
    13    25    26   ar
    14    26    27   ar
    15    27    28    1
    16    28    29    1
    17     2     1    1
    18     2     3    1
    19     3     4    1
    20     4     5    1
    21     5     6    1
    22     6     7   ar
    23     7     8   ar
    24     8     9   ar
    25     9    10   ar
    26    10    11   ar
    27    29    20    1
    28    11     2    1
    29    27    22   ar
    30    11     6   ar
    31    15    17    1
    32    15    18    1
    33    29    30    1
@<TRIPOS>MOLECULE
*****
 30 33 0 0 0
SMALL
GASTEIGER

@<TRIPOS>ATOM
      1 N          -5.0923  -16.8947   23.1966 N.3     1  UNL1       -0.2679
      2 C          -3.9139  -17.1154   22.2950 C.3     1  UNL1        0.0978
      3 C          -2.7684  -16.1472   22.3074 C.3     1  UNL1        0.0224
      4 C          -1.5900  -16.3679   21.4059 C.3     1  UNL1        0.0065
      5 C          -1.5572  -17.5569   20.4920 C.3     1  UNL1        0.0277
      6 C          -2.7027  -18.5251   20.4796 C.ar    1  UNL1       -0.0073
      7 C          -2.6700  -19.7141   19.5657 C.ar    1  UNL1       -0.0015
      8 C          -3.8155  -20.6823   19.5533 C.ar    1  UNL1        0.0203
      9 C          -4.9939  -20.4616   20.4548 C.ar    1  UNL1        0.0985
     10 N          -5.0267  -19.2727   21.3687 N.ar    1  UNL1       -0.2471
     11 C          -3.8811  -18.3044   21.3811 C.ar    1  UNL1        0.0695
     12 C          -5.1449  -15.6830   24.0791 C.3     1  UNL1        0.0725
     13 C          -5.2078  -15.8426   25.5693 C.3     1  UNL1        0.0187
     14 C          -6.3409  -15.2347   26.3415 C.3     1  UNL1        0.0183
     15 N          -8.5139  -14.7936   24.9874 N.3     1  UNL1       -0.3211
     16 C          -7.7572  -15.5958   26.0043 C.3     1  UNL1        0.0652
     17 H          -9.4538  -15.1760   24.8837 H       1  UNL1        0.1189
     18 H          -8.0287  -14.8362   24.0912 H       1  UNL1        0.1189
     19 C          -6.2181  -17.8857   23.2155 C.3     1  UNL1        0.0886
     20 C          -7.6166  -17.4381   22.9086 C.3     1  UNL1        0.0748
     21 C          -8.7847  -18.1638   23.5075 C.3     1  UNL1        0.0432
     22 C         -10.1832  -17.7163   23.2005 C.ar    1  UNL1       -0.0234
     23 C         -11.3514  -18.4420   23.7994 C.ar    1  UNL1       -0.0045
     24 C         -12.7497  -17.9944   23.4925 C.ar    1  UNL1       -0.0003
     25 C         -12.9799  -16.8212   22.5867 C.ar    1  UNL1       -0.0003
     26 C         -11.8117  -16.0955   21.9878 C.ar    1  UNL1       -0.0032
     27 C         -10.4134  -16.5430   22.2947 C.ar    1  UNL1       -0.0103
     28 C          -9.2451  -15.8173   21.6959 C.3     1  UNL1        0.0953
     29 N          -7.8467  -16.2649   22.0028 N.3     1  UNL1       -0.2934
     30 H          -7.3687  -15.4688   22.4249 H       1  UNL1        0.1236
@<TRIPOS>BOND
     1    15    16    1
     2    16    14    1
     3    14    13    1
     4    13    12    1
     5    12     1    1
     6     1    19    1
     7    20    19    1
     8    20    21    1
     9    21    22    1
    10    22    23   ar
    11    23    24   ar
    12    24    25   ar
    13    25    26   ar
    14    26    27   ar
    15    27    28    1
    16    28    29    1
    17     2     1    1
    18     2     3    1
    19     3     4    1
    20     4     5    1
    21     5     6    1
    22     6     7   ar
    23     7     8   ar
    24     8     9   ar
    25     9    10   ar
    26    10    11   ar
    27    29    20    1
    28    11     2    1
    29    27    22   ar
    30    11     6   ar
    31    15    17    1
    32    15    18    1
    33    29    30    1
@<TRIPOS>MOLECULE
*****
 30 33 0 0 0
SMALL
GASTEIGER

@<TRIPOS>ATOM
      1 N         -12.0253   -3.9938   18.0510 N.3     1  UNL1       -0.2679
      2 C         -11.9140   -2.5207   17.7907 C.3     1  UNL1        0.0978
      3 C         -10.7154   -1.9743   17.0734 C.3     1  UNL1        0.0224
      4 C         -10.6042   -0.5012   16.8131 C.3     1  UNL1        0.0065
      5 C         -11.6915    0.4254   17.2702 C.3     1  UNL1        0.0277
      6 C         -12.8901   -0.1211   17.9875 C.ar    1  UNL1       -0.0073
      7 C         -13.9776    0.8056   18.4447 C.ar    1  UNL1       -0.0015
      8 C         -15.1762    0.2591   19.1620 C.ar    1  UNL1        0.0203
      9 C         -15.2875   -1.2139   19.4223 C.ar    1  UNL1        0.0985
     10 N         -14.2001   -2.1405   18.9652 N.ar    1  UNL1       -0.2471
     11 C         -13.0014   -1.5941   18.2478 C.ar    1  UNL1        0.0695
     12 C         -11.3184   -4.6034   19.2252 C.3     1  UNL1        0.0725
     13 C          -9.8774   -5.0034   19.1081 C.3     1  UNL1        0.0187
     14 C          -9.4896   -6.1658   18.2430 C.3     1  UNL1        0.0183
     15 N         -10.0175   -8.6745   17.8215 N.3     1  UNL1       -0.3211
     16 C          -9.6374   -7.5666   18.7586 C.3     1  UNL1        0.0652
     17 H         -10.0724   -9.5526   18.3377 H       1  UNL1        0.1189
     18 H          -9.3141   -8.7551   17.0873 H       1  UNL1        0.1189
     19 C         -12.8434   -4.8572   17.1372 C.3     1  UNL1        0.0886
     20 C         -13.6949   -5.9540   17.7047 C.3     1  UNL1        0.0748
     21 C         -15.0526   -5.6388   18.2590 C.3     1  UNL1        0.0432
     22 C         -15.9041   -6.7356   18.8265 C.ar    1  UNL1       -0.0234
     23 C         -17.2618   -6.4205   19.3808 C.ar    1  UNL1       -0.0045
     24 C         -18.1133   -7.5173   19.9483 C.ar    1  UNL1       -0.0003
     25 C         -17.6070   -8.9292   19.9615 C.ar    1  UNL1       -0.0003
     26 C         -16.2493   -9.2443   19.4072 C.ar    1  UNL1       -0.0032
     27 C         -15.3979   -8.1476   18.8397 C.ar    1  UNL1       -0.0103
     28 C         -14.0401   -8.4627   18.2853 C.3     1  UNL1        0.0953
     29 N         -13.1887   -7.3659   17.7179 N.3     1  UNL1       -0.2934
     30 H         -12.9919   -7.6172   16.7491 H       1  UNL1        0.1236
@<TRIPOS>BOND
     1    15    16    1
     2    16    14    1
     3    14    13    1
     4    13    12    1
     5    12     1    1
     6     1    19    1
     7    20    19    1
     8    20    21    1
     9    21    22    1
    10    22    23   ar
    11    23    24   ar
    12    24    25   ar
    13    25    26   ar
    14    26    27   ar
    15    27    28    1
    16    28    29    1
    17     2     1    1
    18     2     3    1
    19     3     4    1
    20     4     5    1
    21     5     6    1
    22     6     7   ar
    23     7     8   ar
    24     8     9   ar
    25     9    10   ar
    26    10    11   ar
    27    29    20    1
    28    11     2    1
    29    27    22   ar
    30    11     6   ar
    31    15    17    1
    32    15    18    1
    33    29    30    1
@<TRIPOS>MOLECULE
*****
 30 33 0 0 0
SMALL
GASTEIGER

@<TRIPOS>ATOM
      1 N          -6.0834  -18.9301   22.2641 N.3     1  UNL1       -0.2679
      2 C          -4.9676  -19.1909   21.2961 C.3     1  UNL1        0.0978
      3 C          -5.0551  -20.3470   20.3445 C.3     1  UNL1        0.0224
      4 C          -3.9393  -20.6078   19.3765 C.3     1  UNL1        0.0065
      5 C          -2.7359  -19.7125   19.3603 C.3     1  UNL1        0.0277
      6 C          -2.6484  -18.5565   20.3120 C.ar    1  UNL1       -0.0073
      7 C          -1.4449  -17.6611   20.2958 C.ar    1  UNL1       -0.0015
      8 C          -1.3574  -16.5050   21.2475 C.ar    1  UNL1        0.0203
      9 C          -2.4732  -16.2442   22.2154 C.ar    1  UNL1        0.0985
     10 N          -3.6766  -17.1395   22.2316 N.ar    1  UNL1       -0.2471
     11 C          -3.7642  -18.2957   21.2799 C.ar    1  UNL1        0.0695
     12 C          -6.0480  -17.7123   23.1390 C.3     1  UNL1        0.0725
     13 C          -7.0937  -16.6478   22.9855 C.3     1  UNL1        0.0187
     14 C          -7.8304  -16.1410   24.1898 C.3     1  UNL1        0.0183
     15 N          -7.5996  -15.1445   26.5781 N.3     1  UNL1       -0.3211
     16 C          -7.1495  -15.2099   25.1486 C.3     1  UNL1        0.0652
     17 H          -7.0309  -14.4645   27.0828 H       1  UNL1        0.1189
     18 H          -7.4949  -16.0626   27.0099 H       1  UNL1        0.1189
     19 C          -7.2347  -19.8872   22.3571 C.3     1  UNL1        0.0886
     20 C          -8.6431  -19.3728   22.3129 C.3     1  UNL1        0.0748
     21 C          -9.4979  -19.4205   23.5445 C.3     1  UNL1        0.0432
     22 C         -10.9063  -18.9061   23.5003 C.ar    1  UNL1       -0.0234
     23 C         -11.7612  -18.9538   24.7319 C.ar    1  UNL1       -0.0045
     24 C         -13.1695  -18.4394   24.6877 C.ar    1  UNL1       -0.0003
     25 C         -13.7230  -17.8773   23.4118 C.ar    1  UNL1       -0.0003
     26 C         -12.8681  -17.8297   22.1802 C.ar    1  UNL1       -0.0032
     27 C         -11.4598  -18.3440   22.2244 C.ar    1  UNL1       -0.0103
     28 C         -10.6049  -18.2964   20.9928 C.3     1  UNL1        0.0953
     29 N          -9.1965  -18.8107   21.0370 N.3     1  UNL1       -0.2934
     30 H          -8.5910  -18.0345   20.7701 H       1  UNL1        0.1236
@<TRIPOS>BOND
     1    15    16    1
     2    16    14    1
     3    14    13    1
     4    13    12    1
     5    12     1    1
     6     1    19    1
     7    20    19    1
     8    20    21    1
     9    21    22    1
    10    22    23   ar
    11    23    24   ar
    12    24    25   ar
    13    25    26   ar
    14    26    27   ar
    15    27    28    1
    16    28    29    1
    17     2     1    1
    18     2     3    1
    19     3     4    1
    20     4     5    1
    21     5     6    1
    22     6     7   ar
    23     7     8   ar
    24     8     9   ar
    25     9    10   ar
    26    10    11   ar
    27    29    20    1
    28    11     2    1
    29    27    22   ar
    30    11     6   ar
    31    15    17    1
    32    15    18    1
    33    29    30    1
