@<TRIPOS>MOLECULE
*****
 19 21 0 0 0
SMALL
GASTEIGER

@<TRIPOS>ATOM
      1 C          -9.9141  -19.6208   19.5885 C.3     1  UNL1        0.0223
      2 C          -8.7185  -19.2454   20.4129 C.3     1  UNL1        0.0845
      3 C          -7.3556  -19.7368   20.0247 C.3     1  UNL1        0.0467
      4 C          -6.1599  -19.3614   20.8492 C.ar    1  UNL1       -0.0153
      5 C          -4.7970  -19.8529   20.4610 C.ar    1  UNL1        0.0073
      6 C          -3.6015  -19.4775   21.2854 C.ar    1  UNL1        0.0574
      7 CL         -2.2384  -19.9690   20.8972 Cl      1  UNL1       -0.0823
      8 C          -3.7689  -18.6106   22.4980 C.ar    1  UNL1        0.0115
      9 C          -5.1319  -18.1191   22.8862 C.ar    1  UNL1        0.0051
     10 C          -6.3274  -18.4945   22.0618 C.ar    1  UNL1        0.0501
     11 C          -7.6904  -18.0031   22.4500 C.2     1  UNL1        0.2524
     12 O          -7.8579  -17.1362   23.6626 O.2     1  UNL1       -0.2696
     13 N          -8.8860  -18.3785   21.6255 N.am    1  UNL1       -0.2550
     14 C         -10.2490  -17.8870   22.0137 C.ar    1  UNL1        0.0732
     15 C         -11.1051  -18.7018   22.9375 C.ar    1  UNL1        0.0181
     16 C         -12.4680  -18.2103   23.3257 C.ar    1  UNL1        0.0220
     17 C         -12.9750  -16.9042   22.7901 C.ar    1  UNL1        0.0990
     18 N         -12.1189  -16.0894   21.8663 N.ar    1  UNL1       -0.2410
     19 C         -10.7560  -16.5809   21.4781 C.ar    1  UNL1        0.1137
@<TRIPOS>BOND
     1     1     2    1
     2     2     3    1
     3     3     4    1
     4     4     5   ar
     5     5     6   ar
     6     6     7    1
     7     6     8   ar
     8     8     9   ar
     9     9    10   ar
    10    10    11    1
    11    11    12    2
    12    11    13   am
    13    13    14    1
    14    14    15   ar
    15    15    16   ar
    16    16    17   ar
    17    17    18   ar
    18    18    19   ar
    19    13     2    1
    20    19    14   ar
    21    10     4   ar
@<TRIPOS>MOLECULE
*****
 19 21 0 0 0
SMALL
GASTEIGER

@<TRIPOS>ATOM
      1 C          -8.1812  -16.0035   24.2644 C.3     1  UNL1        0.0223
      2 C          -7.6578  -17.0289   23.3026 C.3     1  UNL1        0.0845
      3 C          -6.1847  -17.3000   23.2236 C.3     1  UNL1        0.0467
      4 C          -5.6614  -18.3253   22.2618 C.ar    1  UNL1       -0.0153
      5 C          -4.1882  -18.5965   22.1828 C.ar    1  UNL1        0.0073
      6 C          -3.6649  -19.6218   21.2210 C.ar    1  UNL1        0.0574
      7 CL         -2.1917  -19.8930   21.1420 Cl      1  UNL1       -0.0823
      8 C          -4.6148  -20.3759   20.3383 C.ar    1  UNL1        0.0115
      9 C          -6.0879  -20.1047   20.4174 C.ar    1  UNL1        0.0051
     10 C          -6.6112  -19.0794   21.3791 C.ar    1  UNL1        0.0501
     11 C          -8.0844  -18.8082   21.4582 C.2     1  UNL1        0.2524
     12 O          -9.0343  -19.5622   20.5755 O.2     1  UNL1       -0.2696
     13 N          -8.6077  -17.7829   22.4199 N.am    1  UNL1       -0.2550
     14 C         -10.0809  -17.5117   22.4990 C.ar    1  UNL1        0.0732
     15 C         -10.9450  -18.3248   23.4167 C.ar    1  UNL1        0.0181
     16 C         -12.4181  -18.0536   23.4958 C.ar    1  UNL1        0.0220
     17 C         -13.0272  -16.9693   22.6571 C.ar    1  UNL1        0.0990
     18 N         -12.1631  -16.1562   21.7394 N.ar    1  UNL1       -0.2410
     19 C         -10.6899  -16.4274   21.6603 C.ar    1  UNL1        0.1137
@<TRIPOS>BOND
     1     1     2    1
     2     2     3    1
     3     3     4    1
     4     4     5   ar
     5     5     6   ar
     6     6     7    1
     7     6     8   ar
     8     8     9   ar
     9     9    10   ar
    10    10    11    1
    11    11    12    2
    12    11    13   am
    13    13    14    1
    14    14    15   ar
    15    15    16   ar
    16    16    17   ar
    17    17    18   ar
    18    18    19   ar
    19    13     2    1
    20    19    14   ar
    21    10     4   ar
@<TRIPOS>MOLECULE
*****
 19 21 0 0 0
SMALL
GASTEIGER

@<TRIPOS>ATOM
      1 C         -15.3092   -7.7058   15.9830 C.3     1  UNL1        0.0223
      2 C         -14.2661   -6.9382   16.7399 C.3     1  UNL1        0.0845
      3 C         -13.0446   -6.4331   16.0308 C.3     1  UNL1        0.0467
      4 C         -12.0016   -5.6656   16.7878 C.ar    1  UNL1       -0.0153
      5 C         -10.7801   -5.1605   16.0787 C.ar    1  UNL1        0.0073
      6 C          -9.7371   -4.3930   16.8356 C.ar    1  UNL1        0.0574
      7 CL         -8.5155   -3.8879   16.1265 Cl      1  UNL1       -0.0823
      8 C          -9.9156   -4.1305   18.3017 C.ar    1  UNL1        0.0115
      9 C         -11.1370   -4.6356   19.0108 C.ar    1  UNL1        0.0051
     10 C         -12.1800   -5.4031   18.2538 C.ar    1  UNL1        0.0501
     11 C         -13.4016   -5.9083   18.9629 C.2     1  UNL1        0.2524
     12 O         -13.5800   -5.6458   20.4289 O.2     1  UNL1       -0.2696
     13 N         -14.4446   -6.6758   18.2060 N.am    1  UNL1       -0.2550
     14 C         -15.6661   -7.1809   18.9151 C.ar    1  UNL1        0.0732
     15 C         -16.8472   -6.2771   19.1108 C.ar    1  UNL1        0.0181
     16 C         -18.0687   -6.7822   19.8199 C.ar    1  UNL1        0.0220
     17 C         -18.1091   -8.1910   20.3331 C.ar    1  UNL1        0.0990
     18 N         -16.9281   -9.0948   20.1374 N.ar    1  UNL1       -0.2410
     19 C         -15.7066   -8.5897   19.4283 C.ar    1  UNL1        0.1137
@<TRIPOS>BOND
     1     1     2    1
     2     2     3    1
     3     3     4    1
     4     4     5   ar
     5     5     6   ar
     6     6     7    1
     7     6     8   ar
     8     8     9   ar
     9     9    10   ar
    10    10    11    1
    11    11    12    2
    12    11    13   am
    13    13    14    1
    14    14    15   ar
    15    15    16   ar
    16    16    17   ar
    17    17    18   ar
    18    18    19   ar
    19    13     2    1
    20    19    14   ar
    21    10     4   ar
@<TRIPOS>MOLECULE
*****
 19 21 0 0 0
SMALL
GASTEIGER

@<TRIPOS>ATOM
      1 C         -11.5052  -16.8642   22.8226 C.3     1  UNL1        0.0223
      2 C         -10.4361  -17.6547   22.1279 C.3     1  UNL1        0.0845
      3 C         -10.7557  -18.4026   20.8677 C.3     1  UNL1        0.0467
      4 C          -9.6866  -19.1931   20.1731 C.ar    1  UNL1       -0.0153
      5 C         -10.0061  -19.9411   18.9128 C.ar    1  UNL1        0.0073
      6 C          -8.9371  -20.7314   18.2182 C.ar    1  UNL1        0.0574
      7 CL         -9.2566  -21.4795   16.9579 Cl      1  UNL1       -0.0823
      8 C          -7.5485  -20.7738   18.7840 C.ar    1  UNL1        0.0115
      9 C          -7.2290  -20.0258   20.0443 C.ar    1  UNL1        0.0051
     10 C          -8.2980  -19.2354   20.7388 C.ar    1  UNL1        0.0501
     11 C          -7.9785  -18.4874   21.9992 C.2     1  UNL1        0.2524
     12 O          -6.5900  -18.5298   22.5649 O.2     1  UNL1       -0.2696
     13 N          -9.0476  -17.6970   22.6937 N.am    1  UNL1       -0.2550
     14 C          -8.7281  -16.9490   23.9541 C.ar    1  UNL1        0.0732
     15 C          -9.1079  -17.5261   25.2855 C.ar    1  UNL1        0.0181
     16 C          -8.7884  -16.7782   26.5458 C.ar    1  UNL1        0.0220
     17 C          -8.0892  -15.4531   26.4747 C.ar    1  UNL1        0.0990
     18 N          -7.7094  -14.8759   25.1433 N.ar    1  UNL1       -0.2410
     19 C          -8.0288  -15.6239   23.8830 C.ar    1  UNL1        0.1137
@<TRIPOS>BOND
     1     1     2    1
     2     2     3    1
     3     3     4    1
     4     4     5   ar
     5     5     6   ar
     6     6     7    1
     7     6     8   ar
     8     8     9   ar
     9     9    10   ar
    10    10    11    1
    11    11    12    2
    12    11    13   am
    13    13    14    1
    14    14    15   ar
    15    15    16   ar
    16    16    17   ar
    17    17    18   ar
    18    18    19   ar
    19    13     2    1
    20    19    14   ar
    21    10     4   ar
@<TRIPOS>MOLECULE
*****
 19 21 0 0 0
SMALL
GASTEIGER

@<TRIPOS>ATOM
      1 C          -7.9963  -19.7520   19.6177 C.3     1  UNL1        0.0223
      2 C          -6.7736  -19.2502   20.3272 C.3     1  UNL1        0.0845
      3 C          -5.4327  -19.3316   19.6598 C.3     1  UNL1        0.0467
      4 C          -4.2101  -18.8298   20.3693 C.ar    1  UNL1       -0.0153
      5 C          -2.8692  -18.9113   19.7019 C.ar    1  UNL1        0.0073
      6 C          -1.6466  -18.4095   20.4114 C.ar    1  UNL1        0.0574
      7 CL         -0.3057  -18.4909   19.7439 Cl      1  UNL1       -0.0823
      8 C          -1.7649  -17.8263   21.7883 C.ar    1  UNL1        0.0115
      9 C          -3.1057  -17.7449   22.4557 C.ar    1  UNL1        0.0051
     10 C          -4.3283  -18.2466   21.7462 C.ar    1  UNL1        0.0501
     11 C          -5.6692  -18.1652   22.4136 C.2     1  UNL1        0.2524
     12 O          -5.7875  -17.5820   23.7905 O.2     1  UNL1       -0.2696
     13 N          -6.8918  -18.6670   21.7041 N.am    1  UNL1       -0.2550
     14 C          -8.2327  -18.5856   22.3715 C.ar    1  UNL1        0.0732
     15 C          -8.7841  -19.7784   23.0949 C.ar    1  UNL1        0.0181
     16 C         -10.1249  -19.6971   23.7623 C.ar    1  UNL1        0.0220
     17 C         -10.9144  -18.4229   23.7063 C.ar    1  UNL1        0.0990
     18 N         -10.3631  -17.2301   22.9830 N.ar    1  UNL1       -0.2410
     19 C          -9.0222  -17.3115   22.3156 C.ar    1  UNL1        0.1137
@<TRIPOS>BOND
     1     1     2    1
     2     2     3    1
     3     3     4    1
     4     4     5   ar
     5     5     6   ar
     6     6     7    1
     7     6     8   ar
     8     8     9   ar
     9     9    10   ar
    10    10    11    1
    11    11    12    2
    12    11    13   am
    13    13    14    1
    14    14    15   ar
    15    15    16   ar
    16    16    17   ar
    17    17    18   ar
    18    18    19   ar
    19    13     2    1
    20    19    14   ar
    21    10     4   ar
@<TRIPOS>MOLECULE
*****
 19 21 0 0 0
SMALL
GASTEIGER

@<TRIPOS>ATOM
      1 C          -8.8273   -3.5431   15.9822 C.3     1  UNL1        0.0223
      2 C         -10.0070   -2.8983   16.6474 C.3     1  UNL1        0.0845
      3 C         -10.3361   -1.4627   16.3634 C.3     1  UNL1        0.0467
      4 C         -11.5159   -0.8179   17.0287 C.ar    1  UNL1       -0.0153
      5 C         -11.8450    0.6177   16.7447 C.ar    1  UNL1        0.0073
      6 C         -13.0247    1.2625   17.4099 C.ar    1  UNL1        0.0574
      7 CL        -13.3539    2.6981   17.1259 Cl      1  UNL1       -0.0823
      8 C         -13.8753    0.4716   18.3592 C.ar    1  UNL1        0.0115
      9 C         -13.5461   -0.9640   18.6432 C.ar    1  UNL1        0.0051
     10 C         -12.3665   -1.6087   17.9779 C.ar    1  UNL1        0.0501
     11 C         -12.0373   -3.0444   18.2619 C.2     1  UNL1        0.2524
     12 O         -12.8878   -3.8353   19.2112 O.2     1  UNL1       -0.2696
     13 N         -10.8576   -3.6891   17.5967 N.am    1  UNL1       -0.2550
     14 C         -10.5284   -5.1248   17.8807 C.ar    1  UNL1        0.0732
     15 C          -9.5847   -5.4718   18.9938 C.ar    1  UNL1        0.0181
     16 C          -9.2555   -6.9074   19.2778 C.ar    1  UNL1        0.0220
     17 C          -9.8700   -7.9959   18.4487 C.ar    1  UNL1        0.0990
     18 N         -10.8137   -7.6489   17.3356 N.ar    1  UNL1       -0.2410
     19 C         -11.1429   -6.2133   17.0515 C.ar    1  UNL1        0.1137
@<TRIPOS>BOND
     1     1     2    1
     2     2     3    1
     3     3     4    1
     4     4     5   ar
     5     5     6   ar
     6     6     7    1
     7     6     8   ar
     8     8     9   ar
     9     9    10   ar
    10    10    11    1
    11    11    12    2
    12    11    13   am
    13    13    14    1
    14    14    15   ar
    15    15    16   ar
    16    16    17   ar
    17    17    18   ar
    18    18    19   ar
    19    13     2    1
    20    19    14   ar
    21    10     4   ar
@<TRIPOS>MOLECULE
*****
 19 21 0 0 0
SMALL
GASTEIGER

@<TRIPOS>ATOM
      1 C          -9.9723   -3.0149   16.7093 C.3     1  UNL1        0.0223
      2 C         -11.2154   -2.8192   17.5258 C.3     1  UNL1        0.0845
      3 C         -11.9042   -1.4868   17.5358 C.3     1  UNL1        0.0467
      4 C         -13.1472   -1.2911   18.3523 C.ar    1  UNL1       -0.0153
      5 C         -13.8360    0.0413   18.3622 C.ar    1  UNL1        0.0073
      6 C         -15.0790    0.2369   19.1787 C.ar    1  UNL1        0.0574
      7 CL        -15.7679    1.5694   19.1887 Cl      1  UNL1       -0.0823
      8 C         -15.6332   -0.9000   19.9852 C.ar    1  UNL1        0.0115
      9 C         -14.9444   -2.2324   19.9753 C.ar    1  UNL1        0.0051
     10 C         -13.7014   -2.4280   19.1588 C.ar    1  UNL1        0.0501
     11 C         -13.0125   -3.7604   19.1489 C.2     1  UNL1        0.2524
     12 O         -13.5667   -4.8973   19.9554 O.2     1  UNL1       -0.2696
     13 N         -11.7695   -3.9560   18.3324 N.am    1  UNL1       -0.2550
     14 C         -11.0806   -5.2885   18.3224 C.ar    1  UNL1        0.0732
     15 C          -9.9008   -5.5295   19.2168 C.ar    1  UNL1        0.0181
     16 C          -9.2119   -6.8619   19.2069 C.ar    1  UNL1        0.0220
     17 C          -9.7029   -7.9533   18.3026 C.ar    1  UNL1        0.0990
     18 N         -10.8827   -7.7123   17.4082 N.ar    1  UNL1       -0.2410
     19 C         -11.5716   -6.3799   17.4181 C.ar    1  UNL1        0.1137
@<TRIPOS>BOND
     1     1     2    1
     2     2     3    1
     3     3     4    1
     4     4     5   ar
     5     5     6   ar
     6     6     7    1
     7     6     8   ar
     8     8     9   ar
     9     9    10   ar
    10    10    11    1
    11    11    12    2
    12    11    13   am
    13    13    14    1
    14    14    15   ar
    15    15    16   ar
    16    16    17   ar
    17    17    18   ar
    18    18    19   ar
    19    13     2    1
    20    19    14   ar
    21    10     4   ar
@<TRIPOS>MOLECULE
*****
 19 21 0 0 0
SMALL
GASTEIGER

@<TRIPOS>ATOM
      1 C         -13.9728   -3.7357   19.7275 C.3     1  UNL1        0.0223
      2 C         -14.4168   -5.1090   19.3189 C.3     1  UNL1        0.0845
      3 C         -15.7695   -5.6124   19.7272 C.3     1  UNL1        0.0467
      4 C         -16.2134   -6.9858   19.3186 C.ar    1  UNL1       -0.0153
      5 C         -17.5661   -7.4892   19.7270 C.ar    1  UNL1        0.0073
      6 C         -18.0100   -8.8625   19.3184 C.ar    1  UNL1        0.0574
      7 CL        -19.3627   -9.3660   19.7267 Cl      1  UNL1       -0.0823
      8 C         -17.1012   -9.7324   18.5014 C.ar    1  UNL1        0.0115
      9 C         -15.7485   -9.2289   18.0930 C.ar    1  UNL1        0.0051
     10 C         -15.3047   -7.8557   18.5016 C.ar    1  UNL1        0.0501
     11 C         -13.9519   -7.3522   18.0933 C.2     1  UNL1        0.2524
     12 O         -13.0431   -8.2220   17.2763 O.2     1  UNL1       -0.2696
     13 N         -13.5080   -5.9789   18.5019 N.am    1  UNL1       -0.2550
     14 C         -12.1553   -5.4754   18.0935 C.ar    1  UNL1        0.0732
     15 C         -10.9787   -5.6632   19.0048 C.ar    1  UNL1        0.0181
     16 C          -9.6260   -5.1597   18.5965 C.ar    1  UNL1        0.0220
     17 C          -9.4499   -4.4685   17.2769 C.ar    1  UNL1        0.0990
     18 N         -10.6265   -4.2808   16.3657 N.ar    1  UNL1       -0.2410
     19 C         -11.9792   -4.7842   16.7740 C.ar    1  UNL1        0.1137
@<TRIPOS>BOND
     1     1     2    1
     2     2     3    1
     3     3     4    1
     4     4     5   ar
     5     5     6   ar
     6     6     7    1
     7     6     8   ar
     8     8     9   ar
     9     9    10   ar
    10    10    11    1
    11    11    12    2
    12    11    13   am
    13    13    14    1
    14    14    15   ar
    15    15    16   ar
    16    16    17   ar
    17    17    18   ar
    18    18    19   ar
    19    13     2    1
    20    19    14   ar
    21    10     4   ar
@<TRIPOS>MOLECULE
*****
 19 21 0 0 0
SMALL
GASTEIGER

@<TRIPOS>ATOM
      1 C         -16.4328   -4.7498   19.3660 C.3     1  UNL1        0.0223
      2 C         -14.9536   -4.5698   19.1935 C.3     1  UNL1        0.0845
      3 C         -14.0450   -5.7630   19.2186 C.3     1  UNL1        0.0467
      4 C         -12.5658   -5.5830   19.0461 C.ar    1  UNL1       -0.0153
      5 C         -11.6571   -6.7762   19.0713 C.ar    1  UNL1        0.0073
      6 C         -10.1780   -6.5962   18.8988 C.ar    1  UNL1        0.0574
      7 CL         -9.2693   -7.7894   18.9239 Cl      1  UNL1       -0.0823
      8 C          -9.6076   -5.2230   18.7012 C.ar    1  UNL1        0.0115
      9 C         -10.5162   -4.0299   18.6760 C.ar    1  UNL1        0.0051
     10 C         -11.9953   -4.2099   18.8485 C.ar    1  UNL1        0.0501
     11 C         -12.9041   -3.0167   18.8234 C.2     1  UNL1        0.2524
     12 O         -12.3336   -1.6435   18.6257 O.2     1  UNL1       -0.2696
     13 N         -14.3832   -3.1967   18.9959 N.am    1  UNL1       -0.2550
     14 C         -15.2919   -2.0035   18.9707 C.ar    1  UNL1        0.0732
     15 C         -15.5769   -1.2510   20.2367 C.ar    1  UNL1        0.0181
     16 C         -16.4856   -0.0579   20.2116 C.ar    1  UNL1        0.0220
     17 C         -17.1093    0.3828   18.9206 C.ar    1  UNL1        0.0990
     18 N         -16.8243   -0.3697   17.6546 N.ar    1  UNL1       -0.2410
     19 C         -15.9156   -1.5628   17.6797 C.ar    1  UNL1        0.1137
@<TRIPOS>BOND
     1     1     2    1
     2     2     3    1
     3     3     4    1
     4     4     5   ar
     5     5     6   ar
     6     6     7    1
     7     6     8   ar
     8     8     9   ar
     9     9    10   ar
    10    10    11    1
    11    11    12    2
    12    11    13   am
    13    13    14    1
    14    14    15   ar
    15    15    16   ar
    16    16    17   ar
    17    17    18   ar
    18    18    19   ar
    19    13     2    1
    20    19    14   ar
    21    10     4   ar
