@<TRIPOS>MOLECULE
*****
 35 39 0 0 0
SMALL
GASTEIGER

@<TRIPOS>ATOM
      1 C           8.2981   -6.1122   28.5926 C.2     1  UNL1        0.0036
      2 C           8.1839   -6.0651   27.0977 C.2     1  UNL1        0.0036
      3 C           7.7363   -5.6389   25.7310 C.3     1  UNL1        0.1686
      4 O           7.0092   -4.8849   24.6573 O.3     1  UNL1       -0.3442
      5 C           6.0904   -3.8941   24.0061 C.3     1  UNL1        0.1721
      6 C           5.0907   -2.7859   23.8560 C.ar    1  UNL1        0.0425
      7 C           4.1305   -1.6942   24.2251 C.ar    1  UNL1        0.0158
      8 C           3.3259   -0.7505   25.0688 C.ar    1  UNL1        0.0504
      9 C           3.0911   -0.5697   23.5558 C.ar    1  UNL1        0.0178
     10 C           3.6433   -1.2516   22.3391 C.ar    1  UNL1        0.0379
     11 C           4.6430   -2.3597   22.4893 C.ar    1  UNL1        0.1370
     12 N           2.7737   -0.0686   26.2855 N.pl3   1  UNL1       -0.2825
     13 C           2.6084    0.2121   28.0734 C.ar    1  UNL1        0.2208
     14 N           1.6483    1.3039   28.4424 N.ar    1  UNL1       -0.2120
     15 C           1.4153    1.6416   29.8852 C.ar    1  UNL1        0.1035
     16 C           2.1423    0.8876   30.9589 C.ar    1  UNL1        0.0430
     17 C           3.1024   -0.2042   30.5898 C.ar    1  UNL1        0.1201
     18 N           3.3355   -0.5419   29.1471 N.ar    1  UNL1       -0.2104
     19 C           3.8295   -0.9582   31.6635 C.ar    1  UNL1        0.1626
     20 C           3.9089   -0.9662   33.1614 C.ar    1  UNL1        0.0419
     21 C           4.8830   -2.0319   33.5683 C.ar    1  UNL1        0.0387
     22 C           5.7481   -3.0571   32.4648 C.ar    1  UNL1        0.1528
     23 O           4.7483   -1.9489   32.3147 O.2     1  UNL1       -0.4537
     24 C           6.7082   -4.1488   32.0958 C.3     1  UNL1        0.2064
     25 O           7.5129   -5.0926   31.2520 O.3     1  UNL1       -0.3409
     26 C           8.0651   -5.7745   30.0354 C.3     1  UNL1        0.1687
     27 H           2.1585    0.5976   25.9021 H       1  UNL1        0.1551
     28 O           5.1952   -3.0416   21.2726 O.3     1  UNL1       -0.4742
     29 C           4.3306   -3.9761   20.4793 C.3     1  UNL1        0.2226
     30 C           3.5284   -3.4562   19.3234 C.3     1  UNL1        0.1200
     31 N           3.8969   -2.1516   18.6812 N.3     1  UNL1       -0.2696
     32 C           5.1221   -1.8899   17.8565 C.3     1  UNL1        0.0722
     33 C           5.0872   -0.4563   17.4166 C.3     1  UNL1        0.0188
     34 C           3.8403    0.1680   17.9695 C.3     1  UNL1        0.0188
     35 C           3.1047   -0.8798   18.7511 C.3     1  UNL1        0.0722
@<TRIPOS>BOND
     1     1     2    2
     2     2     3    1
     3     3     4    1
     4     4     5    1
     5     5     6    1
     6     6     7   ar
     7     7     8   ar
     8     8     9   ar
     9     9    10   ar
    10    10    11   ar
    11    11    28    1
    12    28    29    1
    13    29    30    1
    14    30    31    1
    15    31    32    1
    16    32    33    1
    17    33    34    1
    18    34    35    1
    19     8    12    1
    20    12    13    1
    21    13    14   ar
    22    14    15   ar
    23    15    16   ar
    24    16    17   ar
    25    17    18   ar
    26    17    19    1
    27    19    20   ar
    28    20    21   ar
    29    21    22   ar
    30    22    23   ar
    31    22    24    1
    32    24    25    1
    33    25    26    1
    34    26     1    1
    35    11     6   ar
    36    35    31    1
    37    18    13   ar
    38    23    19   ar
    39    12    27    1
@<TRIPOS>MOLECULE
*****
 35 39 0 0 0
SMALL
GASTEIGER

@<TRIPOS>ATOM
      1 C           1.3535    1.6241   29.7793 C.2     1  UNL1        0.0036
      2 C           0.9752    1.8688   28.3485 C.2     1  UNL1        0.0036
      3 C           0.9543    1.7398   26.8543 C.3     1  UNL1        0.1686
      4 O           1.2934    1.2529   25.4767 O.3     1  UNL1       -0.3442
      5 C           1.9516    0.4666   24.3819 C.3     1  UNL1        0.1721
      6 C           2.8494   -0.5242   23.7020 C.ar    1  UNL1        0.0425
      7 C           3.8786   -1.5999   23.5189 C.ar    1  UNL1        0.0158
      8 C           4.9150   -2.6309   23.8548 C.ar    1  UNL1        0.0504
      9 C           4.6451   -2.5058   22.3422 C.ar    1  UNL1        0.0178
     10 C           3.7264   -1.6439   21.5277 C.ar    1  UNL1        0.0379
     11 C           2.8286   -0.6531   22.2077 C.ar    1  UNL1        0.1370
     12 N           5.8338   -3.4928   24.6693 N.pl3   1  UNL1       -0.2825
     13 C           6.5720   -4.0955   26.2167 C.ar    1  UNL1        0.2208
     14 N           7.6012   -5.1713   26.0337 N.ar    1  UNL1       -0.2120
     15 C           8.2913   -5.7600   27.2283 C.ar    1  UNL1        0.1035
     16 C           7.9522   -5.2731   28.6059 C.ar    1  UNL1        0.0430
     17 C           6.9230   -4.1973   28.7889 C.ar    1  UNL1        0.1201
     18 N           6.2329   -3.6086   27.5943 N.ar    1  UNL1       -0.2104
     19 C           6.5839   -3.7104   30.1666 C.ar    1  UNL1        0.1626
     20 C           6.9961   -3.9915   31.5811 C.ar    1  UNL1        0.0419
     21 C           6.2061   -3.0893   32.4822 C.ar    1  UNL1        0.0387
     22 C           5.0279   -1.9333   31.9413 C.ar    1  UNL1        0.1528
     23 O           5.9257   -2.9241   31.2613 O.2     1  UNL1       -0.4537
     24 C           3.9987   -0.8576   32.1243 C.3     1  UNL1        0.2064
     25 O           2.9622    0.1735   31.7883 O.3     1  UNL1       -0.3409
     26 C           2.0435    1.0353   30.9739 C.3     1  UNL1        0.1687
     27 H           6.2915   -4.0320   23.9845 H       1  UNL1        0.1551
     28 O           1.9098    0.2088   21.3932 O.3     1  UNL1       -0.4742
     29 C           1.2374   -0.3531   20.1758 C.3     1  UNL1        0.2226
     30 C           1.5439    0.2133   18.8211 C.3     1  UNL1        0.1200
     31 N           2.9628    0.2768   18.3383 N.3     1  UNL1       -0.2696
     32 C           3.5617   -0.5621   17.2487 C.3     1  UNL1        0.0722
     33 C           5.0008   -0.1670   17.0975 C.3     1  UNL1        0.0188
     34 C           5.2912    0.9163   18.0936 C.3     1  UNL1        0.0188
     35 C           4.0316    1.1905   18.8605 C.3     1  UNL1        0.0722
@<TRIPOS>BOND
     1     1     2    2
     2     2     3    1
     3     3     4    1
     4     4     5    1
     5     5     6    1
     6     6     7   ar
     7     7     8   ar
     8     8     9   ar
     9     9    10   ar
    10    10    11   ar
    11    11    28    1
    12    28    29    1
    13    29    30    1
    14    30    31    1
    15    31    32    1
    16    32    33    1
    17    33    34    1
    18    34    35    1
    19     8    12    1
    20    12    13    1
    21    13    14   ar
    22    14    15   ar
    23    15    16   ar
    24    16    17   ar
    25    17    18   ar
    26    17    19    1
    27    19    20   ar
    28    20    21   ar
    29    21    22   ar
    30    22    23   ar
    31    22    24    1
    32    24    25    1
    33    25    26    1
    34    26     1    1
    35    11     6   ar
    36    35    31    1
    37    18    13   ar
    38    23    19   ar
    39    12    27    1
@<TRIPOS>MOLECULE
*****
 35 39 0 0 0
SMALL
GASTEIGER

@<TRIPOS>ATOM
      1 C           7.0570   -4.4236   31.3397 C.2     1  UNL1        0.0036
      2 C           6.1559   -3.5175   32.1251 C.2     1  UNL1        0.0036
      3 C           5.1141   -2.4812   32.4262 C.3     1  UNL1        0.1686
      4 O           4.0572   -1.4397   32.2066 O.3     1  UNL1       -0.3442
      5 C           3.1127   -0.5186   31.4928 C.3     1  UNL1        0.1721
      6 C           2.3946    0.1710   30.3708 C.ar    1  UNL1        0.0425
      7 C           1.9894    0.5458   28.9761 C.ar    1  UNL1        0.0158
      8 C           1.9460    0.5608   27.4768 C.ar    1  UNL1        0.0504
      9 C           0.9583    1.5501   28.1268 C.ar    1  UNL1        0.0178
     10 C           0.6346    1.8969   29.5499 C.ar    1  UNL1        0.0379
     11 C           1.3528    1.2073   30.6718 C.ar    1  UNL1        0.1370
     12 N           2.2697    0.2140   26.0537 N.pl3   1  UNL1       -0.2825
     13 C           3.1557   -0.6869   24.7475 C.ar    1  UNL1        0.2208
     14 N           2.7505   -0.3120   23.3528 N.ar    1  UNL1       -0.2120
     15 C           3.4022   -0.9787   22.1778 C.ar    1  UNL1        0.1035
     16 C           4.4591   -2.0202   22.3974 C.ar    1  UNL1        0.0430
     17 C           4.8643   -2.3951   23.7921 C.ar    1  UNL1        0.1201
     18 N           4.2126   -1.7284   24.9672 N.ar    1  UNL1       -0.2104
     19 C           5.9212   -3.4366   24.0117 C.ar    1  UNL1        0.1626
     20 C           6.8018   -4.3233   23.1822 C.ar    1  UNL1        0.0419
     21 C           7.6460   -5.1411   24.1142 C.ar    1  UNL1        0.0387
     22 C           7.5838   -5.0472   25.8475 C.ar    1  UNL1        0.1528
     23 O           6.8656   -4.3576   24.7255 O.2     1  UNL1       -0.4537
     24 C           7.9890   -5.4221   27.2422 C.3     1  UNL1        0.2064
     25 O           8.0324   -5.4371   28.7416 O.3     1  UNL1       -0.3409
     26 C           7.7087   -5.0903   30.1646 C.3     1  UNL1        0.1687
     27 H           1.6665    0.8013   25.5432 H       1  UNL1        0.1551
     28 O           1.0291    1.5541   32.0949 O.3     1  UNL1       -0.4742
     29 C           1.8874    2.5309   32.8427 C.3     1  UNL1        0.2226
     30 C           2.5766    2.1095   34.1065 C.3     1  UNL1        0.1200
     31 N           2.3229    2.8546   35.3834 N.3     1  UNL1       -0.2696
     32 C           1.6174    4.1723   35.5101 C.3     1  UNL1        0.0722
     33 C           1.5887    4.5449   36.9627 C.3     1  UNL1        0.0188
     34 C           2.2764    3.4575   37.7340 C.3     1  UNL1        0.0188
     35 C           2.7302    2.4128   36.7578 C.3     1  UNL1        0.0722
@<TRIPOS>BOND
     1     1     2    2
     2     2     3    1
     3     3     4    1
     4     4     5    1
     5     5     6    1
     6     6     7   ar
     7     7     8   ar
     8     8     9   ar
     9     9    10   ar
    10    10    11   ar
    11    11    28    1
    12    28    29    1
    13    29    30    1
    14    30    31    1
    15    31    32    1
    16    32    33    1
    17    33    34    1
    18    34    35    1
    19     8    12    1
    20    12    13    1
    21    13    14   ar
    22    14    15   ar
    23    15    16   ar
    24    16    17   ar
    25    17    18   ar
    26    17    19    1
    27    19    20   ar
    28    20    21   ar
    29    21    22   ar
    30    22    23   ar
    31    22    24    1
    32    24    25    1
    33    25    26    1
    34    26     1    1
    35    11     6   ar
    36    35    31    1
    37    18    13   ar
    38    23    19   ar
    39    12    27    1
@<TRIPOS>MOLECULE
*****
 35 39 0 0 0
SMALL
GASTEIGER

@<TRIPOS>ATOM
      1 C           1.1675    1.6242   28.3429 C.2     1  UNL1        0.0036
      2 C           1.0672    1.5779   26.8469 C.2     1  UNL1        0.0036
      3 C           1.3282    1.1644   25.4289 C.3     1  UNL1        0.1686
      4 O           1.9189    0.4336   24.2597 O.3     1  UNL1       -0.3442
      5 C           2.7682   -0.5262   23.4804 C.3     1  UNL1        0.1721
      6 C           3.7737   -1.5995   23.1850 C.ar    1  UNL1        0.0425
      7 C           4.8139   -2.6566   23.4091 C.ar    1  UNL1        0.0158
      8 C           5.7636   -3.5702   24.1258 C.ar    1  UNL1        0.0504
      9 C           5.7845   -3.7460   22.5943 C.ar    1  UNL1        0.0178
     10 C           5.0400   -3.0862   21.4715 C.ar    1  UNL1        0.0379
     11 C           4.0346   -2.0130   21.7670 C.ar    1  UNL1        0.1370
     12 N           6.5081   -4.2300   25.2485 N.pl3   1  UNL1       -0.2825
     13 C           6.9383   -4.5009   26.9933 C.ar    1  UNL1        0.2208
     14 N           7.9785   -5.5580   27.2175 N.ar    1  UNL1       -0.2120
     15 C           8.4280   -5.8844   28.6108 C.ar    1  UNL1        0.1035
     16 C           7.8373   -5.1537   29.7800 C.ar    1  UNL1        0.0430
     17 C           6.7970   -4.0965   29.5558 C.ar    1  UNL1        0.1201
     18 N           6.3475   -3.7702   28.1625 N.ar    1  UNL1       -0.2104
     19 C           6.2062   -3.3658   30.7250 C.ar    1  UNL1        0.1626
     20 C           6.3428   -3.3572   32.2188 C.ar    1  UNL1        0.0419
     21 C           5.4011   -2.3250   32.7644 C.ar    1  UNL1        0.0387
     22 C           4.3515   -1.3327   31.7997 C.ar    1  UNL1        0.1528
     23 O           5.3569   -2.4059   31.5043 O.2     1  UNL1       -0.4537
     24 C           3.3112   -0.2755   31.5756 C.3     1  UNL1        0.2064
     25 O           2.3615    0.6381   30.8589 O.3     1  UNL1       -0.3409
     26 C           1.6170    1.2978   29.7362 C.3     1  UNL1        0.1687
     27 H           7.0844   -4.8754   24.7788 H       1  UNL1        0.1551
     28 O           3.2901   -1.3532   20.6442 O.3     1  UNL1       -0.4742
     29 C           3.5511   -1.7667   19.2261 C.3     1  UNL1        0.2226
     30 C           3.4672   -0.7546   18.1223 C.3     1  UNL1        0.1200
     31 N           2.6993    0.5175   18.3280 N.3     1  UNL1       -0.2696
     32 C           3.2902    1.8807   18.5339 C.3     1  UNL1        0.0722
     33 C           2.1617    2.8552   18.6970 C.3     1  UNL1        0.0188
     34 C           0.8732    2.0943   18.5919 C.3     1  UNL1        0.0188
     35 C           1.2055    0.6495   18.3638 C.3     1  UNL1        0.0722
@<TRIPOS>BOND
     1     1     2    2
     2     2     3    1
     3     3     4    1
     4     4     5    1
     5     5     6    1
     6     6     7   ar
     7     7     8   ar
     8     8     9   ar
     9     9    10   ar
    10    10    11   ar
    11    11    28    1
    12    28    29    1
    13    29    30    1
    14    30    31    1
    15    31    32    1
    16    32    33    1
    17    33    34    1
    18    34    35    1
    19     8    12    1
    20    12    13    1
    21    13    14   ar
    22    14    15   ar
    23    15    16   ar
    24    16    17   ar
    25    17    18   ar
    26    17    19    1
    27    19    20   ar
    28    20    21   ar
    29    21    22   ar
    30    22    23   ar
    31    22    24    1
    32    24    25    1
    33    25    26    1
    34    26     1    1
    35    11     6   ar
    36    35    31    1
    37    18    13   ar
    38    23    19   ar
    39    12    27    1
@<TRIPOS>MOLECULE
*****
 35 39 0 0 0
SMALL
GASTEIGER

@<TRIPOS>ATOM
      1 C           1.1046    1.5367   26.7718 C.2     1  UNL1        0.0036
      2 C           1.4529    1.0736   25.3882 C.2     1  UNL1        0.0036
      3 C           2.1309    0.3190   24.2833 C.3     1  UNL1        0.1686
      4 O           3.0569   -0.6361   23.5903 O.3     1  UNL1       -0.3442
      5 C           4.1191   -1.6766   23.3929 C.3     1  UNL1        0.1721
      6 C           5.1895   -2.6769   23.7147 C.ar    1  UNL1        0.0425
      7 C           6.1389   -3.5164   24.5170 C.ar    1  UNL1        0.0158
      8 C           6.8529   -4.0939   25.7031 C.ar    1  UNL1        0.0504
      9 C           7.3303   -4.6776   24.3585 C.ar    1  UNL1        0.0178
     10 C           6.9379   -4.4319   22.9316 C.ar    1  UNL1        0.0379
     11 C           5.8676   -3.4315   22.6098 C.ar    1  UNL1        0.1370
     12 N           7.2453   -4.3396   27.1300 N.pl3   1  UNL1       -0.2825
     13 C           7.1449   -4.0771   28.9255 C.ar    1  UNL1        0.2208
     14 N           8.0943   -4.9166   29.7278 N.ar    1  UNL1       -0.2120
     15 C           8.1178   -4.8010   31.2231 C.ar    1  UNL1        0.1035
     16 C           7.1918   -3.8458   31.9161 C.ar    1  UNL1        0.0430
     17 C           6.2424   -3.0063   31.1138 C.ar    1  UNL1        0.1201
     18 N           6.2189   -3.1220   29.6185 N.ar    1  UNL1       -0.2104
     19 C           5.3164   -2.0512   31.8068 C.ar    1  UNL1        0.1626
     20 C           5.0041   -1.6210   33.2094 C.ar    1  UNL1        0.0419
     21 C           3.9213   -0.5848   33.1463 C.ar    1  UNL1        0.0387
     22 C           3.1837   -0.0104   31.6824 C.ar    1  UNL1        0.1528
     23 O           4.2542   -1.0107   32.0042 O.2     1  UNL1       -0.4537
     24 C           2.2343    0.8291   30.8800 C.3     1  UNL1        0.2064
     25 O           1.5203    1.4066   29.6939 O.3     1  UNL1       -0.3409
     26 C           1.1280    1.6523   28.2671 C.3     1  UNL1        0.1687
     27 H           7.9484   -5.0239   27.0483 H       1  UNL1        0.1551
     28 O           5.4752   -3.1858   21.1830 O.3     1  UNL1       -0.4742
     29 C           4.4360   -4.0494   20.5315 C.3     1  UNL1        0.2226
     30 C           3.8233   -3.6312   19.2278 C.3     1  UNL1        0.1200
     31 N           3.5334   -2.1829   18.9658 N.3     1  UNL1       -0.2696
     32 C           2.6943   -1.2826   19.8232 C.3     1  UNL1        0.0722
     33 C           2.6741    0.0759   19.1876 C.3     1  UNL1        0.0188
     34 C           3.5008    0.0152   17.9374 C.3     1  UNL1        0.0188
     35 C           4.0318   -1.3809   17.8003 C.3     1  UNL1        0.0722
@<TRIPOS>BOND
     1     1     2    2
     2     2     3    1
     3     3     4    1
     4     4     5    1
     5     5     6    1
     6     6     7   ar
     7     7     8   ar
     8     8     9   ar
     9     9    10   ar
    10    10    11   ar
    11    11    28    1
    12    28    29    1
    13    29    30    1
    14    30    31    1
    15    31    32    1
    16    32    33    1
    17    33    34    1
    18    34    35    1
    19     8    12    1
    20    12    13    1
    21    13    14   ar
    22    14    15   ar
    23    15    16   ar
    24    16    17   ar
    25    17    18   ar
    26    17    19    1
    27    19    20   ar
    28    20    21   ar
    29    21    22   ar
    30    22    23   ar
    31    22    24    1
    32    24    25    1
    33    25    26    1
    34    26     1    1
    35    11     6   ar
    36    35    31    1
    37    18    13   ar
    38    23    19   ar
    39    12    27    1
@<TRIPOS>MOLECULE
*****
 35 39 0 0 0
SMALL
GASTEIGER

@<TRIPOS>ATOM
      1 C           1.5699    1.5476   27.2544 C.2     1  UNL1        0.0036
      2 C           2.5049    0.8283   28.1809 C.2     1  UNL1        0.0036
      3 C           3.5617   -0.1236   28.6575 C.3     1  UNL1        0.1686
      4 O           4.6129   -1.1932   28.6266 O.3     1  UNL1       -0.3442
      5 C           5.5316   -2.2515   28.0920 C.3     1  UNL1        0.1721
      6 C           6.2072   -3.1709   27.1182 C.ar    1  UNL1        0.0425
      7 C           6.5580   -3.8406   25.8227 C.ar    1  UNL1        0.0158
      8 C           6.5418   -4.1796   24.3616 C.ar    1  UNL1        0.0504
      9 C           7.5582   -5.0098   25.1705 C.ar    1  UNL1        0.0178
     10 C           7.9395   -5.0422   26.6210 C.ar    1  UNL1        0.0379
     11 C           7.2640   -4.1228   27.5947 C.ar    1  UNL1        0.1370
     12 N           6.1604   -4.1472   22.9111 N.pl3   1  UNL1       -0.2825
     13 C           5.2198   -3.5457   21.4772 C.ar    1  UNL1        0.2208
     14 N           5.5706   -4.2153   20.1817 N.ar    1  UNL1       -0.2120
     15 C           4.8702   -3.8153   18.9170 C.ar    1  UNL1        0.1035
     16 C           3.8191   -2.7457   18.9479 C.ar    1  UNL1        0.0430
     17 C           3.4682   -2.0761   20.2434 C.ar    1  UNL1        0.1201
     18 N           4.1686   -2.4761   21.5081 N.ar    1  UNL1       -0.2104
     19 C           2.4171   -1.0065   20.2743 C.ar    1  UNL1        0.1626
     20 C           1.5008   -0.3158   19.3081 C.ar    1  UNL1        0.0419
     21 C           0.6913    0.6884   20.0740 C.ar    1  UNL1        0.0387
     22 C           0.8228    0.9713   21.7827 C.ar    1  UNL1        0.1528
     23 O           1.4983    0.0518   20.8088 O.2     1  UNL1       -0.4537
     24 C           0.4720    1.6409   23.0782 C.3     1  UNL1        0.2064
     25 O           0.4882    1.9800   24.5394 O.3     1  UNL1       -0.3409
     26 C           0.8695    1.9476   25.9898 C.3     1  UNL1        0.1687
     27 H           6.7450   -4.8339   22.5163 H       1  UNL1        0.1551
     28 O           7.6453   -4.1552   29.0452 O.3     1  UNL1       -0.4742
     29 C           7.0625   -5.1994   29.9507 C.3     1  UNL1        0.2226
     30 C           7.1294   -5.0235   31.4388 C.3     1  UNL1        0.1200
     31 N           7.0415   -3.6504   32.0364 N.3     1  UNL1       -0.2696
     32 C           5.7795   -2.9289   32.4060 C.3     1  UNL1        0.0722
     33 C           6.1583   -1.5904   32.9673 C.3     1  UNL1        0.0188
     34 C           7.6545   -1.4847   32.9444 C.3     1  UNL1        0.0188
     35 C           8.2003   -2.7580   32.3691 C.3     1  UNL1        0.0722
@<TRIPOS>BOND
     1     1     2    2
     2     2     3    1
     3     3     4    1
     4     4     5    1
     5     5     6    1
     6     6     7   ar
     7     7     8   ar
     8     8     9   ar
     9     9    10   ar
    10    10    11   ar
    11    11    28    1
    12    28    29    1
    13    29    30    1
    14    30    31    1
    15    31    32    1
    16    32    33    1
    17    33    34    1
    18    34    35    1
    19     8    12    1
    20    12    13    1
    21    13    14   ar
    22    14    15   ar
    23    15    16   ar
    24    16    17   ar
    25    17    18   ar
    26    17    19    1
    27    19    20   ar
    28    20    21   ar
    29    21    22   ar
    30    22    23   ar
    31    22    24    1
    32    24    25    1
    33    25    26    1
    34    26     1    1
    35    11     6   ar
    36    35    31    1
    37    18    13   ar
    38    23    19   ar
    39    12    27    1
@<TRIPOS>MOLECULE
*****
 35 39 0 0 0
SMALL
GASTEIGER

@<TRIPOS>ATOM
      1 C          -1.0428    3.1756   21.6859 C.2     1  UNL1        0.0036
      2 C          -0.4683    2.2476   20.6569 C.2     1  UNL1        0.0036
      3 C           0.3614    1.1547   20.0511 C.3     1  UNL1        0.1686
      4 O           1.3463    0.0286   19.9415 O.3     1  UNL1       -0.3442
      5 C           2.3675   -0.9947   20.3413 C.3     1  UNL1        0.1721
      6 C           3.3019   -1.7919   21.2023 C.ar    1  UNL1        0.0425
      7 C           4.0368   -2.2669   22.4206 C.ar    1  UNL1        0.0158
      8 C           4.4835   -2.3622   23.8494 C.ar    1  UNL1        0.0504
      9 C           5.1707   -3.3863   22.9244 C.ar    1  UNL1        0.0178
     10 C           5.0660   -3.6821   21.4574 C.ar    1  UNL1        0.0379
     11 C           4.1316   -2.8848   20.5965 C.ar    1  UNL1        0.1370
     12 N           4.5882   -2.0664   25.3163 N.pl3   1  UNL1       -0.2825
     13 C           4.1688   -1.1716   26.8414 C.ar    1  UNL1        0.2208
     14 N           4.9037   -1.6465   28.0597 N.ar    1  UNL1       -0.2120
     15 C           4.6537   -0.9953   29.3877 C.ar    1  UNL1        0.1035
     16 C           3.6689    0.1307   29.4973 C.ar    1  UNL1        0.0430
     17 C           2.9340    0.6056   28.2790 C.ar    1  UNL1        0.1201
     18 N           3.1840   -0.0455   26.9510 N.ar    1  UNL1       -0.2104
     19 C           1.9491    1.7317   28.3886 C.ar    1  UNL1        0.1626
     20 C           1.4045    2.6366   29.4538 C.ar    1  UNL1        0.0419
     21 C           0.4116    3.5610   28.8136 C.ar    1  UNL1        0.0387
     22 C          -0.0065    3.5523   27.1278 C.ar    1  UNL1        0.1528
     23 O           0.9279    2.7550   27.9888 O.2     1  UNL1       -0.4537
     24 C          -0.7414    4.0272   25.9095 C.3     1  UNL1        0.2064
     25 O          -1.1882    4.1225   24.4806 O.3     1  UNL1       -0.3409
     26 C          -1.2928    3.8268   23.0138 C.3     1  UNL1        0.1687
     27 H           5.2553   -2.7218   25.6241 H       1  UNL1        0.1551
     28 O           4.0269   -3.1806   19.1296 O.3     1  UNL1       -0.4742
     29 C           5.2694   -3.2925   18.2966 C.3     1  UNL1        0.2226
     30 C           6.1445   -2.0919   18.0902 C.3     1  UNL1        0.1200
     31 N           5.6088   -0.7176   18.3629 N.3     1  UNL1       -0.2696
     32 C           6.0003    0.1704   19.5067 C.3     1  UNL1        0.0722
     33 C           5.2209    1.4467   19.3903 C.3     1  UNL1        0.0188
     34 C           4.3478    1.3475   18.1746 C.3     1  UNL1        0.0188
     35 C           4.5875    0.0099   17.5397 C.3     1  UNL1        0.0722
@<TRIPOS>BOND
     1     1     2    2
     2     2     3    1
     3     3     4    1
     4     4     5    1
     5     5     6    1
     6     6     7   ar
     7     7     8   ar
     8     8     9   ar
     9     9    10   ar
    10    10    11   ar
    11    11    28    1
    12    28    29    1
    13    29    30    1
    14    30    31    1
    15    31    32    1
    16    32    33    1
    17    33    34    1
    18    34    35    1
    19     8    12    1
    20    12    13    1
    21    13    14   ar
    22    14    15   ar
    23    15    16   ar
    24    16    17   ar
    25    17    18   ar
    26    17    19    1
    27    19    20   ar
    28    20    21   ar
    29    21    22   ar
    30    22    23   ar
    31    22    24    1
    32    24    25    1
    33    25    26    1
    34    26     1    1
    35    11     6   ar
    36    35    31    1
    37    18    13   ar
    38    23    19   ar
    39    12    27    1
@<TRIPOS>MOLECULE
*****
 35 39 0 0 0
SMALL
GASTEIGER

@<TRIPOS>ATOM
      1 C           7.4485   -4.8559   31.0808 C.2     1  UNL1        0.0036
      2 C           6.6456   -3.9579   31.9746 C.2     1  UNL1        0.0036
      3 C           5.6727   -2.8996   32.4027 C.3     1  UNL1        0.1686
      4 O           4.6470   -1.8087   32.3137 O.3     1  UNL1       -0.3442
      5 C           3.6924   -0.8168   31.7182 C.3     1  UNL1        0.1721
      6 C           2.9238   -0.0434   30.6879 C.ar    1  UNL1        0.0425
      7 C           2.4342    0.4180   29.3473 C.ar    1  UNL1        0.0158
      8 C           2.2824    0.5119   27.8580 C.ar    1  UNL1        0.0504
      9 C           1.3868    1.5032   28.6274 C.ar    1  UNL1        0.0178
     10 C           1.1824    1.7882   30.0859 C.ar    1  UNL1        0.0379
     11 C           1.9509    1.0148   31.1161 C.ar    1  UNL1        0.1370
     12 N           2.4868    0.2269   26.3995 N.pl3   1  UNL1       -0.2825
     13 C           3.2370   -0.6386   24.9884 C.ar    1  UNL1        0.2208
     14 N           2.7473   -0.1772   23.6478 N.ar    1  UNL1       -0.2120
     15 C           3.2833   -0.8066   22.3963 C.ar    1  UNL1        0.1035
     16 C           4.3090   -1.8975   22.4853 C.ar    1  UNL1        0.0430
     17 C           4.7987   -2.3590   23.8259 C.ar    1  UNL1        0.1201
     18 N           4.2627   -1.7295   25.0775 N.ar    1  UNL1       -0.2104
     19 C           5.8243   -3.4499   23.9150 C.ar    1  UNL1        0.1626
     20 C           6.6044   -4.3255   22.9797 C.ar    1  UNL1        0.0419
     21 C           7.4794   -5.2218   23.8052 C.ar    1  UNL1        0.0387
     22 C           7.5475   -5.2151   25.5408 C.ar    1  UNL1        0.1528
     23 O           6.7790   -4.4418   24.5105 O.2     1  UNL1       -0.4537
     24 C           8.0372   -5.6765   26.8814 C.3     1  UNL1        0.2064
     25 O           8.1890   -5.7704   28.3708 O.3     1  UNL1       -0.3409
     26 C           7.9845   -5.4854   29.8292 C.3     1  UNL1        0.1687
     27 H           1.8731    0.8622   25.9647 H       1  UNL1        0.1551
     28 O           1.7465    1.2998   32.5746 O.3     1  UNL1       -0.4742
     29 C           2.4029    2.4922   33.2050 C.3     1  UNL1        0.2226
     30 C           3.8989    2.5728   33.2792 C.3     1  UNL1        0.1200
     31 N           4.6673    1.5480   34.0599 N.3     1  UNL1       -0.2696
     32 C           6.0705    1.0973   33.7812 C.3     1  UNL1        0.0722
     33 C           6.4377    0.0647   34.8054 C.3     1  UNL1        0.0188
     34 C           5.2613   -0.1227   35.7171 C.3     1  UNL1        0.0188
     35 C           4.1671    0.7940   35.2563 C.3     1  UNL1        0.0722
@<TRIPOS>BOND
     1     1     2    2
     2     2     3    1
     3     3     4    1
     4     4     5    1
     5     5     6    1
     6     6     7   ar
     7     7     8   ar
     8     8     9   ar
     9     9    10   ar
    10    10    11   ar
    11    11    28    1
    12    28    29    1
    13    29    30    1
    14    30    31    1
    15    31    32    1
    16    32    33    1
    17    33    34    1
    18    34    35    1
    19     8    12    1
    20    12    13    1
    21    13    14   ar
    22    14    15   ar
    23    15    16   ar
    24    16    17   ar
    25    17    18   ar
    26    17    19    1
    27    19    20   ar
    28    20    21   ar
    29    21    22   ar
    30    22    23   ar
    31    22    24    1
    32    24    25    1
    33    25    26    1
    34    26     1    1
    35    11     6   ar
    36    35    31    1
    37    18    13   ar
    38    23    19   ar
    39    12    27    1
@<TRIPOS>MOLECULE
*****
 35 39 0 0 0
SMALL
GASTEIGER

@<TRIPOS>ATOM
      1 C         -10.1803   -3.9209   17.0931 C.2     1  UNL1        0.0036
      2 C         -10.3981   -2.4530   17.3126 C.2     1  UNL1        0.0036
      3 C         -11.0863   -1.1670   17.6622 C.3     1  UNL1        0.1686
      4 O         -12.1622   -0.2177   18.0998 O.3     1  UNL1       -0.3442
      5 C         -13.4958    0.2802   18.5725 C.3     1  UNL1        0.1721
      6 C         -14.9264    0.2668   19.0234 C.ar    1  UNL1        0.0425
      7 C         -16.2813   -0.2564   19.3980 C.ar    1  UNL1        0.0158
      8 C         -17.3972   -1.2262   19.6513 C.ar    1  UNL1        0.0504
      9 C         -17.7875    0.2399   19.9252 C.ar    1  UNL1        0.0178
     10 C         -17.0452    1.5395   19.8239 C.ar    1  UNL1        0.0379
     11 C         -15.6146    1.5528   19.3730 C.ar    1  UNL1        0.1370
     12 N         -18.1396   -2.5258   19.7525 N.pl3   1  UNL1       -0.2825
     13 C         -18.3094   -4.3304   19.6209 C.ar    1  UNL1        0.2208
     14 N         -19.6643   -4.8536   19.9956 N.ar    1  UNL1       -0.2120
     15 C         -19.9434   -6.3260   19.9326 C.ar    1  UNL1        0.1035
     16 C         -18.8676   -7.2753   19.4951 C.ar    1  UNL1        0.0430
     17 C         -17.5126   -6.7521   19.1204 C.ar    1  UNL1        0.1201
     18 N         -17.2336   -5.2797   19.1834 N.ar    1  UNL1       -0.2104
     19 C         -16.4368   -7.7014   18.6829 C.ar    1  UNL1        0.1626
     20 C         -16.2686   -9.1778   18.4781 C.ar    1  UNL1        0.0419
     21 C         -14.8651   -9.4238   18.0092 C.ar    1  UNL1        0.0387
     22 C         -13.6726   -8.1859   17.7592 C.ar    1  UNL1        0.1528
     23 O         -15.1032   -8.1993   18.2101 O.2     1  UNL1       -0.4537
     24 C         -12.3177   -7.6627   17.3846 C.3     1  UNL1        0.2064
     25 O         -11.2017   -6.6928   17.1314 O.3     1  UNL1       -0.3409
     26 C         -10.4594   -5.3933   17.0301 C.3     1  UNL1        0.1687
     27 H         -19.0305   -2.2447   20.0630 H       1  UNL1        0.1551
     28 O         -14.8723    2.8524   19.2718 O.3     1  UNL1       -0.4742
     29 C         -15.5931    4.1477   19.5016 C.3     1  UNL1        0.2226
     30 C         -15.1138    5.0948   20.5614 C.3     1  UNL1        0.1200
     31 N         -15.3657    4.7906   22.0085 N.3     1  UNL1       -0.2696
     32 C         -14.5060    5.2164   23.1616 C.3     1  UNL1        0.0722
     33 C         -15.1306    4.6961   24.4223 C.3     1  UNL1        0.0188
     34 C         -16.3763    3.9488   24.0483 C.3     1  UNL1        0.0188
     35 C         -16.5216    4.0072   22.5565 C.3     1  UNL1        0.0722
@<TRIPOS>BOND
     1     1     2    2
     2     2     3    1
     3     3     4    1
     4     4     5    1
     5     5     6    1
     6     6     7   ar
     7     7     8   ar
     8     8     9   ar
     9     9    10   ar
    10    10    11   ar
    11    11    28    1
    12    28    29    1
    13    29    30    1
    14    30    31    1
    15    31    32    1
    16    32    33    1
    17    33    34    1
    18    34    35    1
    19     8    12    1
    20    12    13    1
    21    13    14   ar
    22    14    15   ar
    23    15    16   ar
    24    16    17   ar
    25    17    18   ar
    26    17    19    1
    27    19    20   ar
    28    20    21   ar
    29    21    22   ar
    30    22    23   ar
    31    22    24    1
    32    24    25    1
    33    25    26    1
    34    26     1    1
    35    11     6   ar
    36    35    31    1
    37    18    13   ar
    38    23    19   ar
    39    12    27    1
