@<TRIPOS>MOLECULE
*****
 39 43 0 0 0
SMALL
GASTEIGER

@<TRIPOS>ATOM
      1 C          -0.0918    2.7480   20.7679 C.3     1  UNL1        0.1631
      2 N          -0.9507    3.1019   21.9456 N.ar    1  UNL1       -0.3047
      3 C          -2.2498    3.8501   21.8963 C.ar    1  UNL1        0.1441
      4 N          -2.7633    3.9803   23.2996 N.ar    1  UNL1       -0.2267
      5 C          -1.7815    3.3126   24.2162 C.ar    1  UNL1        0.1010
      6 C          -1.7628    3.1289   25.7048 C.ar    1  UNL1        0.0526
      7 C          -0.6239    2.4022   26.3566 C.ar    1  UNL1        0.1690
      8 F          -0.6052    2.2184   27.8453 F       1  UNL1       -0.2017
      9 C           0.4964    1.8593   25.5198 C.ar    1  UNL1        0.1689
     10 F           1.6353    1.1326   26.1716 F       1  UNL1       -0.2017
     11 C           0.4777    2.0430   24.0312 C.ar    1  UNL1        0.0507
     12 C          -0.6612    2.7697   23.3795 C.ar    1  UNL1        0.0816
     13 C          -2.9181    4.3757   20.6605 C.ar    1  UNL1        0.0342
     14 C          -2.7321    5.8090   20.2593 C.ar    1  UNL1        0.0039
     15 C          -3.4004    6.3346   19.0235 C.ar    1  UNL1        0.0115
     16 C          -4.2546    5.4270   18.1891 C.ar    1  UNL1        0.0577
     17 CL         -4.9230    5.9527   16.9533 Cl      1  UNL1       -0.0822
     18 C          -4.4406    3.9937   18.5903 C.ar    1  UNL1        0.0115
     19 C          -3.7724    3.4680   19.8260 C.ar    1  UNL1        0.0039
     20 C           0.1156    3.7430   19.6648 C.3     1  UNL1        0.0297
     21 C           0.8512    5.0217   19.9366 C.3     1  UNL1        0.0024
     22 C           1.0585    6.0167   18.8335 C.3     1  UNL1        0.0001
     23 C           0.5303    5.7331   17.4585 C.3     1  UNL1        0.0000
     24 C          -0.2053    4.4544   17.1867 C.3     1  UNL1        0.0001
     25 C          -0.4127    3.4594   18.2898 C.3     1  UNL1        0.0024
     26 N           2.0551    1.2898   20.6452 N.am    1  UNL1       -0.2817
     27 C           0.5598    1.3989   20.6932 C.2     1  UNL1        0.2468
     28 O          -0.2838    0.1589   20.6665 O.2     1  UNL1       -0.2727
     29 H           2.6089    2.1036   20.6628 H       1  UNL1        0.1549
     30 C           4.0096   -2.7574   20.4214 C.ar    1  UNL1        0.0149
     31 C           3.7154   -2.1394   21.7561 C.ar    1  UNL1        0.0025
     32 C           3.0639   -0.7903   21.8307 C.ar    1  UNL1        0.0156
     33 C           2.7066   -0.0592   20.5706 C.ar    1  UNL1        0.0610
     34 C           3.0008   -0.6773   19.2359 C.ar    1  UNL1        0.0711
     35 CL          2.6435    0.0538   17.9757 Cl      1  UNL1       -0.0810
     36 C           3.6523   -2.0263   19.1613 C.ar    1  UNL1        0.0138
     37 O           3.8458   -5.3145   19.9921 O.co2   1  UNL1       -0.5446
     38 C           4.6611   -4.1065   20.3468 C.2     1  UNL1        0.0729
     39 O           6.1280   -4.2474   20.6269 O.co2   1  UNL1       -0.5446
@<TRIPOS>UNITY_ATOM_ATTR
37 1
charge -1
@<TRIPOS>BOND
     1    37    38   ar
     2    38    39   ar
     3    38    30    1
     4    30    31   ar
     5    31    32   ar
     6    32    33   ar
     7    33    26    1
     8    26    27   am
     9    27    28    2
    10    27     1    1
    11     1    20    1
    12    20    21    1
    13    21    22    1
    14    22    23    1
    15    23    24    1
    16    24    25    1
    17     1     2    1
    18     2     3   ar
    19     3    13    1
    20    13    14   ar
    21    14    15   ar
    22    15    16   ar
    23    16    17    1
    24    16    18   ar
    25    18    19   ar
    26     3     4   ar
    27     4     5   ar
    28     5     6   ar
    29     6     7   ar
    30     7     8    1
    31     7     9   ar
    32     9    10    1
    33     9    11   ar
    34    11    12   ar
    35    33    34   ar
    36    34    35    1
    37    34    36   ar
    38    36    30   ar
    39    25    20    1
    40    12     2   ar
    41    19    13   ar
    42    12     5   ar
    43    26    29    1
@<TRIPOS>MOLECULE
*****
 39 43 0 0 0
SMALL
GASTEIGER

@<TRIPOS>ATOM
      1 C          -0.2911    2.7243   20.4717 C.3     1  UNL1        0.1631
      2 N          -1.2978    3.0852   21.5234 N.ar    1  UNL1       -0.3047
      3 C          -1.0303    3.2100   22.9941 C.ar    1  UNL1        0.1441
      4 N          -2.3160    3.5866   23.6687 N.ar    1  UNL1       -0.2267
      5 C          -3.3781    3.6945   22.6150 C.ar    1  UNL1        0.1010
      6 C          -4.8369    4.0350   22.6915 C.ar    1  UNL1        0.0526
      7 C          -5.6665    4.0656   21.4421 C.ar    1  UNL1        0.1690
      8 F          -7.1254    4.4061   21.5187 F       1  UNL1       -0.2017
      9 C          -5.0372    3.7557   20.1162 C.ar    1  UNL1        0.1689
     10 F          -5.8668    3.7863   18.8669 F       1  UNL1       -0.2017
     11 C          -3.5784    3.4153   20.0397 C.ar    1  UNL1        0.0507
     12 C          -2.7488    3.3847   21.2891 C.ar    1  UNL1        0.0816
     13 C           0.2909    2.9957   23.6712 C.ar    1  UNL1        0.0342
     14 C           0.6055    1.6704   24.2994 C.ar    1  UNL1        0.0039
     15 C           1.9267    1.4562   24.9765 C.ar    1  UNL1        0.0115
     16 C           2.9332    2.5672   25.0254 C.ar    1  UNL1        0.0577
     17 CL          4.2545    2.3529   25.7025 Cl      1  UNL1       -0.0822
     18 C           2.6186    3.8925   24.3972 C.ar    1  UNL1        0.0115
     19 C           1.2975    4.1068   23.7201 C.ar    1  UNL1        0.0039
     20 C          -0.0024    3.6784   19.3509 C.3     1  UNL1        0.0297
     21 C          -0.5465    3.4106   17.9789 C.3     1  UNL1        0.0024
     22 C          -0.2577    4.3647   16.8582 C.3     1  UNL1        0.0001
     23 C           0.5751    5.5867   17.1092 C.3     1  UNL1        0.0000
     24 C           1.1193    5.8546   18.4812 C.3     1  UNL1        0.0001
     25 C           0.8305    4.9004   19.6020 C.3     1  UNL1        0.0024
     26 N           1.9267    1.3728   20.5457 N.am    1  UNL1       -0.2817
     27 C           0.4271    1.4091   20.5408 C.2     1  UNL1        0.2468
     28 O          -0.3543    0.1303   20.6049 O.2     1  UNL1       -0.2727
     29 H           2.4396    2.2121   20.5036 H       1  UNL1        0.1549
     30 C           4.0809   -2.5727   20.7531 C.ar    1  UNL1        0.0149
     31 C           3.6551   -1.8834   22.0155 C.ar    1  UNL1        0.0025
     32 C           2.9370   -0.5681   21.9463 C.ar    1  UNL1        0.0156
     33 C           2.6447    0.0576   20.6148 C.ar    1  UNL1        0.0610
     34 C           3.0704   -0.6317   19.3524 C.ar    1  UNL1        0.0711
     35 CL          2.7781   -0.0059   18.0209 Cl      1  UNL1       -0.0810
     36 C           3.7885   -1.9468   19.4216 C.ar    1  UNL1        0.0138
     37 O           4.6210   -4.8979   19.7276 O.co2   1  UNL1       -0.5446
     38 C           4.7989   -3.8878   20.8222 C.2     1  UNL1        0.0729
     39 O           5.6949   -4.1928   21.9859 O.co2   1  UNL1       -0.5446
@<TRIPOS>UNITY_ATOM_ATTR
37 1
charge -1
@<TRIPOS>BOND
     1    37    38   ar
     2    38    39   ar
     3    38    30    1
     4    30    31   ar
     5    31    32   ar
     6    32    33   ar
     7    33    26    1
     8    26    27   am
     9    27    28    2
    10    27     1    1
    11     1    20    1
    12    20    21    1
    13    21    22    1
    14    22    23    1
    15    23    24    1
    16    24    25    1
    17     1     2    1
    18     2     3   ar
    19     3    13    1
    20    13    14   ar
    21    14    15   ar
    22    15    16   ar
    23    16    17    1
    24    16    18   ar
    25    18    19   ar
    26     3     4   ar
    27     4     5   ar
    28     5     6   ar
    29     6     7   ar
    30     7     8    1
    31     7     9   ar
    32     9    10    1
    33     9    11   ar
    34    11    12   ar
    35    33    34   ar
    36    34    35    1
    37    34    36   ar
    38    36    30   ar
    39    25    20    1
    40    12     2   ar
    41    19    13   ar
    42    12     5   ar
    43    26    29    1
@<TRIPOS>MOLECULE
*****
 39 43 0 0 0
SMALL
GASTEIGER

@<TRIPOS>ATOM
      1 C           3.7079    2.1074   36.7466 C.3     1  UNL1        0.1631
      2 N           5.1443    1.8509   37.0945 N.ar    1  UNL1       -0.3047
      3 C           6.1301    1.0862   36.2618 C.ar    1  UNL1        0.1441
      4 N           7.4421    1.0767   36.9888 N.ar    1  UNL1       -0.2267
      5 C           7.2671    1.8355   38.2708 C.ar    1  UNL1        0.1010
      6 C           8.2174    2.1526   39.3872 C.ar    1  UNL1        0.0526
      7 C           7.7476    2.9482   40.5689 C.ar    1  UNL1        0.1690
      8 F           8.6980    3.2653   41.6853 F       1  UNL1       -0.2017
      9 C           6.3275    3.4267   40.6342 C.ar    1  UNL1        0.1689
     10 F           5.8577    4.2222   41.8159 F       1  UNL1       -0.2017
     11 C           5.3772    3.1096   39.5178 C.ar    1  UNL1        0.0507
     12 C           5.8470    2.3140   38.3362 C.ar    1  UNL1        0.0816
     13 C           5.8527    0.4438   34.9350 C.ar    1  UNL1        0.0342
     14 C           6.4258    1.0348   33.6811 C.ar    1  UNL1        0.0039
     15 C           6.1484    0.3924   32.3543 C.ar    1  UNL1        0.0115
     16 C           5.2978   -0.8409   32.2814 C.ar    1  UNL1        0.0577
     17 CL          5.0203   -1.4832   30.9546 Cl      1  UNL1       -0.0822
     18 C           4.7246   -1.4318   33.5353 C.ar    1  UNL1        0.0115
     19 C           5.0020   -0.7895   34.8621 C.ar    1  UNL1        0.0039
     20 C           2.6386    1.9060   37.7790 C.3     1  UNL1        0.0297
     21 C           1.6910    3.0222   38.1049 C.3     1  UNL1        0.0024
     22 C           0.6216    2.8207   39.1373 C.3     1  UNL1        0.0001
     23 C           0.4999    1.5032   39.8439 C.3     1  UNL1        0.0000
     24 C           1.4476    0.3870   39.5181 C.3     1  UNL1        0.0001
     25 C           2.5169    0.5885   38.4856 C.3     1  UNL1        0.0024
     26 N           2.1450    1.9801   34.6750 N.am    1  UNL1       -0.2817
     27 C           3.3408    2.5653   35.3661 C.2     1  UNL1        0.2468
     28 O           4.1696    3.6084   34.6767 O.2     1  UNL1       -0.2727
     29 H           1.6011    1.2955   35.1274 H       1  UNL1        0.1549
     30 C           1.0440    3.3538   30.5336 C.ar    1  UNL1        0.0149
     31 C           1.6907    2.0151   30.7326 C.ar    1  UNL1        0.0025
     32 C           2.0577    1.5572   32.1131 C.ar    1  UNL1        0.0156
     33 C           1.7780    2.4381   33.2946 C.ar    1  UNL1        0.0610
     34 C           1.1313    3.7768   33.0956 C.ar    1  UNL1        0.0711
     35 CL          0.8517    4.6577   34.2770 Cl      1  UNL1       -0.0810
     36 C           0.7644    4.2347   31.7151 C.ar    1  UNL1        0.0138
     37 O           0.7727    5.2652   28.7949 O.co2   1  UNL1       -0.5446
     38 C           0.6770    3.8118   29.1532 C.2     1  UNL1        0.0729
     39 O           0.2143    2.8162   28.1311 O.co2   1  UNL1       -0.5446
@<TRIPOS>UNITY_ATOM_ATTR
37 1
charge -1
@<TRIPOS>BOND
     1    37    38   ar
     2    38    39   ar
     3    38    30    1
     4    30    31   ar
     5    31    32   ar
     6    32    33   ar
     7    33    26    1
     8    26    27   am
     9    27    28    2
    10    27     1    1
    11     1    20    1
    12    20    21    1
    13    21    22    1
    14    22    23    1
    15    23    24    1
    16    24    25    1
    17     1     2    1
    18     2     3   ar
    19     3    13    1
    20    13    14   ar
    21    14    15   ar
    22    15    16   ar
    23    16    17    1
    24    16    18   ar
    25    18    19   ar
    26     3     4   ar
    27     4     5   ar
    28     5     6   ar
    29     6     7   ar
    30     7     8    1
    31     7     9   ar
    32     9    10    1
    33     9    11   ar
    34    11    12   ar
    35    33    34   ar
    36    34    35    1
    37    34    36   ar
    38    36    30   ar
    39    25    20    1
    40    12     2   ar
    41    19    13   ar
    42    12     5   ar
    43    26    29    1
@<TRIPOS>MOLECULE
*****
 39 43 0 0 0
SMALL
GASTEIGER

@<TRIPOS>ATOM
      1 C          -0.2695    3.4450   21.9800 C.3     1  UNL1        0.1631
      2 N          -1.7258    3.4732   22.3384 N.ar    1  UNL1       -0.3047
      3 C          -2.2927    3.4435   23.7268 C.ar    1  UNL1        0.1441
      4 N          -3.7881    3.4880   23.6178 N.ar    1  UNL1       -0.2267
      5 C          -4.1453    3.5453   22.1621 C.ar    1  UNL1        0.1010
      6 C          -5.4665    3.6046   21.4544 C.ar    1  UNL1        0.0526
      7 C          -5.5131    3.6548   19.9559 C.ar    1  UNL1        0.1690
      8 F          -6.8344    3.7141   19.2482 F       1  UNL1       -0.2017
      9 C          -4.2385    3.6456   19.1652 C.ar    1  UNL1        0.1689
     10 F          -4.2851    3.6958   17.6667 F       1  UNL1       -0.2017
     11 C          -2.9173    3.5863   19.8729 C.ar    1  UNL1        0.0507
     12 C          -2.8707    3.5362   21.3713 C.ar    1  UNL1        0.0816
     13 C          -1.5030    3.3803   25.0005 C.ar    1  UNL1        0.0342
     14 C          -0.7839    2.1184   25.3752 C.ar    1  UNL1        0.0039
     15 C           0.0059    2.0552   26.6489 C.ar    1  UNL1        0.0115
     16 C           0.0765    3.2538   27.5478 C.ar    1  UNL1        0.0577
     17 CL          0.8663    3.1906   28.8215 Cl      1  UNL1       -0.0822
     18 C          -0.6426    4.5157   27.1731 C.ar    1  UNL1        0.0115
     19 C          -1.4323    4.5790   25.8995 C.ar    1  UNL1        0.0039
     20 C           0.5948    4.6388   22.2586 C.3     1  UNL1        0.0297
     21 C           0.6464    5.7727   21.2780 C.3     1  UNL1        0.0024
     22 C           1.5107    6.9666   21.5567 C.3     1  UNL1        0.0001
     23 C           2.3235    7.0266   22.8159 C.3     1  UNL1        0.0000
     24 C           2.2720    5.8927   23.7966 C.3     1  UNL1        0.0001
     25 C           1.4076    4.6988   23.5179 C.3     1  UNL1        0.0024
     26 N           1.8115    2.0863   21.2225 N.am    1  UNL1       -0.2817
     27 C           0.3226    2.2228   21.3429 C.2     1  UNL1        0.2468
     28 O          -0.5743    1.1372   20.8262 O.2     1  UNL1       -0.2727
     29 H           2.4002    2.7988   21.5617 H       1  UNL1        0.1549
     30 C           3.5874   -1.5804   19.3114 C.ar    1  UNL1        0.0149
     31 C           3.1963   -1.6040   20.7593 C.ar    1  UNL1        0.0025
     32 C           2.6043   -0.3817   21.3964 C.ar    1  UNL1        0.0156
     33 C           2.4035    0.8641   20.5855 C.ar    1  UNL1        0.0610
     34 C           2.7946    0.8877   19.1376 C.ar    1  UNL1        0.0711
     35 CL          2.5937    2.1336   18.3266 Cl      1  UNL1       -0.0810
     36 C           3.3865   -0.3345   18.5006 C.ar    1  UNL1        0.0138
     37 O           5.3775   -2.6770   17.7808 O.co2   1  UNL1       -0.5446
     38 C           4.1793   -2.8025   18.6744 C.2     1  UNL1        0.0729
     39 O           3.5730   -4.1503   18.9309 O.co2   1  UNL1       -0.5446
@<TRIPOS>UNITY_ATOM_ATTR
37 1
charge -1
@<TRIPOS>BOND
     1    37    38   ar
     2    38    39   ar
     3    38    30    1
     4    30    31   ar
     5    31    32   ar
     6    32    33   ar
     7    33    26    1
     8    26    27   am
     9    27    28    2
    10    27     1    1
    11     1    20    1
    12    20    21    1
    13    21    22    1
    14    22    23    1
    15    23    24    1
    16    24    25    1
    17     1     2    1
    18     2     3   ar
    19     3    13    1
    20    13    14   ar
    21    14    15   ar
    22    15    16   ar
    23    16    17    1
    24    16    18   ar
    25    18    19   ar
    26     3     4   ar
    27     4     5   ar
    28     5     6   ar
    29     6     7   ar
    30     7     8    1
    31     7     9   ar
    32     9    10    1
    33     9    11   ar
    34    11    12   ar
    35    33    34   ar
    36    34    35    1
    37    34    36   ar
    38    36    30   ar
    39    25    20    1
    40    12     2   ar
    41    19    13   ar
    42    12     5   ar
    43    26    29    1
@<TRIPOS>MOLECULE
*****
 39 43 0 0 0
SMALL
GASTEIGER

@<TRIPOS>ATOM
      1 C           5.7519   -1.6411   28.9184 C.3     1  UNL1        0.1631
      2 N           6.2628   -2.9669   29.3991 N.ar    1  UNL1       -0.3047
      3 C           6.4327   -3.3796   30.8312 C.ar    1  UNL1        0.1441
      4 N           6.9685   -4.7806   30.8494 N.ar    1  UNL1       -0.2267
      5 C           7.1297   -5.2336   29.4286 C.ar    1  UNL1        0.1010
      6 C           7.6173   -6.5221   28.8352 C.ar    1  UNL1        0.0526
      7 C           7.6688   -6.6896   27.3454 C.ar    1  UNL1        0.1690
      8 F           8.1564   -7.9781   26.7520 F       1  UNL1       -0.2017
      9 C           7.2327   -5.5687   26.4491 C.ar    1  UNL1        0.1689
     10 F           7.2842   -5.7363   24.9594 F       1  UNL1       -0.2017
     11 C           6.7451   -4.2803   27.0425 C.ar    1  UNL1        0.0507
     12 C           6.6936   -4.1127   28.5323 C.ar    1  UNL1        0.0816
     13 C           6.1214   -2.5390   32.0339 C.ar    1  UNL1        0.0342
     14 C           4.7226   -2.4902   32.5731 C.ar    1  UNL1        0.0039
     15 C           4.4113   -1.6496   33.7758 C.ar    1  UNL1        0.0115
     16 C           5.4989   -0.8578   34.4392 C.ar    1  UNL1        0.0577
     17 CL          5.1875   -0.0171   35.6419 Cl      1  UNL1       -0.0822
     18 C           6.8977   -0.9066   33.9000 C.ar    1  UNL1        0.0115
     19 C           7.2090   -1.7471   32.6973 C.ar    1  UNL1        0.0039
     20 C           6.0366   -0.3970   29.7065 C.3     1  UNL1        0.0297
     21 C           4.9207    0.3172   30.4098 C.3     1  UNL1        0.0024
     22 C           5.2055    1.5613   31.1978 C.3     1  UNL1        0.0001
     23 C           6.6061    2.0912   31.2827 C.3     1  UNL1        0.0000
     24 C           7.7221    1.3771   30.5794 C.3     1  UNL1        0.0001
     25 C           7.4373    0.1330   29.7913 C.3     1  UNL1        0.0024
     26 N           5.6310   -1.1823   26.3639 N.am    1  UNL1       -0.2817
     27 C           4.9561   -1.5593   27.6494 C.2     1  UNL1        0.2468
     28 O           3.4856   -1.8546   27.6659 O.2     1  UNL1       -0.2727
     29 H           6.5962   -0.9885   26.3530 H       1  UNL1        0.1549
     30 C           3.2437   -0.9373   22.5572 C.ar    1  UNL1        0.0149
     31 C           4.0367   -2.1723   22.8670 C.ar    1  UNL1        0.0025
     32 C           4.8325   -2.2539   24.1360 C.ar    1  UNL1        0.0156
     33 C           4.8353   -1.1006   25.0951 C.ar    1  UNL1        0.0610
     34 C           4.0423    0.1344   24.7852 C.ar    1  UNL1        0.0711
     35 CL          4.0450    1.2877   25.7443 Cl      1  UNL1       -0.0810
     36 C           3.2465    0.2160   23.5163 C.ar    1  UNL1        0.0138
     37 O           1.3093    0.1146   21.1783 O.co2   1  UNL1       -0.5446
     38 C           2.4480   -0.8556   21.2883 C.2     1  UNL1        0.0729
     39 O           2.7910   -1.7441   20.1295 O.co2   1  UNL1       -0.5446
@<TRIPOS>UNITY_ATOM_ATTR
37 1
charge -1
@<TRIPOS>BOND
     1    37    38   ar
     2    38    39   ar
     3    38    30    1
     4    30    31   ar
     5    31    32   ar
     6    32    33   ar
     7    33    26    1
     8    26    27   am
     9    27    28    2
    10    27     1    1
    11     1    20    1
    12    20    21    1
    13    21    22    1
    14    22    23    1
    15    23    24    1
    16    24    25    1
    17     1     2    1
    18     2     3   ar
    19     3    13    1
    20    13    14   ar
    21    14    15   ar
    22    15    16   ar
    23    16    17    1
    24    16    18   ar
    25    18    19   ar
    26     3     4   ar
    27     4     5   ar
    28     5     6   ar
    29     6     7   ar
    30     7     8    1
    31     7     9   ar
    32     9    10    1
    33     9    11   ar
    34    11    12   ar
    35    33    34   ar
    36    34    35    1
    37    34    36   ar
    38    36    30   ar
    39    25    20    1
    40    12     2   ar
    41    19    13   ar
    42    12     5   ar
    43    26    29    1
@<TRIPOS>MOLECULE
*****
 39 43 0 0 0
SMALL
GASTEIGER

@<TRIPOS>ATOM
      1 C           1.7248    2.1649   21.0040 C.3     1  UNL1        0.1631
      2 N           2.3490    0.8282   21.2750 N.ar    1  UNL1       -0.3047
      3 C           2.4757    0.1701   22.6170 C.ar    1  UNL1        0.1441
      4 N           3.1611   -1.1500   22.4231 N.ar    1  UNL1       -0.2267
      5 C           3.4581   -1.3077   20.9613 C.ar    1  UNL1        0.1010
      6 C           4.1207   -2.4066   20.1846 C.ar    1  UNL1        0.0526
      7 C           4.2815   -2.2829   18.6983 C.ar    1  UNL1        0.1690
      8 F           4.9441   -3.3819   17.9216 F       1  UNL1       -0.2017
      9 C           3.7796   -1.0604   17.9888 C.ar    1  UNL1        0.1689
     10 F           3.9403   -0.9368   16.5025 F       1  UNL1       -0.2017
     11 C           3.1169    0.0385   18.7655 C.ar    1  UNL1        0.0507
     12 C           2.9562   -0.0851   20.2517 C.ar    1  UNL1        0.0816
     13 C           2.0003    0.7332   23.9235 C.ar    1  UNL1        0.0342
     14 C           2.9889    1.0612   25.0029 C.ar    1  UNL1        0.0039
     15 C           2.5135    1.6243   26.3094 C.ar    1  UNL1        0.0115
     16 C           1.0496    1.8594   26.5365 C.ar    1  UNL1        0.0577
     17 CL          0.5743    2.4225   27.8430 Cl      1  UNL1       -0.0822
     18 C           0.0610    1.5314   25.4571 C.ar    1  UNL1        0.0115
     19 C           0.5363    0.9683   24.1506 C.ar    1  UNL1        0.0039
     20 C           2.5777    3.3983   20.9716 C.3     1  UNL1        0.0297
     21 C           2.9699    4.0729   22.2527 C.3     1  UNL1        0.0024
     22 C           3.8228    5.3063   22.2202 C.3     1  UNL1        0.0001
     23 C           4.2836    5.8653   20.9068 C.3     1  UNL1        0.0000
     24 C           3.8915    5.1907   19.6256 C.3     1  UNL1        0.0001
     25 C           3.0385    3.9573   19.6581 C.3     1  UNL1        0.0024
     26 N          -0.4157    3.6134   20.7384 N.am    1  UNL1       -0.2817
     27 C           0.2474    2.2682   20.7653 C.2     1  UNL1        0.2468
     28 O          -0.5668    1.0264   20.5536 O.2     1  UNL1       -0.2727
     29 H           0.1187    4.4285   20.8774 H       1  UNL1        0.1549
     30 C          -4.8476    3.9232   20.0222 C.ar    1  UNL1        0.0149
     31 C          -3.8966    3.9529   18.8626 C.ar    1  UNL1        0.0025
     32 C          -2.4192    3.8497   19.1014 C.ar    1  UNL1        0.0156
     33 C          -1.8929    3.7167   20.4998 C.ar    1  UNL1        0.0610
     34 C          -2.8440    3.6869   21.6593 C.ar    1  UNL1        0.0711
     35 CL         -2.3177    3.5540   23.0577 Cl      1  UNL1       -0.0810
     36 C          -4.3212    3.7902   21.4206 C.ar    1  UNL1        0.0138
     37 O          -7.1540    4.9659   20.6081 O.co2   1  UNL1       -0.5446
     38 C          -6.3248    4.0264   19.7836 C.2     1  UNL1        0.0729
     39 O          -6.9729    3.1901   18.7203 O.co2   1  UNL1       -0.5446
@<TRIPOS>UNITY_ATOM_ATTR
37 1
charge -1
@<TRIPOS>BOND
     1    37    38   ar
     2    38    39   ar
     3    38    30    1
     4    30    31   ar
     5    31    32   ar
     6    32    33   ar
     7    33    26    1
     8    26    27   am
     9    27    28    2
    10    27     1    1
    11     1    20    1
    12    20    21    1
    13    21    22    1
    14    22    23    1
    15    23    24    1
    16    24    25    1
    17     1     2    1
    18     2     3   ar
    19     3    13    1
    20    13    14   ar
    21    14    15   ar
    22    15    16   ar
    23    16    17    1
    24    16    18   ar
    25    18    19   ar
    26     3     4   ar
    27     4     5   ar
    28     5     6   ar
    29     6     7   ar
    30     7     8    1
    31     7     9   ar
    32     9    10    1
    33     9    11   ar
    34    11    12   ar
    35    33    34   ar
    36    34    35    1
    37    34    36   ar
    38    36    30   ar
    39    25    20    1
    40    12     2   ar
    41    19    13   ar
    42    12     5   ar
    43    26    29    1
@<TRIPOS>MOLECULE
*****
 39 43 0 0 0
SMALL
GASTEIGER

@<TRIPOS>ATOM
      1 C           4.3078    0.1480   28.4804 C.3     1  UNL1        0.1631
      2 N           3.7214    0.2552   29.8568 N.ar    1  UNL1       -0.3047
      3 C           2.3579    0.7807   30.1958 C.ar    1  UNL1        0.1441
      4 N           2.1893    0.7060   31.6844 N.ar    1  UNL1       -0.2267
      5 C           3.4485    0.1343   32.2654 C.ar    1  UNL1        0.1010
      6 C           3.8552   -0.1686   33.6771 C.ar    1  UNL1        0.0526
      7 C           5.2088   -0.7501   33.9592 C.ar    1  UNL1        0.1690
      8 F           5.6155   -1.0530   35.3710 F       1  UNL1       -0.2017
      9 C           6.1557   -1.0287   32.8298 C.ar    1  UNL1        0.1689
     10 F           7.5093   -1.6102   33.1119 F       1  UNL1       -0.2017
     11 C           5.7490   -0.7258   31.4181 C.ar    1  UNL1        0.0507
     12 C           4.3954   -0.1443   31.1359 C.ar    1  UNL1        0.0816
     13 C           1.3416    1.2913   29.2178 C.ar    1  UNL1        0.0342
     14 C           0.3648    0.3433   28.5877 C.ar    1  UNL1        0.0039
     15 C          -0.6515    0.8539   27.6098 C.ar    1  UNL1        0.0115
     16 C          -0.6910    2.3124   27.2620 C.ar    1  UNL1        0.0577
     17 CL         -1.7074    2.8230   26.2840 Cl      1  UNL1       -0.0822
     18 C           0.2859    3.2604   27.8921 C.ar    1  UNL1        0.0115
     19 C           1.3022    2.7499   28.8700 C.ar    1  UNL1        0.0039
     20 C           4.5601    1.3873   27.6740 C.3     1  UNL1        0.0297
     21 C           3.8456    1.5930   26.3713 C.3     1  UNL1        0.0024
     22 C           4.0979    2.8324   25.5649 C.3     1  UNL1        0.0001
     23 C           5.0649    3.8661   26.0612 C.3     1  UNL1        0.0000
     24 C           5.7795    3.6605   27.3640 C.3     1  UNL1        0.0001
     25 C           5.5271    2.4211   28.1703 C.3     1  UNL1        0.0024
     26 N           6.0594   -1.6891   27.9260 N.am    1  UNL1       -0.2817
     27 C           4.6419   -1.1987   27.9103 C.2     1  UNL1        0.2468
     28 O           3.5586   -2.0549   27.3244 O.2     1  UNL1       -0.2727
     29 H           6.7705   -1.1271   28.3106 H       1  UNL1        0.1549
     30 C           7.0616   -5.7289   26.2155 C.ar    1  UNL1        0.0149
     31 C           6.8213   -4.5654   25.2999 C.ar    1  UNL1        0.0025
     32 C           6.4872   -3.2187   25.8701 C.ar    1  UNL1        0.0156
     33 C           6.3935   -3.0357   27.3560 C.ar    1  UNL1        0.0610
     34 C           6.6337   -4.1992   28.2716 C.ar    1  UNL1        0.0711
     35 CL          6.5400   -4.0162   29.7574 Cl      1  UNL1       -0.0810
     36 C           6.9678   -5.5458   27.7014 C.ar    1  UNL1        0.0138
     37 O           7.1429   -8.3149   26.4516 O.co2   1  UNL1       -0.5446
     38 C           7.3956   -7.0755   25.6454 C.2     1  UNL1        0.0729
     39 O           7.9823   -7.1826   24.2691 O.co2   1  UNL1       -0.5446
@<TRIPOS>UNITY_ATOM_ATTR
37 1
charge -1
@<TRIPOS>BOND
     1    37    38   ar
     2    38    39   ar
     3    38    30    1
     4    30    31   ar
     5    31    32   ar
     6    32    33   ar
     7    33    26    1
     8    26    27   am
     9    27    28    2
    10    27     1    1
    11     1    20    1
    12    20    21    1
    13    21    22    1
    14    22    23    1
    15    23    24    1
    16    24    25    1
    17     1     2    1
    18     2     3   ar
    19     3    13    1
    20    13    14   ar
    21    14    15   ar
    22    15    16   ar
    23    16    17    1
    24    16    18   ar
    25    18    19   ar
    26     3     4   ar
    27     4     5   ar
    28     5     6   ar
    29     6     7   ar
    30     7     8    1
    31     7     9   ar
    32     9    10    1
    33     9    11   ar
    34    11    12   ar
    35    33    34   ar
    36    34    35    1
    37    34    36   ar
    38    36    30   ar
    39    25    20    1
    40    12     2   ar
    41    19    13   ar
    42    12     5   ar
    43    26    29    1
@<TRIPOS>MOLECULE
*****
 39 43 0 0 0
SMALL
GASTEIGER

@<TRIPOS>ATOM
      1 C           1.9691    1.3614   21.6325 C.3     1  UNL1        0.1631
      2 N           1.1927    2.0400   20.5432 N.ar    1  UNL1       -0.3047
      3 C           1.6337    2.2077   19.1193 C.ar    1  UNL1        0.1441
      4 N           0.5525    2.9413   18.3826 N.ar    1  UNL1       -0.2267
      5 C          -0.5567    3.2271   19.3511 C.ar    1  UNL1        0.1010
      6 C          -1.8758    3.9225   19.1897 C.ar    1  UNL1        0.0526
      7 C          -2.7994    4.0609   20.3635 C.ar    1  UNL1        0.1690
      8 F          -4.1186    4.7565   20.2020 F       1  UNL1       -0.2017
      9 C          -2.4037    3.5039   21.6989 C.ar    1  UNL1        0.1689
     10 F          -3.3272    3.6423   22.8728 F       1  UNL1       -0.2017
     11 C          -1.0845    2.8084   21.8603 C.ar    1  UNL1        0.0507
     12 C          -0.1610    2.6700   20.6865 C.ar    1  UNL1        0.0816
     13 C           2.9285    1.7262   18.5348 C.ar    1  UNL1        0.0342
     14 C           2.9967    0.3854   17.8658 C.ar    1  UNL1        0.0039
     15 C           4.2916   -0.0960   17.2813 C.ar    1  UNL1        0.0115
     16 C           5.5181    0.7632   17.3659 C.ar    1  UNL1        0.0577
     17 CL          6.8129    0.2817   16.7813 Cl      1  UNL1       -0.0822
     18 C           5.4498    2.1040   18.0349 C.ar    1  UNL1        0.0115
     19 C           4.1551    2.5855   18.6194 C.ar    1  UNL1        0.0039
     20 C           2.9343    0.2643   21.2940 C.3     1  UNL1        0.0297
     21 C           2.4236   -1.0655   20.8241 C.3     1  UNL1        0.0024
     22 C           3.3889   -2.1626   20.4856 C.3     1  UNL1        0.0001
     23 C           4.8649   -1.9299   20.6168 C.3     1  UNL1        0.0000
     24 C           5.3757   -0.6001   21.0866 C.3     1  UNL1        0.0001
     25 C           4.4104    0.4970   21.4252 C.3     1  UNL1        0.0024
     26 N           1.2673    0.7953   24.0692 N.am    1  UNL1       -0.2817
     27 C           1.7803    1.7800   23.0606 C.2     1  UNL1        0.2468
     28 O           2.1046    3.1832   23.4800 O.2     1  UNL1       -0.2727
     29 H           1.0546   -0.1257   23.7939 H       1  UNL1        0.1549
     30 C           0.7009    2.0512   28.3531 C.ar    1  UNL1        0.0149
     31 C          -0.4309    2.1815   27.3774 C.ar    1  UNL1        0.0025
     32 C          -0.2421    1.7629   25.9494 C.ar    1  UNL1        0.0156
     33 C           1.0786    1.2139   25.4971 C.ar    1  UNL1        0.0610
     34 C           2.2104    1.0835   26.4728 C.ar    1  UNL1        0.0711
     35 CL          3.5310    0.5346   26.0206 Cl      1  UNL1       -0.0810
     36 C           2.0216    1.5022   27.9008 C.ar    1  UNL1        0.0138
     37 O           0.2663    1.4358   30.8396 O.co2   1  UNL1       -0.5446
     38 C           0.5122    2.4698   29.7811 C.2     1  UNL1        0.0729
     39 O           0.5693    3.9225   30.1505 O.co2   1  UNL1       -0.5446
@<TRIPOS>UNITY_ATOM_ATTR
37 1
charge -1
@<TRIPOS>BOND
     1    37    38   ar
     2    38    39   ar
     3    38    30    1
     4    30    31   ar
     5    31    32   ar
     6    32    33   ar
     7    33    26    1
     8    26    27   am
     9    27    28    2
    10    27     1    1
    11     1    20    1
    12    20    21    1
    13    21    22    1
    14    22    23    1
    15    23    24    1
    16    24    25    1
    17     1     2    1
    18     2     3   ar
    19     3    13    1
    20    13    14   ar
    21    14    15   ar
    22    15    16   ar
    23    16    17    1
    24    16    18   ar
    25    18    19   ar
    26     3     4   ar
    27     4     5   ar
    28     5     6   ar
    29     6     7   ar
    30     7     8    1
    31     7     9   ar
    32     9    10    1
    33     9    11   ar
    34    11    12   ar
    35    33    34   ar
    36    34    35    1
    37    34    36   ar
    38    36    30   ar
    39    25    20    1
    40    12     2   ar
    41    19    13   ar
    42    12     5   ar
    43    26    29    1
@<TRIPOS>MOLECULE
*****
 39 43 0 0 0
SMALL
GASTEIGER

@<TRIPOS>ATOM
      1 C           1.5306    3.3355   21.8754 C.3     1  UNL1        0.1631
      2 N           0.0514    3.3593   21.6281 N.ar    1  UNL1       -0.3047
      3 C          -1.0180    3.1350   22.6558 C.ar    1  UNL1        0.1441
      4 N          -2.3486    3.2487   21.9726 N.ar    1  UNL1       -0.2267
      5 C          -2.1014    3.5434   20.5227 C.ar    1  UNL1        0.1010
      6 C          -3.0354    3.7583   19.3688 C.ar    1  UNL1        0.0526
      7 C          -2.4861    4.0415   18.0020 C.ar    1  UNL1        0.1690
      8 F          -3.4202    4.2564   16.8481 F       1  UNL1       -0.2017
      9 C          -1.0029    4.1099   17.7891 C.ar    1  UNL1        0.1689
     10 F          -0.4536    4.3932   16.4223 F       1  UNL1       -0.2017
     11 C          -0.0689    3.8950   18.9430 C.ar    1  UNL1        0.0507
     12 C          -0.6182    3.6118   20.3098 C.ar    1  UNL1        0.0816
     13 C          -0.7959    2.8474   24.1111 C.ar    1  UNL1        0.0342
     14 C          -1.3710    3.7610   25.1524 C.ar    1  UNL1        0.0039
     15 C          -1.1489    3.4734   26.6077 C.ar    1  UNL1        0.0115
     16 C          -0.3517    2.2723   27.0217 C.ar    1  UNL1        0.0577
     17 CL         -0.1295    1.9847   28.4771 Cl      1  UNL1       -0.0822
     18 C           0.2235    1.3586   25.9803 C.ar    1  UNL1        0.0115
     19 C           0.0014    1.6461   24.5251 C.ar    1  UNL1        0.0039
     20 C           2.2187    4.5491   22.4262 C.3     1  UNL1        0.0297
     21 C           2.6833    5.6333   21.4995 C.3     1  UNL1        0.0024
     22 C           3.3713    6.8470   22.0504 C.3     1  UNL1        0.0001
     23 C           3.5949    6.9766   23.5280 C.3     1  UNL1        0.0000
     24 C           3.1303    5.8925   24.4548 C.3     1  UNL1        0.0001
     25 C           2.4422    4.6788   23.9039 C.3     1  UNL1        0.0024
     26 N           1.6460    0.7587   21.5636 N.am    1  UNL1       -0.2817
     27 C           2.3220    2.0978   21.5719 C.2     1  UNL1        0.2468
     28 O           3.7891    2.1992   21.2767 O.2     1  UNL1       -0.2727
     29 H           0.6831    0.6921   21.7573 H       1  UNL1        0.1549
     30 C           4.0200   -2.9541   20.6528 C.ar    1  UNL1        0.0149
     31 C           3.2821   -2.2475   19.5545 C.ar    1  UNL1        0.0025
     32 C           2.4907   -1.0098   19.8582 C.ar    1  UNL1        0.0156
     33 C           2.4374   -0.4789   21.2600 C.ar    1  UNL1        0.0610
     34 C           3.1753   -1.1855   22.3583 C.ar    1  UNL1        0.0711
     35 CL          3.1219   -0.6545   23.7601 Cl      1  UNL1       -0.0810
     36 C           3.9666   -2.4231   22.0546 C.ar    1  UNL1        0.0138
     37 O           4.1439   -5.3688   19.7020 O.co2   1  UNL1       -0.5446
     38 C           4.8113   -4.1917   20.3492 C.2     1  UNL1        0.0729
     39 O           6.2702   -4.2521   20.6929 O.co2   1  UNL1       -0.5446
@<TRIPOS>UNITY_ATOM_ATTR
37 1
charge -1
@<TRIPOS>BOND
     1    37    38   ar
     2    38    39   ar
     3    38    30    1
     4    30    31   ar
     5    31    32   ar
     6    32    33   ar
     7    33    26    1
     8    26    27   am
     9    27    28    2
    10    27     1    1
    11     1    20    1
    12    20    21    1
    13    21    22    1
    14    22    23    1
    15    23    24    1
    16    24    25    1
    17     1     2    1
    18     2     3   ar
    19     3    13    1
    20    13    14   ar
    21    14    15   ar
    22    15    16   ar
    23    16    17    1
    24    16    18   ar
    25    18    19   ar
    26     3     4   ar
    27     4     5   ar
    28     5     6   ar
    29     6     7   ar
    30     7     8    1
    31     7     9   ar
    32     9    10    1
    33     9    11   ar
    34    11    12   ar
    35    33    34   ar
    36    34    35    1
    37    34    36   ar
    38    36    30   ar
    39    25    20    1
    40    12     2   ar
    41    19    13   ar
    42    12     5   ar
    43    26    29    1
