@<TRIPOS>MOLECULE
*****
 30 33 0 0 0
SMALL
GASTEIGER

@<TRIPOS>ATOM
      1 C          -7.3645  -18.1684   22.3867 C.ar    1  UNL1        0.2200
      2 N          -6.0282  -18.3949   21.7441 N.ar    1  UNL1       -0.2135
      3 C          -4.8019  -17.7470   22.3151 C.ar    1  UNL1        0.0891
      4 C          -4.9117  -16.8724   23.5289 C.ar    1  UNL1        0.0357
      5 C          -6.2480  -16.6459   24.1715 C.ar    1  UNL1        0.0831
      6 N          -7.4744  -17.2939   23.6004 N.ar    1  UNL1       -0.2164
      7 C          -3.4656  -17.9736   21.6724 C.ar    1  UNL1        0.0645
      8 C          -3.0943  -19.3392   21.1754 C.ar    1  UNL1        0.1040
      9 N          -1.7580  -19.5658   20.5327 N.ar    1  UNL1       -0.2294
     10 C          -0.7930  -18.4267   20.3871 C.ar    1  UNL1        0.1277
     11 N           0.5433  -18.6532   19.7445 N.pl3   1  UNL1       -0.3426
     12 C          -1.1643  -17.0609   20.8842 C.ar    1  UNL1        0.0635
     13 C          -2.5006  -16.8344   21.5269 C.ar    1  UNL1        0.1458
     14 F          -2.8719  -15.4687   22.0239 F       1  UNL1       -0.2040
     15 H           0.7870  -19.5496   19.4182 H       1  UNL1        0.1437
     16 H           1.1766  -17.9056   19.6489 H       1  UNL1        0.1437
     17 C          -9.4859  -19.2396   24.2177 C.3     1  UNL1        0.0242
     18 C          -9.6516  -19.3520   22.7311 C.3     1  UNL1        0.1052
     19 C         -10.8779  -20.0000   22.1600 C.3     1  UNL1        0.1619
     20 O         -11.0436  -20.1123   20.6734 O.3     1  UNL1       -0.3502
     21 C          -9.9829  -19.5767   19.7579 C.3     1  UNL1        0.1637
     22 C          -8.7566  -18.9288   20.3290 C.3     1  UNL1        0.1256
     23 N          -8.5909  -18.8164   21.8156 N.pl3   1  UNL1       -0.2748
     24 C          -6.3579  -15.7713   25.3852 C.3     1  UNL1        0.1456
     25 C          -5.9603  -15.0126   26.6166 C.3     1  UNL1        0.0297
     26 C          -4.9345  -15.8012   25.8575 C.3     1  UNL1        0.0297
     27 S          -7.8195  -15.4378   25.3344 S.O2    1  UNL1       -0.0065
     28 C          -9.2811  -15.1041   25.2836 C.3     1  UNL1        0.1764
     29 O          -7.5732  -14.5376   24.1600 O.2     1  UNL1       -0.1727
     30 O          -8.0658  -16.3378   26.5088 O.2     1  UNL1       -0.1727
@<TRIPOS>BOND
     1    18    17    1
     2    18    19    1
     3    19    20    1
     4    20    21    1
     5    21    22    1
     6    22    23    1
     7    23     1    1
     8     1     2   ar
     9     2     3   ar
    10     3     7    1
    11     7     8   ar
    12     8     9   ar
    13     9    10   ar
    14    10    11    1
    15    10    12   ar
    16    12    13   ar
    17    13    14    1
    18     3     4   ar
    19     4     5   ar
    20     5    24    1
    21    24    27    1
    22    27    28    1
    23    27    29    2
    24    27    30    2
    25    24    25    1
    26    25    26    1
    27     5     6   ar
    28    23    18    1
    29     6     1   ar
    30    13     7   ar
    31    26    24    1
    32    11    15    1
    33    11    16    1
@<TRIPOS>MOLECULE
*****
 30 33 0 0 0
SMALL
GASTEIGER

@<TRIPOS>ATOM
      1 C          -7.6278  -17.8486   22.9511 C.ar    1  UNL1        0.2200
      2 N          -6.1838  -17.9195   22.5515 N.ar    1  UNL1       -0.2135
      3 C          -5.8015  -18.4941   21.2198 C.ar    1  UNL1        0.0891
      4 C          -6.8633  -18.9979   20.2875 C.ar    1  UNL1        0.0357
      5 C          -8.3073  -18.9269   20.6872 C.ar    1  UNL1        0.0831
      6 N          -8.6896  -18.3522   22.0190 N.ar    1  UNL1       -0.2164
      7 C          -4.3575  -18.5651   20.8201 C.ar    1  UNL1        0.0645
      8 C          -3.9841  -18.6542   19.3701 C.ar    1  UNL1        0.1040
      9 N          -2.5400  -18.7252   18.9705 N.ar    1  UNL1       -0.2294
     10 C          -1.4694  -18.7070   20.0209 C.ar    1  UNL1        0.1277
     11 N          -0.0253  -18.7780   19.6212 N.pl3   1  UNL1       -0.3426
     12 C          -1.8427  -18.6179   21.4710 C.ar    1  UNL1        0.0635
     13 C          -3.2868  -18.5469   21.8706 C.ar    1  UNL1        0.1458
     14 F          -3.6602  -18.4578   23.3206 F       1  UNL1       -0.2040
     15 H           0.2197  -18.8365   18.6695 H       1  UNL1        0.1437
     16 H           0.6774  -18.7660   20.3107 H       1  UNL1        0.1437
     17 C          -6.4772  -15.2239   23.8384 C.3     1  UNL1        0.0242
     18 C          -7.4347  -15.9616   24.7266 C.3     1  UNL1        0.1052
     19 C          -7.8170  -15.3870   26.0584 C.3     1  UNL1        0.1619
     20 O          -8.7746  -16.1247   26.9465 O.3     1  UNL1       -0.3502
     21 C          -9.3499  -17.4370   26.5029 C.3     1  UNL1        0.1637
     22 C          -8.9676  -18.0116   25.1712 C.3     1  UNL1        0.1256
     23 N          -8.0101  -17.2739   24.2830 N.pl3   1  UNL1       -0.2748
     24 C          -9.3691  -19.4306   19.7551 C.3     1  UNL1        0.1456
     25 C         -10.0108  -20.1575   18.6106 C.3     1  UNL1        0.0297
     26 C          -8.5283  -20.2484   18.8200 C.3     1  UNL1        0.0297
     27 S         -10.5787  -18.7878   20.3663 S.O2    1  UNL1       -0.0065
     28 C         -11.7883  -18.1449   20.9776 C.3     1  UNL1        0.1764
     29 O         -10.8977  -20.0675   21.0809 O.2     1  UNL1       -0.1727
     30 O         -10.2597  -17.5080   19.6518 O.2     1  UNL1       -0.1727
@<TRIPOS>BOND
     1    18    17    1
     2    18    19    1
     3    19    20    1
     4    20    21    1
     5    21    22    1
     6    22    23    1
     7    23     1    1
     8     1     2   ar
     9     2     3   ar
    10     3     7    1
    11     7     8   ar
    12     8     9   ar
    13     9    10   ar
    14    10    11    1
    15    10    12   ar
    16    12    13   ar
    17    13    14    1
    18     3     4   ar
    19     4     5   ar
    20     5    24    1
    21    24    27    1
    22    27    28    1
    23    27    29    2
    24    27    30    2
    25    24    25    1
    26    25    26    1
    27     5     6   ar
    28    23    18    1
    29     6     1   ar
    30    13     7   ar
    31    26    24    1
    32    11    15    1
    33    11    16    1
@<TRIPOS>MOLECULE
*****
 30 33 0 0 0
SMALL
GASTEIGER

@<TRIPOS>ATOM
      1 C          -7.6638  -17.8417   22.8953 C.ar    1  UNL1        0.2200
      2 N          -6.2176  -17.9135   22.5039 N.ar    1  UNL1       -0.2135
      3 C          -5.8268  -18.5052   21.1821 C.ar    1  UNL1        0.0891
      4 C          -6.8823  -19.0251   20.2516 C.ar    1  UNL1        0.0357
      5 C          -8.3286  -18.9532   20.6430 C.ar    1  UNL1        0.0831
      6 N          -8.7193  -18.3615   21.9649 N.ar    1  UNL1       -0.2164
      7 C          -4.3805  -18.5770   20.7907 C.ar    1  UNL1        0.0645
      8 C          -3.9982  -18.6476   19.3420 C.ar    1  UNL1        0.1040
      9 N          -2.5520  -18.7194   18.9506 N.ar    1  UNL1       -0.2294
     10 C          -1.4880  -18.7207   20.0080 C.ar    1  UNL1        0.1277
     11 N          -0.0418  -18.7925   19.6166 N.pl3   1  UNL1       -0.3426
     12 C          -1.8703  -18.6501   21.4568 C.ar    1  UNL1        0.0635
     13 C          -3.3166  -18.5783   21.8482 C.ar    1  UNL1        0.1458
     14 F          -3.6989  -18.5077   23.2969 F       1  UNL1       -0.2040
     15 H           0.2091  -18.8388   18.6657 H       1  UNL1        0.1437
     16 H           0.6565  -18.7933   20.3106 H       1  UNL1        0.1437
     17 C          -9.6539  -19.2531   24.6411 C.3     1  UNL1        0.0242
     18 C          -9.0496  -17.9557   25.0900 C.3     1  UNL1        0.1052
     19 C          -9.4403  -17.3640   26.4118 C.3     1  UNL1        0.1619
     20 O          -8.8360  -16.0666   26.8608 O.3     1  UNL1       -0.3502
     21 C          -7.8410  -15.3609   25.9879 C.3     1  UNL1        0.1637
     22 C          -7.4503  -15.9526   24.6662 C.3     1  UNL1        0.1256
     23 N          -8.0546  -17.2500   24.2172 N.pl3   1  UNL1       -0.2748
     24 C          -9.3840  -19.4731   19.7126 C.3     1  UNL1        0.1456
     25 C         -10.0166  -20.2106   18.5699 C.3     1  UNL1        0.0297
     26 C          -8.5327  -20.2806   18.7781 C.3     1  UNL1        0.0297
     27 S         -10.6019  -18.8462   20.3239 S.O2    1  UNL1       -0.0065
     28 C         -11.8198  -18.2191   20.9353 C.3     1  UNL1        0.1764
     29 O         -10.3068  -17.5663   19.5993 O.2     1  UNL1       -0.1727
     30 O         -10.8970  -20.1259   21.0486 O.2     1  UNL1       -0.1727
@<TRIPOS>BOND
     1    18    17    1
     2    18    19    1
     3    19    20    1
     4    20    21    1
     5    21    22    1
     6    22    23    1
     7    23     1    1
     8     1     2   ar
     9     2     3   ar
    10     3     7    1
    11     7     8   ar
    12     8     9   ar
    13     9    10   ar
    14    10    11    1
    15    10    12   ar
    16    12    13   ar
    17    13    14    1
    18     3     4   ar
    19     4     5   ar
    20     5    24    1
    21    24    27    1
    22    27    28    1
    23    27    29    2
    24    27    30    2
    25    24    25    1
    26    25    26    1
    27     5     6   ar
    28    23    18    1
    29     6     1   ar
    30    13     7   ar
    31    26    24    1
    32    11    15    1
    33    11    16    1
@<TRIPOS>MOLECULE
*****
 30 33 0 0 0
SMALL
GASTEIGER

@<TRIPOS>ATOM
      1 C          -9.1804  -16.9143   22.5705 C.ar    1  UNL1        0.2200
      2 N          -8.0092  -17.6514   21.9918 N.ar    1  UNL1       -0.2135
      3 C          -6.7234  -17.7372   22.7593 C.ar    1  UNL1        0.0891
      4 C          -6.6086  -17.0857   24.1056 C.ar    1  UNL1        0.0357
      5 C          -7.7798  -16.3485   24.6843 C.ar    1  UNL1        0.0831
      6 N          -9.0657  -16.2628   23.9167 N.ar    1  UNL1       -0.2164
      7 C          -5.5522  -18.4744   22.1806 C.ar    1  UNL1        0.0645
      8 C          -5.7642  -19.4783   21.0865 C.ar    1  UNL1        0.1040
      9 N          -4.5930  -20.2155   20.5078 N.ar    1  UNL1       -0.2294
     10 C          -3.2098  -19.9487   21.0232 C.ar    1  UNL1        0.1277
     11 N          -2.0386  -20.6859   20.4445 N.pl3   1  UNL1       -0.3426
     12 C          -2.9978  -18.9447   22.1173 C.ar    1  UNL1        0.0635
     13 C          -4.1690  -18.2075   22.6960 C.ar    1  UNL1        0.1458
     14 F          -3.9570  -17.2035   23.7901 F       1  UNL1       -0.2040
     15 H          -2.1778  -21.3449   19.7264 H       1  UNL1        0.1437
     16 H          -1.1308  -20.5108   20.7828 H       1  UNL1        0.1437
     17 C         -11.5251  -18.6023   23.3785 C.3     1  UNL1        0.0242
     18 C         -11.6386  -17.6726   22.2069 C.3     1  UNL1        0.1052
     19 C         -12.9245  -17.5869   21.4393 C.3     1  UNL1        0.1619
     20 O         -13.0380  -16.6571   20.2677 O.3     1  UNL1       -0.3502
     21 C         -11.8657  -15.8131   19.8636 C.3     1  UNL1        0.1637
     22 C         -10.5798  -15.8988   20.6312 C.3     1  UNL1        0.1256
     23 N         -10.4663  -16.8286   21.8029 N.pl3   1  UNL1       -0.2748
     24 C          -7.6651  -15.6970   26.0305 C.3     1  UNL1        0.1456
     25 C          -8.0516  -15.1871   27.3872 C.3     1  UNL1        0.0297
     26 C          -9.0685  -15.8785   26.5281 C.3     1  UNL1        0.0297
     27 S          -6.2219  -15.2893   26.0005 S.O2    1  UNL1       -0.0065
     28 C          -4.7786  -14.8816   25.9706 C.3     1  UNL1        0.1764
     29 O          -5.9621  -16.1191   27.2228 O.2     1  UNL1       -0.1727
     30 O          -6.4817  -14.4595   24.7783 O.2     1  UNL1       -0.1727
@<TRIPOS>BOND
     1    18    17    1
     2    18    19    1
     3    19    20    1
     4    20    21    1
     5    21    22    1
     6    22    23    1
     7    23     1    1
     8     1     2   ar
     9     2     3   ar
    10     3     7    1
    11     7     8   ar
    12     8     9   ar
    13     9    10   ar
    14    10    11    1
    15    10    12   ar
    16    12    13   ar
    17    13    14    1
    18     3     4   ar
    19     4     5   ar
    20     5    24    1
    21    24    27    1
    22    27    28    1
    23    27    29    2
    24    27    30    2
    25    24    25    1
    26    25    26    1
    27     5     6   ar
    28    23    18    1
    29     6     1   ar
    30    13     7   ar
    31    26    24    1
    32    11    15    1
    33    11    16    1
@<TRIPOS>MOLECULE
*****
 30 33 0 0 0
SMALL
GASTEIGER

@<TRIPOS>ATOM
      1 C          -6.4017  -18.4030   21.1396 C.ar    1  UNL1        0.2200
      2 N          -6.2534  -17.6419   22.4236 N.ar    1  UNL1       -0.2135
      3 C          -7.4649  -17.0809   23.1072 C.ar    1  UNL1        0.0891
      4 C          -8.8249  -17.2809   22.5068 C.ar    1  UNL1        0.0357
      5 C          -8.9733  -18.0420   21.2227 C.ar    1  UNL1        0.0831
      6 N          -7.7616  -18.6031   20.5391 N.ar    1  UNL1       -0.2164
      7 C          -7.3166  -16.3198   24.3913 C.ar    1  UNL1        0.0645
      8 C          -6.0807  -15.5081   24.6435 C.ar    1  UNL1        0.1040
      9 N          -5.9324  -14.7470   25.9275 N.ar    1  UNL1       -0.2294
     10 C          -7.0199  -14.7976   26.9593 C.ar    1  UNL1        0.1277
     11 N          -6.8716  -14.0365   28.2434 N.pl3   1  UNL1       -0.3426
     12 C          -8.2559  -15.6094   26.7071 C.ar    1  UNL1        0.0635
     13 C          -8.4042  -16.3705   25.4231 C.ar    1  UNL1        0.1458
     14 F          -9.6401  -17.1822   25.1708 F       1  UNL1       -0.2040
     15 H          -6.0604  -13.5038   28.4089 H       1  UNL1        0.1437
     16 H          -7.5854  -14.0698   28.9206 H       1  UNL1        0.1437
     17 C          -6.1155  -21.3687   20.7891 C.3     1  UNL1        0.0242
     18 C          -5.0470  -20.4468   20.2808 C.3     1  UNL1        0.1052
     19 C          -3.8353  -21.0077   19.5972 C.3     1  UNL1        0.1619
     20 O          -2.7668  -20.0859   19.0889 O.3     1  UNL1       -0.3502
     21 C          -2.9099  -18.6031   19.2641 C.3     1  UNL1        0.1637
     22 C          -4.1215  -18.0421   19.9477 C.3     1  UNL1        0.1256
     23 N          -5.1900  -18.9640   20.4560 N.pl3   1  UNL1       -0.2748
     24 C         -10.3332  -18.2421   20.6223 C.3     1  UNL1        0.1456
     25 C         -11.4315  -18.8239   19.7826 C.3     1  UNL1        0.0297
     26 C         -10.0522  -19.4108   19.7248 C.3     1  UNL1        0.0297
     27 S         -11.0864  -17.1430   21.3111 S.O2    1  UNL1       -0.0065
     28 C         -11.8396  -16.0437   22.0000 C.3     1  UNL1        0.1764
     29 O         -10.4749  -16.1396   20.3787 O.2     1  UNL1       -0.1727
     30 O         -11.6978  -18.1463   22.2436 O.2     1  UNL1       -0.1727
@<TRIPOS>BOND
     1    18    17    1
     2    18    19    1
     3    19    20    1
     4    20    21    1
     5    21    22    1
     6    22    23    1
     7    23     1    1
     8     1     2   ar
     9     2     3   ar
    10     3     7    1
    11     7     8   ar
    12     8     9   ar
    13     9    10   ar
    14    10    11    1
    15    10    12   ar
    16    12    13   ar
    17    13    14    1
    18     3     4   ar
    19     4     5   ar
    20     5    24    1
    21    24    27    1
    22    27    28    1
    23    27    29    2
    24    27    30    2
    25    24    25    1
    26    25    26    1
    27     5     6   ar
    28    23    18    1
    29     6     1   ar
    30    13     7   ar
    31    26    24    1
    32    11    15    1
    33    11    16    1
@<TRIPOS>MOLECULE
*****
 30 33 0 0 0
SMALL
GASTEIGER

@<TRIPOS>ATOM
      1 C          -6.2742  -18.5283   21.7946 C.ar    1  UNL1        0.2200
      2 N          -6.2069  -17.7112   23.0507 N.ar    1  UNL1       -0.2135
      3 C          -7.4263  -16.9887   23.5416 C.ar    1  UNL1        0.0891
      4 C          -8.7130  -17.0831   22.7763 C.ar    1  UNL1        0.0357
      5 C          -8.7802  -17.9001   21.5201 C.ar    1  UNL1        0.0831
      6 N          -7.5608  -18.6227   21.0293 N.ar    1  UNL1       -0.2164
      7 C          -7.3591  -16.1716   24.7977 C.ar    1  UNL1        0.0645
      8 C          -8.5404  -16.1161   25.7204 C.ar    1  UNL1        0.1040
      9 N          -8.4731  -15.2990   26.9766 N.ar    1  UNL1       -0.2294
     10 C          -7.2246  -14.5376   27.3101 C.ar    1  UNL1        0.1277
     11 N          -7.1574  -13.7205   28.5662 N.pl3   1  UNL1       -0.3426
     12 C          -6.0432  -14.5931   26.3874 C.ar    1  UNL1        0.0635
     13 C          -6.1104  -15.4101   25.1312 C.ar    1  UNL1        0.1458
     14 F          -4.9291  -15.4657   24.2085 F       1  UNL1       -0.2040
     15 H          -7.9327  -13.6841   29.1718 H       1  UNL1        0.1437
     16 H          -6.3379  -13.2207   28.7851 H       1  UNL1        0.1437
     17 C          -3.6262  -18.0825   23.1324 C.3     1  UNL1        0.0242
     18 C          -3.7308  -19.0280   21.9726 C.3     1  UNL1        0.1052
     19 C          -2.5115  -19.7505   21.4818 C.3     1  UNL1        0.1619
     20 O          -2.6160  -20.6961   20.3220 O.3     1  UNL1       -0.3502
     21 C          -3.9399  -20.9190   19.6531 C.3     1  UNL1        0.1637
     22 C          -5.1593  -20.1964   20.1439 C.3     1  UNL1        0.1256
     23 N          -5.0547  -19.2509   21.3037 N.pl3   1  UNL1       -0.2748
     24 C         -10.0668  -17.9946   20.7548 C.3     1  UNL1        0.1456
     25 C         -11.0684  -18.4401   19.7310 C.3     1  UNL1        0.0297
     26 C          -9.6929  -19.0384   19.7446 C.3     1  UNL1        0.0297
     27 S         -10.8875  -16.9836   21.4993 S.O2    1  UNL1       -0.0065
     28 C         -11.7083  -15.9725   22.2437 C.3     1  UNL1        0.1764
     29 O         -10.3097  -15.8897   20.6509 O.2     1  UNL1       -0.1727
     30 O         -11.4654  -18.0773   22.3477 O.2     1  UNL1       -0.1727
@<TRIPOS>BOND
     1    18    17    1
     2    18    19    1
     3    19    20    1
     4    20    21    1
     5    21    22    1
     6    22    23    1
     7    23     1    1
     8     1     2   ar
     9     2     3   ar
    10     3     7    1
    11     7     8   ar
    12     8     9   ar
    13     9    10   ar
    14    10    11    1
    15    10    12   ar
    16    12    13   ar
    17    13    14    1
    18     3     4   ar
    19     4     5   ar
    20     5    24    1
    21    24    27    1
    22    27    28    1
    23    27    29    2
    24    27    30    2
    25    24    25    1
    26    25    26    1
    27     5     6   ar
    28    23    18    1
    29     6     1   ar
    30    13     7   ar
    31    26    24    1
    32    11    15    1
    33    11    16    1
@<TRIPOS>MOLECULE
*****
 30 33 0 0 0
SMALL
GASTEIGER

@<TRIPOS>ATOM
      1 C          -7.7336  -17.0084   23.5854 C.ar    1  UNL1        0.2200
      2 N          -9.1855  -17.1296   23.9424 N.ar    1  UNL1       -0.2135
      3 C         -10.0869  -18.0103   23.1290 C.ar    1  UNL1        0.0891
      4 C          -9.5366  -18.7699   21.9585 C.ar    1  UNL1        0.0357
      5 C          -8.0847  -18.6487   21.6014 C.ar    1  UNL1        0.0831
      6 N          -7.1833  -17.7680   22.4148 N.ar    1  UNL1       -0.2164
      7 C         -11.5388  -18.1314   23.4861 C.ar    1  UNL1        0.0645
      8 C         -11.9387  -18.6671   24.8289 C.ar    1  UNL1        0.1040
      9 N         -13.3905  -18.7882   25.1860 N.ar    1  UNL1       -0.2294
     10 C         -14.4424  -18.3737   24.2003 C.ar    1  UNL1        0.1277
     11 N         -15.8943  -18.4949   24.5574 N.pl3   1  UNL1       -0.3426
     12 C         -14.0425  -17.8380   22.8574 C.ar    1  UNL1        0.0635
     13 C         -12.5907  -17.7169   22.5003 C.ar    1  UNL1        0.1458
     14 F         -12.1908  -17.1813   21.1576 F       1  UNL1       -0.2040
     15 H         -16.1567  -18.8464   25.4387 H       1  UNL1        0.1437
     16 H         -16.5847  -18.2228   23.9104 H       1  UNL1        0.1437
     17 C          -8.4040  -16.4114   26.4479 C.3     1  UNL1        0.0242
     18 C          -7.1674  -15.8292   25.8301 C.3     1  UNL1        0.1052
     19 C          -6.2659  -14.9484   26.6435 C.3     1  UNL1        0.1619
     20 O          -5.0293  -14.3662   26.0256 O.3     1  UNL1       -0.3502
     21 C          -4.6941  -14.6647   24.5944 C.3     1  UNL1        0.1637
     22 C          -5.5955  -15.5455   23.7810 C.3     1  UNL1        0.1256
     23 N          -6.8322  -16.1277   24.3988 N.pl3   1  UNL1       -0.2748
     24 C          -7.5344  -19.4083   20.4309 C.3     1  UNL1        0.1456
     25 C          -7.4757  -20.1012   19.1018 C.3     1  UNL1        0.0297
     26 C          -8.7592  -19.4802   19.5678 C.3     1  UNL1        0.0297
     27 S          -6.1185  -19.6002   20.8873 S.O2    1  UNL1       -0.0065
     28 C          -4.7026  -19.7922   21.3439 C.3     1  UNL1        0.1764
     29 O          -6.5816  -20.6032   21.9021 O.2     1  UNL1       -0.1727
     30 O          -5.6553  -18.5973   19.8726 O.2     1  UNL1       -0.1727
@<TRIPOS>BOND
     1    18    17    1
     2    18    19    1
     3    19    20    1
     4    20    21    1
     5    21    22    1
     6    22    23    1
     7    23     1    1
     8     1     2   ar
     9     2     3   ar
    10     3     7    1
    11     7     8   ar
    12     8     9   ar
    13     9    10   ar
    14    10    11    1
    15    10    12   ar
    16    12    13   ar
    17    13    14    1
    18     3     4   ar
    19     4     5   ar
    20     5    24    1
    21    24    27    1
    22    27    28    1
    23    27    29    2
    24    27    30    2
    25    24    25    1
    26    25    26    1
    27     5     6   ar
    28    23    18    1
    29     6     1   ar
    30    13     7   ar
    31    26    24    1
    32    11    15    1
    33    11    16    1
@<TRIPOS>MOLECULE
*****
 30 33 0 0 0
SMALL
GASTEIGER

@<TRIPOS>ATOM
      1 C          -7.1877  -18.3708   21.4462 C.ar    1  UNL1        0.2200
      2 N          -7.3904  -17.5371   22.6766 N.ar    1  UNL1       -0.2135
      3 C          -6.2101  -17.1216   23.5037 C.ar    1  UNL1        0.0891
      4 C          -4.8271  -17.5397   23.1005 C.ar    1  UNL1        0.0357
      5 C          -4.6244  -18.3734   21.8701 C.ar    1  UNL1        0.0831
      6 N          -5.8048  -18.7890   21.0430 N.ar    1  UNL1       -0.2164
      7 C          -6.4127  -16.2878   24.7341 C.ar    1  UNL1        0.0645
      8 C          -5.3087  -15.4018   25.2299 C.ar    1  UNL1        0.1040
      9 N          -5.5113  -14.5681   26.4603 N.ar    1  UNL1       -0.2294
     10 C          -6.8181  -14.6204   27.1949 C.ar    1  UNL1        0.1277
     11 N          -7.0207  -13.7867   28.4253 N.pl3   1  UNL1       -0.3426
     12 C          -7.9222  -15.5065   26.6991 C.ar    1  UNL1        0.0635
     13 C          -7.7196  -16.3402   25.4687 C.ar    1  UNL1        0.1458
     14 F          -8.8237  -17.2262   24.9729 F       1  UNL1       -0.2040
     15 H          -6.2960  -13.2052   28.7507 H       1  UNL1        0.1437
     16 H          -7.8784  -13.8211   28.9074 H       1  UNL1        0.1437
     17 C          -9.9005  -17.2267   22.0222 C.3     1  UNL1        0.0242
     18 C          -9.7244  -18.2144   20.9070 C.3     1  UNL1        0.1052
     19 C         -10.9047  -18.6299   20.0799 C.3     1  UNL1        0.1619
     20 O         -10.7286  -19.6176   18.9648 O.3     1  UNL1       -0.3502
     21 C          -9.3722  -20.1897   18.6768 C.3     1  UNL1        0.1637
     22 C          -8.1920  -19.7741   19.5039 C.3     1  UNL1        0.1256
     23 N          -8.3681  -18.7864   20.6190 N.pl3   1  UNL1       -0.2748
     24 C          -3.2415  -18.7915   21.4669 C.3     1  UNL1        0.1456
     25 C          -2.1071  -19.6654   21.0203 C.3     1  UNL1        0.0297
     26 C          -3.4769  -20.2491   21.2020 C.3     1  UNL1        0.0297
     27 S          -2.5258  -17.4793   21.5917 S.O2    1  UNL1       -0.0065
     28 C          -1.8101  -16.1669   21.7164 C.3     1  UNL1        0.1764
     29 O          -2.9790  -17.1009   20.2127 O.2     1  UNL1       -0.1727
     30 O          -2.0726  -17.8574   22.9706 O.2     1  UNL1       -0.1727
@<TRIPOS>BOND
     1    18    17    1
     2    18    19    1
     3    19    20    1
     4    20    21    1
     5    21    22    1
     6    22    23    1
     7    23     1    1
     8     1     2   ar
     9     2     3   ar
    10     3     7    1
    11     7     8   ar
    12     8     9   ar
    13     9    10   ar
    14    10    11    1
    15    10    12   ar
    16    12    13   ar
    17    13    14    1
    18     3     4   ar
    19     4     5   ar
    20     5    24    1
    21    24    27    1
    22    27    28    1
    23    27    29    2
    24    27    30    2
    25    24    25    1
    26    25    26    1
    27     5     6   ar
    28    23    18    1
    29     6     1   ar
    30    13     7   ar
    31    26    24    1
    32    11    15    1
    33    11    16    1
@<TRIPOS>MOLECULE
*****
 30 33 0 0 0
SMALL
GASTEIGER

@<TRIPOS>ATOM
      1 C          -6.6165  -18.3708   21.8312 C.ar    1  UNL1        0.2200
      2 N          -6.3964  -17.5814   23.0875 N.ar    1  UNL1       -0.2135
      3 C          -7.4989  -16.7273   23.6395 C.ar    1  UNL1        0.0891
      4 C          -8.8218  -16.6625   22.9351 C.ar    1  UNL1        0.0357
      5 C          -9.0419  -17.4520   21.6788 C.ar    1  UNL1        0.0831
      6 N          -7.9393  -18.3062   21.1269 N.ar    1  UNL1       -0.2164
      7 C          -7.2788  -15.9378   24.8958 C.ar    1  UNL1        0.0645
      8 C          -6.0763  -15.0503   25.0228 C.ar    1  UNL1        0.1040
      9 N          -5.8561  -14.2608   26.2791 N.ar    1  UNL1       -0.2294
     10 C          -6.8385  -14.3589   27.4084 C.ar    1  UNL1        0.1277
     11 N          -6.6183  -13.5695   28.6647 N.pl3   1  UNL1       -0.3426
     12 C          -8.0411  -15.2465   27.2814 C.ar    1  UNL1        0.0635
     13 C          -8.2612  -16.0359   26.0251 C.ar    1  UNL1        0.1458
     14 F          -9.4637  -16.9235   25.8981 F       1  UNL1       -0.2040
     15 H          -5.8290  -12.9869   28.7480 H       1  UNL1        0.1437
     16 H          -7.2631  -13.6338   29.4059 H       1  UNL1        0.1437
     17 C          -3.7814  -17.9021   22.6928 C.3     1  UNL1        0.0242
     18 C          -4.0963  -18.9906   21.7100 C.3     1  UNL1        0.1052
     19 C          -2.9938  -19.8448   21.1581 C.3     1  UNL1        0.1619
     20 O          -3.3087  -20.9333   20.1753 O.3     1  UNL1       -0.3502
     21 C          -4.7262  -21.1677   19.7445 C.3     1  UNL1        0.1637
     22 C          -5.8288  -20.3136   20.2964 C.3     1  UNL1        0.1256
     23 N          -5.5139  -19.2250   21.2792 N.pl3   1  UNL1       -0.2748
     24 C         -10.3647  -17.3873   20.9745 C.3     1  UNL1        0.1456
     25 C         -11.5667  -16.8160   20.2825 C.3     1  UNL1        0.0297
     26 C         -10.4763  -15.9061   20.7655 C.3     1  UNL1        0.0297
     27 S         -10.7124  -18.8459   20.9389 S.O2    1  UNL1       -0.0065
     28 C         -11.0603  -20.3047   20.9033 C.3     1  UNL1        0.1764
     29 O         -10.9940  -18.8148   22.4119 O.2     1  UNL1       -0.1727
     30 O         -10.4309  -18.8772   19.4659 O.2     1  UNL1       -0.1727
@<TRIPOS>BOND
     1    18    17    1
     2    18    19    1
     3    19    20    1
     4    20    21    1
     5    21    22    1
     6    22    23    1
     7    23     1    1
     8     1     2   ar
     9     2     3   ar
    10     3     7    1
    11     7     8   ar
    12     8     9   ar
    13     9    10   ar
    14    10    11    1
    15    10    12   ar
    16    12    13   ar
    17    13    14    1
    18     3     4   ar
    19     4     5   ar
    20     5    24    1
    21    24    27    1
    22    27    28    1
    23    27    29    2
    24    27    30    2
    25    24    25    1
    26    25    26    1
    27     5     6   ar
    28    23    18    1
    29     6     1   ar
    30    13     7   ar
    31    26    24    1
    32    11    15    1
    33    11    16    1
