@<TRIPOS>MOLECULE
*****
 17 18 0 0 0
SMALL
GASTEIGER

@<TRIPOS>ATOM
      1 C          -7.3863  -19.1094   21.1494 C.2     1  UNL1        0.1898
      2 N          -6.5874  -18.7870   19.9215 N.2     1  UNL1       -0.2199
      3 C          -5.1333  -18.9071   20.2697 C.2     1  UNL1        0.1003
      4 C          -3.8873  -18.7065   19.4591 C.2     1  UNL1        0.0569
      5 C          -2.5414  -18.9026   20.0917 C.2     1  UNL1        0.1364
      6 C          -2.4416  -19.2992   21.5349 C.2     1  UNL1        0.0172
      7 C          -3.6877  -19.4998   22.3455 C.3     1  UNL1        0.0765
      8 C          -5.0335  -19.3037   21.7129 C.2     1  UNL1        0.0833
      9 N          -6.4259  -19.4287   22.2566 N.2     1  UNL1       -0.2238
     10 O          -1.2953  -18.7020   19.2811 O.2     1  UNL1       -0.4717
     11 C          -0.1699  -17.8747   19.8280 C.3     1  UNL1        0.2525
     12 S          -8.8828  -19.1120   21.2522 S.3     1  UNL1       -0.0757
     13 C          -9.5459  -19.5246   22.5328 C.3     1  UNL1        0.0652
     14 C         -11.0399  -19.6395   22.6006 C.3     1  UNL1        0.0121
     15 C         -11.8307  -18.6644   23.4216 C.3     1  UNL1        0.0009
     16 C         -12.5849  -17.3204   21.3301 C.3     1  UNL1        0.0000
     17 C         -12.8029  -17.7373   22.7544 C.3     1  UNL1        0.0000
@<TRIPOS>BOND
     1    16    17    1
     2    17    15    1
     3    15    14    1
     4    14    13    1
     5    13    12    1
     6    12     1    1
     7     1     2    2
     8     2     3    1
     9     3     4    2
    10     4     5    1
    11     5    10    1
    12    10    11    1
    13     5     6    2
    14     6     7    1
    15     7     8    1
    16     8     9    2
    17     9     1    1
    18     8     3    1
@<TRIPOS>MOLECULE
*****
 17 18 0 0 0
SMALL
GASTEIGER

@<TRIPOS>ATOM
      1 C         -10.0811  -17.7918   20.6432 C.2     1  UNL1        0.1898
      2 N          -9.1200  -17.3440   21.7042 N.2     1  UNL1       -0.2199
      3 C          -7.8974  -18.2086   21.6170 C.2     1  UNL1        0.1003
      4 C          -6.6236  -18.2285   22.4087 C.2     1  UNL1        0.0569
      5 C          -5.5552  -19.2305   22.0855 C.2     1  UNL1        0.1364
      6 C          -5.7607  -20.2126   20.9705 C.2     1  UNL1        0.0172
      7 C          -7.0345  -20.1928   20.1788 C.3     1  UNL1        0.0765
      8 C          -8.1029  -19.1908   20.5020 C.2     1  UNL1        0.0833
      9 N          -9.4525  -18.9331   19.9002 N.2     1  UNL1       -0.2238
     10 O          -4.2813  -19.2504   22.8773 O.2     1  UNL1       -0.4717
     11 C          -3.6539  -17.9622   23.3211 C.3     1  UNL1        0.2525
     12 S         -11.4334  -17.2018   20.3727 S.3     1  UNL1       -0.0757
     13 C         -12.6046  -17.5878   21.2266 C.3     1  UNL1        0.0652
     14 C         -12.6350  -17.2031   22.6762 C.3     1  UNL1        0.0121
     15 C         -12.5725  -18.2637   23.7351 C.3     1  UNL1        0.0009
     16 C         -10.6830  -20.0308   23.4965 C.3     1  UNL1        0.0000
     17 C         -11.2459  -18.8136   24.1684 C.3     1  UNL1        0.0000
@<TRIPOS>BOND
     1    16    17    1
     2    17    15    1
     3    15    14    1
     4    14    13    1
     5    13    12    1
     6    12     1    1
     7     1     2    2
     8     2     3    1
     9     3     4    2
    10     4     5    1
    11     5    10    1
    12    10    11    1
    13     5     6    2
    14     6     7    1
    15     7     8    1
    16     8     9    2
    17     9     1    1
    18     8     3    1
@<TRIPOS>MOLECULE
*****
 17 18 0 0 0
SMALL
GASTEIGER

@<TRIPOS>ATOM
      1 C          -7.5041  -15.8266   23.1001 C.2     1  UNL1        0.1898
      2 N          -8.4697  -16.5953   23.9525 N.2     1  UNL1       -0.2199
      3 C          -9.7526  -16.7360   23.1881 C.2     1  UNL1        0.1003
      4 C         -11.0557  -17.3969   23.5272 C.2     1  UNL1        0.0569
      5 C         -12.1861  -17.3760   22.5415 C.2     1  UNL1        0.1364
      6 C         -12.0134  -16.6942   21.2166 C.2     1  UNL1        0.0172
      7 C         -10.7102  -16.0333   20.8774 C.3     1  UNL1        0.0765
      8 C          -9.5799  -16.0542   21.8632 C.2     1  UNL1        0.0833
      9 N          -8.1902  -15.4922   21.8089 N.2     1  UNL1       -0.2238
     10 O         -13.4893  -18.0369   22.8806 O.2     1  UNL1       -0.4717
     11 C         -13.9459  -18.1066   24.3077 C.3     1  UNL1        0.2525
     12 S          -6.0990  -15.4571   23.4734 S.3     1  UNL1       -0.0757
     13 C          -5.5314  -15.9003   24.7892 C.3     1  UNL1        0.0652
     14 C          -5.6890  -15.0344   26.0039 C.3     1  UNL1        0.0121
     15 C          -6.4203  -15.5545   27.2059 C.3     1  UNL1        0.0009
     16 C          -8.6846  -16.8163   27.3816 C.3     1  UNL1        0.0000
     17 C          -7.9198  -15.5339   27.2384 C.3     1  UNL1        0.0000
@<TRIPOS>BOND
     1    16    17    1
     2    17    15    1
     3    15    14    1
     4    14    13    1
     5    13    12    1
     6    12     1    1
     7     1     2    2
     8     2     3    1
     9     3     4    2
    10     4     5    1
    11     5    10    1
    12    10    11    1
    13     5     6    2
    14     6     7    1
    15     7     8    1
    16     8     9    2
    17     9     1    1
    18     8     3    1
@<TRIPOS>MOLECULE
*****
 17 18 0 0 0
SMALL
GASTEIGER

@<TRIPOS>ATOM
      1 C          -7.6606  -18.5883   22.3381 C.2     1  UNL1        0.1898
      2 N          -6.3166  -17.9915   22.6336 N.2     1  UNL1       -0.2199
      3 C          -5.2878  -18.7585   21.8568 C.2     1  UNL1        0.1003
      4 C          -3.7977  -18.6202   21.7555 C.2     1  UNL1        0.0569
      5 C          -3.0159  -19.5528   20.8786 C.2     1  UNL1        0.1364
      6 C          -3.7242  -20.6236   20.1030 C.2     1  UNL1        0.0172
      7 C          -5.2143  -20.7620   20.2043 C.3     1  UNL1        0.0765
      8 C          -5.9961  -19.8294   21.0812 C.2     1  UNL1        0.0833
      9 N          -7.4626  -19.7242   21.3787 N.2     1  UNL1       -0.2238
     10 O          -1.5256  -19.4145   20.7773 O.2     1  UNL1       -0.4717
     11 C          -0.9290  -18.3281   19.9324 C.3     1  UNL1        0.2525
     12 S          -8.9724  -18.1297   22.9029 S.3     1  UNL1       -0.0757
     13 C          -9.5524  -16.8131   22.4786 C.3     1  UNL1        0.0652
     14 C         -10.8103  -16.3063   23.1196 C.3     1  UNL1        0.0121
     15 C         -12.1322  -16.5070   22.4394 C.3     1  UNL1        0.0009
     16 C         -13.7174  -17.9418   23.9153 C.3     1  UNL1        0.0000
     17 C         -12.9071  -17.7715   22.6646 C.3     1  UNL1        0.0000
@<TRIPOS>BOND
     1    16    17    1
     2    17    15    1
     3    15    14    1
     4    14    13    1
     5    13    12    1
     6    12     1    1
     7     1     2    2
     8     2     3    1
     9     3     4    2
    10     4     5    1
    11     5    10    1
    12    10    11    1
    13     5     6    2
    14     6     7    1
    15     7     8    1
    16     8     9    2
    17     9     1    1
    18     8     3    1
@<TRIPOS>MOLECULE
*****
 17 18 0 0 0
SMALL
GASTEIGER

@<TRIPOS>ATOM
      1 C          -7.6004  -18.1696   22.4029 C.2     1  UNL1        0.1898
      2 N          -6.2035  -17.6885   22.6622 N.2     1  UNL1       -0.2199
      3 C          -5.2605  -18.5682   21.8962 C.2     1  UNL1        0.1003
      4 C          -3.7658  -18.5685   21.7713 C.2     1  UNL1        0.0569
      5 C          -3.0850  -19.5936   20.9136 C.2     1  UNL1        0.1364
      6 C          -3.8991  -20.6184   20.1807 C.2     1  UNL1        0.0172
      7 C          -5.3939  -20.6181   20.3056 C.3     1  UNL1        0.0765
      8 C          -6.0746  -19.5930   21.1633 C.2     1  UNL1        0.0833
      9 N          -7.5207  -19.3466   21.4765 N.2     1  UNL1       -0.2238
     10 O          -1.5902  -19.5939   20.7886 O.2     1  UNL1       -0.4717
     11 C          -0.8959  -18.4638   20.0879 C.3     1  UNL1        0.2525
     12 S          -8.8565  -17.5776   22.9702 S.3     1  UNL1       -0.0757
     13 C          -9.6147  -16.5420   22.1939 C.3     1  UNL1        0.0652
     14 C         -11.0122  -16.8269   21.7297 C.3     1  UNL1        0.0121
     15 C         -11.2583  -17.2658   20.3165 C.3     1  UNL1        0.0009
     16 C         -10.9782  -19.8174   20.7177 C.3     1  UNL1        0.0000
     17 C         -10.7755  -18.6084   19.8534 C.3     1  UNL1        0.0000
@<TRIPOS>BOND
     1    16    17    1
     2    17    15    1
     3    15    14    1
     4    14    13    1
     5    13    12    1
     6    12     1    1
     7     1     2    2
     8     2     3    1
     9     3     4    2
    10     4     5    1
    11     5    10    1
    12    10    11    1
    13     5     6    2
    14     6     7    1
    15     7     8    1
    16     8     9    2
    17     9     1    1
    18     8     3    1
@<TRIPOS>MOLECULE
*****
 17 18 0 0 0
SMALL
GASTEIGER

@<TRIPOS>ATOM
      1 C          -7.2508  -17.8290   22.6962 C.2     1  UNL1        0.1898
      2 N          -5.8218  -17.4221   22.9019 N.2     1  UNL1       -0.2199
      3 C          -4.9591  -18.3197   22.0652 C.2     1  UNL1        0.1003
      4 C          -3.4736  -18.3855   21.8682 C.2     1  UNL1        0.0569
      5 C          -2.8839  -19.4131   20.9483 C.2     1  UNL1        0.1364
      6 C          -3.7797  -20.3749   20.2255 C.2     1  UNL1        0.0172
      7 C          -5.2652  -20.3090   20.4225 C.3     1  UNL1        0.0765
      8 C          -5.8549  -19.2814   21.3424 C.2     1  UNL1        0.0833
      9 N          -7.2712  -18.9782   21.7323 N.2     1  UNL1       -0.2238
     10 O          -1.3983  -19.4790   20.7513 O.2     1  UNL1       -0.4717
     11 C          -0.6976  -18.4094   19.9671 C.3     1  UNL1        0.2525
     12 S          -8.4489  -17.1977   23.3410 S.3     1  UNL1       -0.0757
     13 C          -8.3661  -15.7952   23.8664 C.3     1  UNL1        0.0652
     14 C          -8.8437  -15.4846   25.2540 C.3     1  UNL1        0.0121
     15 C          -8.1857  -16.1325   26.4362 C.3     1  UNL1        0.0009
     16 C          -5.7026  -15.3961   26.2317 C.3     1  UNL1        0.0000
     17 C          -6.9590  -15.5177   27.0420 C.3     1  UNL1        0.0000
@<TRIPOS>BOND
     1    16    17    1
     2    17    15    1
     3    15    14    1
     4    14    13    1
     5    13    12    1
     6    12     1    1
     7     1     2    2
     8     2     3    1
     9     3     4    2
    10     4     5    1
    11     5    10    1
    12    10    11    1
    13     5     6    2
    14     6     7    1
    15     7     8    1
    16     8     9    2
    17     9     1    1
    18     8     3    1
@<TRIPOS>MOLECULE
*****
 17 18 0 0 0
SMALL
GASTEIGER

@<TRIPOS>ATOM
      1 C          -9.0194  -18.2139   21.5558 C.2     1  UNL1        0.1898
      2 N          -9.5779  -18.1997   22.9479 N.2     1  UNL1       -0.2199
      3 C          -8.8114  -17.1858   23.7446 C.2     1  UNL1        0.1003
      4 C          -8.9200  -16.7412   25.1730 C.2     1  UNL1        0.0569
      5 C          -7.9964  -15.6841   25.7017 C.2     1  UNL1        0.1364
      6 C          -6.9642  -15.0718   24.8019 C.2     1  UNL1        0.0172
      7 C          -6.8556  -15.5164   23.3735 C.3     1  UNL1        0.0765
      8 C          -7.7792  -16.5735   22.8448 C.2     1  UNL1        0.0833
      9 N          -7.9078  -17.2088   21.4921 N.2     1  UNL1       -0.2238
     10 O          -8.1050  -15.2394   27.1302 O.2     1  UNL1       -0.4717
     11 C          -6.8710  -14.8576   27.8926 C.3     1  UNL1        0.2525
     12 S          -9.4900  -19.0809   20.4259 S.3     1  UNL1       -0.0757
     13 C         -10.7473  -18.7319   19.6860 C.3     1  UNL1        0.0652
     14 C         -11.2676  -17.3253   19.7132 C.3     1  UNL1        0.0121
     15 C         -12.1679  -16.8800   20.8274 C.3     1  UNL1        0.0009
     16 C         -13.0792  -17.6981   23.1187 C.3     1  UNL1        0.0000
     17 C         -12.9128  -17.8963   21.6412 C.3     1  UNL1        0.0000
@<TRIPOS>BOND
     1    16    17    1
     2    17    15    1
     3    15    14    1
     4    14    13    1
     5    13    12    1
     6    12     1    1
     7     1     2    2
     8     2     3    1
     9     3     4    2
    10     4     5    1
    11     5    10    1
    12    10    11    1
    13     5     6    2
    14     6     7    1
    15     7     8    1
    16     8     9    2
    17     9     1    1
    18     8     3    1
@<TRIPOS>MOLECULE
*****
 17 18 0 0 0
SMALL
GASTEIGER

@<TRIPOS>ATOM
      1 C          -8.7348  -16.9465   23.1027 C.2     1  UNL1        0.1898
      2 N          -8.1694  -18.1538   22.4152 N.2     1  UNL1       -0.2199
      3 C          -6.6790  -18.1273   22.5829 C.2     1  UNL1        0.1003
      4 C          -5.5999  -19.0593   22.1174 C.2     1  UNL1        0.0569
      5 C          -4.1651  -18.7676   22.4430 C.2     1  UNL1        0.1364
      6 C          -3.8094  -17.5439   23.2342 C.2     1  UNL1        0.0172
      7 C          -4.8885  -16.6119   23.6997 C.3     1  UNL1        0.0765
      8 C          -6.3233  -16.9035   23.3741 C.2     1  UNL1        0.0833
      9 N          -7.5939  -16.1738   23.6953 N.2     1  UNL1       -0.2238
     10 O          -3.0858  -19.6997   21.9775 O.2     1  UNL1       -0.4717
     11 C          -2.1257  -19.2624   20.9112 C.3     1  UNL1        0.2525
     12 S         -10.1863  -16.5768   23.1835 S.3     1  UNL1       -0.0757
     13 C         -11.2212  -17.6423   23.3921 C.3     1  UNL1        0.0652
     14 C         -11.9937  -18.1768   22.2227 C.3     1  UNL1        0.0121
     15 C         -11.9400  -17.4685   20.9015 C.3     1  UNL1        0.0009
     16 C         -10.5048  -19.3856   19.8942 C.3     1  UNL1        0.0000
     17 C         -11.0706  -17.9996   19.8006 C.3     1  UNL1        0.0000
@<TRIPOS>BOND
     1    16    17    1
     2    17    15    1
     3    15    14    1
     4    14    13    1
     5    13    12    1
     6    12     1    1
     7     1     2    2
     8     2     3    1
     9     3     4    2
    10     4     5    1
    11     5    10    1
    12    10    11    1
    13     5     6    2
    14     6     7    1
    15     7     8    1
    16     8     9    2
    17     9     1    1
    18     8     3    1
@<TRIPOS>MOLECULE
*****
 17 18 0 0 0
SMALL
GASTEIGER

@<TRIPOS>ATOM
      1 C          -6.9411  -15.9942   23.7437 C.2     1  UNL1        0.1898
      2 N          -7.5287  -15.5518   22.4364 N.2     1  UNL1       -0.2199
      3 C          -8.9309  -16.0786   22.3565 C.2     1  UNL1        0.1003
      4 C          -9.9897  -15.9582   21.3009 C.2     1  UNL1        0.0569
      5 C         -11.3275  -16.6058   21.5031 C.2     1  UNL1        0.1364
      6 C         -11.6064  -17.3738   22.7610 C.2     1  UNL1        0.0172
      7 C         -10.5477  -17.4942   23.8167 C.3     1  UNL1        0.0765
      8 C          -9.2099  -16.8466   23.6144 C.2     1  UNL1        0.0833
      9 N          -7.9801  -16.7944   24.4717 N.2     1  UNL1       -0.2238
     10 O         -12.3863  -16.4854   20.4474 O.2     1  UNL1       -0.4717
     11 C         -12.1145  -15.7000   19.1987 C.3     1  UNL1        0.2525
     12 S          -5.5574  -15.6898   24.2364 S.3     1  UNL1       -0.0757
     13 C          -4.3648  -16.2265   23.5019 C.3     1  UNL1        0.0652
     14 C          -4.0236  -17.6846   23.5897 C.3     1  UNL1        0.0121
     15 C          -4.6325  -18.6568   22.6231 C.3     1  UNL1        0.0009
     16 C          -2.4644  -19.6521   21.5944 C.3     1  UNL1        0.0000
     17 C          -3.8530  -19.1108   21.4248 C.3     1  UNL1        0.0000
@<TRIPOS>BOND
     1    16    17    1
     2    17    15    1
     3    15    14    1
     4    14    13    1
     5    13    12    1
     6    12     1    1
     7     1     2    2
     8     2     3    1
     9     3     4    2
    10     4     5    1
    11     5    10    1
    12    10    11    1
    13     5     6    2
    14     6     7    1
    15     7     8    1
    16     8     9    2
    17     9     1    1
    18     8     3    1
