@<TRIPOS>MOLECULE
*****
 41 44 0 0 0
SMALL
GASTEIGER

@<TRIPOS>ATOM
      1 C           1.8192    4.3282   18.4622 C.2     1  UNL1        0.2253
      2 O           2.2689    5.7224   18.1400 O.2     1  UNL1       -0.2749
      3 N           2.7885    3.1872   18.3691 N.am    1  UNL1       -0.2787
      4 C           4.2310    3.2861   17.9699 C.3     1  UNL1        0.1028
      5 C           4.8195    1.9069   18.0129 C.3     1  UNL1        0.1021
      6 C           3.7406    0.9557   18.4387 C.3     1  UNL1        0.0524
      7 C           2.4854    1.7469   18.6588 C.3     1  UNL1        0.0982
      8 C          -4.9764    3.5614   19.1561 C.3     1  UNL1        0.0948
      9 C          -3.8566    3.3150   20.1232 C.2     1  UNL1        0.2261
     10 O          -4.1557    2.8153   21.5055 O.2     1  UNL1       -0.2749
     11 N          -2.4377    3.5683   19.7079 N.am    1  UNL1       -0.2795
     12 C          -2.1385    4.0680   18.3256 C.3     1  UNL1        0.0939
     13 C          -0.7196    4.3212   17.9104 C.3     1  UNL1        0.0306
     14 C           0.4002    4.0749   18.8774 C.3     1  UNL1        0.0801
     15 C           0.1011    3.5752   20.2597 C.3     1  UNL1        0.0306
     16 C          -1.3178    3.3219   20.6750 C.3     1  UNL1        0.0939
     17 C           3.8906   -0.5264   18.6136 C.ar    1  UNL1       -0.0203
     18 C           4.8872   -1.2823   17.7857 C.ar    1  UNL1       -0.0042
     19 C           5.0372   -2.7645   17.9607 C.ar    1  UNL1       -0.0003
     20 C           4.1906   -3.4908   18.9635 C.ar    1  UNL1       -0.0000
     21 C           3.1939   -2.7350   19.7914 C.ar    1  UNL1       -0.0003
     22 C           3.0439   -1.2528   19.6164 C.ar    1  UNL1       -0.0042
     23 C           6.2378    1.5430   17.6874 C.2     1  UNL1        0.2275
     24 O           6.6696    1.4145   16.2567 O.2     1  UNL1       -0.2748
     25 N           7.2242    1.3075   18.7926 N.am    1  UNL1       -0.2736
     26 C           8.6425    0.9435   18.4670 C.3     1  UNL1        0.1152
     27 C           6.7923    1.4359   20.2233 C.3     1  UNL1        0.1202
     28 C           6.3783    0.2175   20.9941 C.ar    1  UNL1       -0.0024
     29 C           5.3422    0.3287   22.0730 C.ar    1  UNL1        0.0012
     30 C           4.9282   -0.8898   22.8437 C.ar    1  UNL1        0.0711
     31 C           5.5503   -2.2194   22.5355 C.ar    1  UNL1        0.0077
     32 C           6.5864   -2.3306   21.4566 C.ar    1  UNL1        0.0711
     33 C           7.0004   -1.1121   20.6859 C.ar    1  UNL1        0.0012
     34 C           3.8921   -0.7785   23.9226 C.3     1  UNL1        0.4186
     35 F           2.8560   -0.6673   25.0016 F       1  UNL1       -0.1659
     36 F           4.9489   -0.3398   24.8923 F       1  UNL1       -0.1659
     37 F           2.8352   -1.2173   22.9529 F       1  UNL1       -0.1659
     38 C           7.2086   -3.6603   21.1484 C.3     1  UNL1        0.4186
     39 F           7.8307   -4.9899   20.8402 F       1  UNL1       -0.1659
     40 F           6.6641   -4.2126   22.4324 F       1  UNL1       -0.1659
     41 F           7.7530   -3.1080   19.8644 F       1  UNL1       -0.1659
@<TRIPOS>BOND
     1     8     9    1
     2     9    10    2
     3     9    11   am
     4    11    12    1
     5    12    13    1
     6    13    14    1
     7    14     1    1
     8     1     2    2
     9     1     3   am
    10     3     4    1
    11     4     5    1
    12     5    23    1
    13    23    24    2
    14    23    25   am
    15    25    26    1
    16    25    27    1
    17    27    28    1
    18    28    29   ar
    19    29    30   ar
    20    30    34    1
    21    34    35    1
    22    34    36    1
    23    34    37    1
    24    30    31   ar
    25    31    32   ar
    26    32    38    1
    27    38    39    1
    28    38    40    1
    29    38    41    1
    30    32    33   ar
    31     5     6    1
    32     6    17    1
    33    17    18   ar
    34    18    19   ar
    35    19    20   ar
    36    20    21   ar
    37    21    22   ar
    38     6     7    1
    39    14    15    1
    40    15    16    1
    41    16    11    1
    42     7     3    1
    43    33    28   ar
    44    22    17   ar
@<TRIPOS>MOLECULE
*****
 41 44 0 0 0
SMALL
GASTEIGER

@<TRIPOS>ATOM
      1 C           1.8136    4.3288   18.4762 C.2     1  UNL1        0.2253
      2 O           2.2607    5.7228   18.1494 O.2     1  UNL1       -0.2749
      3 N           2.7829    3.1882   18.3796 N.am    1  UNL1       -0.2787
      4 C           4.2232    3.2873   17.9724 C.3     1  UNL1        0.1028
      5 C           4.8127    1.9085   18.0143 C.3     1  UNL1        0.1021
      6 C           3.7366    0.9574   18.4475 C.3     1  UNL1        0.0524
      7 C           2.4822    1.7483   18.6732 C.3     1  UNL1        0.0982
      8 C          -4.9773    3.5541   19.2067 C.3     1  UNL1        0.0948
      9 C          -3.8525    3.3153   20.1699 C.2     1  UNL1        0.2261
     10 O          -4.1442    2.8231   21.5564 O.2     1  UNL1       -0.2749
     11 N          -2.4360    3.5687   19.7464 N.am    1  UNL1       -0.2795
     12 C          -2.1443    4.0609   18.3599 C.3     1  UNL1        0.0939
     13 C          -0.7278    4.3142   17.9365 C.3     1  UNL1        0.0306
     14 C           0.3971    4.0754   18.8996 C.3     1  UNL1        0.0801
     15 C           0.1054    3.5833   20.2862 C.3     1  UNL1        0.0306
     16 C          -1.3111    3.3299   20.7096 C.3     1  UNL1        0.0939
     17 C           3.8884   -0.5244   18.6239 C.ar    1  UNL1       -0.0203
     18 C           4.8767   -1.2819   17.7877 C.ar    1  UNL1       -0.0042
     19 C           5.0285   -2.7638   17.9642 C.ar    1  UNL1       -0.0003
     20 C           4.1919   -3.4881   18.9768 C.ar    1  UNL1       -0.0000
     21 C           3.2034   -2.7306   19.8130 C.ar    1  UNL1       -0.0003
     22 C           3.0518   -1.2487   19.6365 C.ar    1  UNL1       -0.0042
     23 C           6.2293    1.5448   17.6816 C.2     1  UNL1        0.2275
     24 O           6.6514    1.4063   16.2489 O.2     1  UNL1       -0.2748
     25 N           7.2239    1.3195   18.7816 N.am    1  UNL1       -0.2736
     26 C           8.6406    0.9558   18.4488 C.3     1  UNL1        0.1152
     27 C           6.8019    1.4580   20.2143 C.3     1  UNL1        0.1202
     28 C           6.3804    0.2468   20.9924 C.ar    1  UNL1       -0.0024
     29 C           7.0035   -1.0862   20.7009 C.ar    1  UNL1        0.0012
     30 C           6.5819   -2.2973   21.4791 C.ar    1  UNL1        0.0711
     31 C           5.5374   -2.1754   22.5488 C.ar    1  UNL1        0.0077
     32 C           4.9144   -0.8425   22.8402 C.ar    1  UNL1        0.0711
     33 C           5.3359    0.3687   22.0620 C.ar    1  UNL1        0.0012
     34 C           7.2049   -3.6303   21.1876 C.3     1  UNL1        0.4186
     35 F           7.8280   -4.9633   20.8961 F       1  UNL1       -0.1659
     36 F           6.6883   -4.1573   22.4934 F       1  UNL1       -0.1659
     37 F           7.7216   -3.1032   19.8818 F       1  UNL1       -0.1659
     38 C           3.8698   -0.7205   23.9099 C.3     1  UNL1        0.4186
     39 F           2.8254   -0.5986   24.9795 F       1  UNL1       -0.1659
     40 F           4.9005   -0.1760   24.8541 F       1  UNL1       -0.1659
     41 F           2.8393   -1.2651   22.9657 F       1  UNL1       -0.1659
@<TRIPOS>BOND
     1     8     9    1
     2     9    10    2
     3     9    11   am
     4    11    12    1
     5    12    13    1
     6    13    14    1
     7    14     1    1
     8     1     2    2
     9     1     3   am
    10     3     4    1
    11     4     5    1
    12     5    23    1
    13    23    24    2
    14    23    25   am
    15    25    26    1
    16    25    27    1
    17    27    28    1
    18    28    29   ar
    19    29    30   ar
    20    30    34    1
    21    34    35    1
    22    34    36    1
    23    34    37    1
    24    30    31   ar
    25    31    32   ar
    26    32    38    1
    27    38    39    1
    28    38    40    1
    29    38    41    1
    30    32    33   ar
    31     5     6    1
    32     6    17    1
    33    17    18   ar
    34    18    19   ar
    35    19    20   ar
    36    20    21   ar
    37    21    22   ar
    38     6     7    1
    39    14    15    1
    40    15    16    1
    41    16    11    1
    42     7     3    1
    43    33    28   ar
    44    22    17   ar
@<TRIPOS>MOLECULE
*****
 41 44 0 0 0
SMALL
GASTEIGER

@<TRIPOS>ATOM
      1 C           1.7106    2.6088   23.6328 C.2     1  UNL1        0.2253
      2 O           1.5683    4.0837   23.3991 O.2     1  UNL1       -0.2749
      3 N           2.2912    1.7326   22.5628 N.am    1  UNL1       -0.2787
      4 C           2.7708    2.1859   21.2158 C.3     1  UNL1        0.1028
      5 C           3.2702    0.9825   20.4724 C.3     1  UNL1        0.1021
      6 C           3.0993   -0.2146   21.3600 C.3     1  UNL1        0.0524
      7 C           2.4942    0.2490   22.6520 C.3     1  UNL1        0.0982
      8 C          -1.5039    0.0433   29.1406 C.3     1  UNL1        0.0948
      9 C          -0.0428    0.2148   28.8476 C.2     1  UNL1        0.2261
     10 O           0.9799   -0.2122   29.8584 O.2     1  UNL1       -0.2749
     11 N           0.3955    0.8133   27.5439 N.am    1  UNL1       -0.2795
     12 C          -0.6272    1.2403   26.5332 C.3     1  UNL1        0.0939
     13 C          -0.1888    1.8388   25.2295 C.3     1  UNL1        0.0306
     14 C           1.2722    2.0103   24.9365 C.3     1  UNL1        0.0801
     15 C           2.2949    1.5833   25.9473 C.3     1  UNL1        0.0306
     16 C           1.8566    0.9848   27.2510 C.3     1  UNL1        0.0939
     17 C           3.4685   -1.6271   21.0162 C.ar    1  UNL1       -0.0203
     18 C           4.1426   -2.4957   22.0365 C.ar    1  UNL1       -0.0042
     19 C           4.5119   -3.9083   21.6925 C.ar    1  UNL1       -0.0003
     20 C           4.2070   -4.4522   20.3283 C.ar    1  UNL1       -0.0000
     21 C           3.5329   -3.5836   19.3079 C.ar    1  UNL1       -0.0003
     22 C           3.1637   -2.1710   19.6519 C.ar    1  UNL1       -0.0042
     23 C           3.8404    0.9771   19.0850 C.2     1  UNL1        0.2275
     24 O           2.9594    0.6601   17.9133 O.2     1  UNL1       -0.2748
     25 N           5.2917    1.2888   18.8695 N.am    1  UNL1       -0.2736
     26 C           5.8620    1.2835   17.4821 C.3     1  UNL1        0.1152
     27 C           6.1729    1.6059   20.0413 C.3     1  UNL1        0.1202
     28 C           6.5991    0.5133   20.9765 C.ar    1  UNL1       -0.0024
     29 C           7.2033   -0.7470   20.4317 C.ar    1  UNL1        0.0012
     30 C           7.6295   -1.8395   21.3670 C.ar    1  UNL1        0.0711
     31 C           7.4516   -1.6718   22.8470 C.ar    1  UNL1        0.0077
     32 C           6.8474   -0.4116   23.3917 C.ar    1  UNL1        0.0711
     33 C           6.4212    0.6810   22.4564 C.ar    1  UNL1        0.0012
     34 C           8.2337   -3.0998   20.8223 C.3     1  UNL1        0.4186
     35 F           8.8379   -4.3600   20.2776 F       1  UNL1       -0.1659
     36 F           9.2623   -3.0784   21.9138 F       1  UNL1       -0.1659
     37 F           7.2050   -3.1211   19.7308 F       1  UNL1       -0.1659
     38 C           6.6694   -0.2439   24.8716 C.3     1  UNL1        0.4186
     39 F           6.4914   -0.0761   26.3515 F       1  UNL1       -0.1659
     40 F           5.2834    0.2830   24.6450 F       1  UNL1       -0.1659
     41 F           8.0555   -0.7707   25.0981 F       1  UNL1       -0.1659
@<TRIPOS>BOND
     1     8     9    1
     2     9    10    2
     3     9    11   am
     4    11    12    1
     5    12    13    1
     6    13    14    1
     7    14     1    1
     8     1     2    2
     9     1     3   am
    10     3     4    1
    11     4     5    1
    12     5    23    1
    13    23    24    2
    14    23    25   am
    15    25    26    1
    16    25    27    1
    17    27    28    1
    18    28    29   ar
    19    29    30   ar
    20    30    34    1
    21    34    35    1
    22    34    36    1
    23    34    37    1
    24    30    31   ar
    25    31    32   ar
    26    32    38    1
    27    38    39    1
    28    38    40    1
    29    38    41    1
    30    32    33   ar
    31     5     6    1
    32     6    17    1
    33    17    18   ar
    34    18    19   ar
    35    19    20   ar
    36    20    21   ar
    37    21    22   ar
    38     6     7    1
    39    14    15    1
    40    15    16    1
    41    16    11    1
    42     7     3    1
    43    33    28   ar
    44    22    17   ar
@<TRIPOS>MOLECULE
*****
 41 44 0 0 0
SMALL
GASTEIGER

@<TRIPOS>ATOM
      1 C          -0.5760    2.4277   25.8360 C.2     1  UNL1        0.2253
      2 O          -2.0336    2.7664   25.9380 O.2     1  UNL1       -0.2749
      3 N           0.1340    2.5582   24.5211 N.am    1  UNL1       -0.2787
      4 C          -0.4787    3.0122   23.2294 C.3     1  UNL1        0.1028
      5 C           0.5901    2.9922   22.1770 C.3     1  UNL1        0.1021
      6 C           1.8634    2.5258   22.8184 C.3     1  UNL1        0.0524
      7 C           1.5816    2.2576   24.2671 C.3     1  UNL1        0.0982
      8 C           3.2178    1.5258   31.4967 C.3     1  UNL1        0.0948
      9 C           2.4147    0.5512   30.6872 C.2     1  UNL1        0.2261
     10 O           2.3593   -0.8924   31.0906 O.2     1  UNL1       -0.2749
     11 N           1.6670    1.0204   29.4744 N.am    1  UNL1       -0.2795
     12 C           1.7224    2.4640   29.0711 C.3     1  UNL1        0.0939
     13 C           0.9748    2.9331   27.8582 C.3     1  UNL1        0.0306
     14 C           0.1717    1.9586   27.0488 C.3     1  UNL1        0.0801
     15 C           0.1163    0.5150   27.4521 C.3     1  UNL1        0.0306
     16 C           0.8639    0.0458   28.6649 C.3     1  UNL1        0.0939
     17 C           3.1862    2.3572   22.1317 C.ar    1  UNL1       -0.0203
     18 C           3.5157    3.1851   20.9250 C.ar    1  UNL1       -0.0042
     19 C           4.8385    3.0165   20.2382 C.ar    1  UNL1       -0.0003
     20 C           5.8319    2.0201   20.7582 C.ar    1  UNL1       -0.0000
     21 C           5.5025    1.1922   21.9649 C.ar    1  UNL1       -0.0003
     22 C           4.1796    1.3608   22.6516 C.ar    1  UNL1       -0.0042
     23 C           0.4161    3.3719   20.7364 C.2     1  UNL1        0.2275
     24 O           0.3268    4.8177   20.3474 O.2     1  UNL1       -0.2748
     25 N           0.3315    2.3056   19.6848 N.am    1  UNL1       -0.2736
     26 C           0.1575    2.6853   18.2441 C.3     1  UNL1        0.1152
     27 C           0.4208    0.8597   20.0738 C.3     1  UNL1        0.1202
     28 C           1.7006    0.1051   19.8671 C.ar    1  UNL1       -0.0024
     29 C           2.5361    0.3648   18.6487 C.ar    1  UNL1        0.0012
     30 C           3.8159   -0.3899   18.4422 C.ar    1  UNL1        0.0711
     31 C           4.2601   -1.4043   19.4539 C.ar    1  UNL1        0.0077
     32 C           3.4247   -1.6640   20.6723 C.ar    1  UNL1        0.0711
     33 C           2.1449   -0.9093   20.8789 C.ar    1  UNL1        0.0012
     34 C           4.6514   -0.1301   17.2238 C.3     1  UNL1        0.4186
     35 F           5.4869    0.1296   16.0054 F       1  UNL1       -0.1659
     36 F           5.7370    0.4374   18.0892 F       1  UNL1       -0.1659
     37 F           3.5657   -0.6977   16.3583 F       1  UNL1       -0.1659
     38 C           3.8689   -2.6784   21.6841 C.3     1  UNL1        0.4186
     39 F           4.3131   -3.6927   22.6959 F       1  UNL1       -0.1659
     40 F           3.2867   -1.8381   22.7819 F       1  UNL1       -0.1659
     41 F           4.4511   -3.5186   20.5863 F       1  UNL1       -0.1659
@<TRIPOS>BOND
     1     8     9    1
     2     9    10    2
     3     9    11   am
     4    11    12    1
     5    12    13    1
     6    13    14    1
     7    14     1    1
     8     1     2    2
     9     1     3   am
    10     3     4    1
    11     4     5    1
    12     5    23    1
    13    23    24    2
    14    23    25   am
    15    25    26    1
    16    25    27    1
    17    27    28    1
    18    28    29   ar
    19    29    30   ar
    20    30    34    1
    21    34    35    1
    22    34    36    1
    23    34    37    1
    24    30    31   ar
    25    31    32   ar
    26    32    38    1
    27    38    39    1
    28    38    40    1
    29    38    41    1
    30    32    33   ar
    31     5     6    1
    32     6    17    1
    33    17    18   ar
    34    18    19   ar
    35    19    20   ar
    36    20    21   ar
    37    21    22   ar
    38     6     7    1
    39    14    15    1
    40    15    16    1
    41    16    11    1
    42     7     3    1
    43    33    28   ar
    44    22    17   ar
@<TRIPOS>MOLECULE
*****
 41 44 0 0 0
SMALL
GASTEIGER

@<TRIPOS>ATOM
      1 C           7.8480   -5.8208   25.0466 C.2     1  UNL1        0.2253
      2 O           8.0668   -7.2386   24.6085 O.2     1  UNL1       -0.2749
      3 N           7.6269   -4.7456   24.0244 N.am    1  UNL1       -0.2787
      4 C           7.5980   -4.9359   22.5368 C.3     1  UNL1        0.1028
      5 C           7.3490   -3.5991   21.9032 C.3     1  UNL1        0.1021
      6 C           7.2241   -2.5827   22.9993 C.3     1  UNL1        0.0524
      7 C           7.3958   -3.2913   24.3102 C.3     1  UNL1        0.0982
      8 C           9.1150   -3.9582   31.5408 C.3     1  UNL1        0.0948
      9 C           7.8575   -4.4505   30.8880 C.2     1  UNL1        0.2261
     10 O           6.6024   -4.6002   31.6955 O.2     1  UNL1       -0.2749
     11 N           7.8551   -4.7931   29.4277 N.am    1  UNL1       -0.2795
     12 C           9.1103   -4.6433   28.6201 C.3     1  UNL1        0.0939
     13 C           9.1079   -4.9859   27.1598 C.3     1  UNL1        0.0306
     14 C           7.8504   -5.4782   26.5070 C.3     1  UNL1        0.0801
     15 C           6.5952   -5.6279   27.3145 C.3     1  UNL1        0.0306
     16 C           6.5976   -5.2854   28.7748 C.3     1  UNL1        0.0939
     17 C           6.9717   -1.1155   22.8166 C.ar    1  UNL1       -0.0203
     18 C           7.0614   -0.5036   21.4501 C.ar    1  UNL1       -0.0042
     19 C           6.8090    0.9637   21.2674 C.ar    1  UNL1       -0.0003
     20 C           6.4670    1.8191   22.4512 C.ar    1  UNL1       -0.0000
     21 C           6.3774    1.2071   23.8178 C.ar    1  UNL1       -0.0003
     22 C           6.6297   -0.2602   24.0004 C.ar    1  UNL1       -0.0042
     23 C           7.2435   -3.3267   20.4320 C.2     1  UNL1        0.2275
     24 O           8.4852   -3.1152   19.6175 O.2     1  UNL1       -0.2748
     25 N           5.8963   -3.2656   19.7752 N.am    1  UNL1       -0.2736
     26 C           5.7909   -2.9932   18.3040 C.3     1  UNL1        0.1152
     27 C           4.6546   -3.4771   20.5897 C.3     1  UNL1        0.1202
     28 C           3.7837   -2.3091   20.9466 C.ar    1  UNL1       -0.0024
     29 C           3.6856   -1.8547   22.3727 C.ar    1  UNL1        0.0012
     30 C           2.8147   -0.6867   22.7294 C.ar    1  UNL1        0.0711
     31 C           2.0419    0.0269   21.6601 C.ar    1  UNL1        0.0077
     32 C           2.1400   -0.4274   20.2340 C.ar    1  UNL1        0.0711
     33 C           3.0110   -1.5955   19.8772 C.ar    1  UNL1        0.0012
     34 C           2.7166   -0.2323   24.1556 C.3     1  UNL1        0.4186
     35 F           2.6184    0.2220   25.5818 F       1  UNL1       -0.1659
     36 F           1.8132    0.8892   23.7362 F       1  UNL1       -0.1659
     37 F           3.6199   -1.3539   24.5751 F       1  UNL1       -0.1659
     38 C           1.3673    0.2862   19.1645 C.3     1  UNL1        0.4186
     39 F           0.5947    0.9998   18.0951 F       1  UNL1       -0.1659
     40 F           2.5528    0.1986   18.2496 F       1  UNL1       -0.1659
     41 F           0.1819    0.3738   20.0794 F       1  UNL1       -0.1659
@<TRIPOS>BOND
     1     8     9    1
     2     9    10    2
     3     9    11   am
     4    11    12    1
     5    12    13    1
     6    13    14    1
     7    14     1    1
     8     1     2    2
     9     1     3   am
    10     3     4    1
    11     4     5    1
    12     5    23    1
    13    23    24    2
    14    23    25   am
    15    25    26    1
    16    25    27    1
    17    27    28    1
    18    28    29   ar
    19    29    30   ar
    20    30    34    1
    21    34    35    1
    22    34    36    1
    23    34    37    1
    24    30    31   ar
    25    31    32   ar
    26    32    38    1
    27    38    39    1
    28    38    40    1
    29    38    41    1
    30    32    33   ar
    31     5     6    1
    32     6    17    1
    33    17    18   ar
    34    18    19   ar
    35    19    20   ar
    36    20    21   ar
    37    21    22   ar
    38     6     7    1
    39    14    15    1
    40    15    16    1
    41    16    11    1
    42     7     3    1
    43    33    28   ar
    44    22    17   ar
@<TRIPOS>MOLECULE
*****
 41 44 0 0 0
SMALL
GASTEIGER

@<TRIPOS>ATOM
      1 C          -0.0968    3.1125   26.5026 C.2     1  UNL1        0.2253
      2 O          -0.9552    4.2743   26.9066 O.2     1  UNL1       -0.2749
      3 N          -0.0009    2.7170   25.0589 N.am    1  UNL1       -0.2787
      4 C          -0.7016    3.3853   23.9133 C.3     1  UNL1        0.1028
      5 C          -0.3212    2.6651   22.6536 C.3     1  UNL1        0.1021
      6 C           0.6146    1.5517   23.0207 C.3     1  UNL1        0.0524
      7 C           0.8125    1.5838   24.5072 C.3     1  UNL1        0.0982
      8 C           4.2575    0.5772   31.1784 C.3     1  UNL1        0.0948
      9 C           2.9530    0.0466   30.6619 C.2     1  UNL1        0.2261
     10 O           2.4110   -1.2504   31.1852 O.2     1  UNL1       -0.2749
     11 N           2.1905    0.8131   29.6221 N.am    1  UNL1       -0.2795
     12 C           2.7325    2.1101   29.0988 C.3     1  UNL1        0.0939
     13 C           1.9701    2.8766   28.0590 C.3     1  UNL1        0.0306
     14 C           0.6656    2.3460   27.5424 C.3     1  UNL1        0.0801
     15 C           0.1236    1.0490   28.0657 C.3     1  UNL1        0.0306
     16 C           0.8861    0.2825   29.1056 C.3     1  UNL1        0.0939
     17 C           1.2422    0.5775   22.0685 C.ar    1  UNL1       -0.0203
     18 C           0.5777    0.2754   20.7582 C.ar    1  UNL1       -0.0042
     19 C           1.2053   -0.6990   19.8059 C.ar    1  UNL1       -0.0003
     20 C           2.4975   -1.3713   20.1641 C.ar    1  UNL1       -0.0000
     21 C           3.1621   -1.0692   21.4746 C.ar    1  UNL1       -0.0003
     22 C           2.5344   -0.0948   22.4267 C.ar    1  UNL1       -0.0042
     23 C          -0.7937    2.9996   21.2698 C.2     1  UNL1        0.2275
     24 O          -2.1027    2.4610   20.7736 O.2     1  UNL1       -0.2748
     25 N           0.0430    3.8727   20.3822 N.am    1  UNL1       -0.2736
     26 C          -0.4295    4.2071   18.9984 C.3     1  UNL1        0.1152
     27 C           1.3520    4.4113   20.8785 C.3     1  UNL1        0.1202
     28 C           2.5925    3.5734   20.7827 C.ar    1  UNL1       -0.0024
     29 C           3.5760    3.5572   21.9152 C.ar    1  UNL1        0.0012
     30 C           4.8164    2.7193   21.8193 C.ar    1  UNL1        0.0711
     31 C           5.0734    1.8975   20.5911 C.ar    1  UNL1        0.0077
     32 C           4.0900    1.9136   19.4587 C.ar    1  UNL1        0.0711
     33 C           2.8495    2.7516   19.5545 C.ar    1  UNL1        0.0012
     34 C           5.7999    2.7031   22.9519 C.3     1  UNL1        0.4186
     35 F           6.7833    2.6870   24.0844 F       1  UNL1       -0.1659
     36 F           5.8356    1.2045   22.8995 F       1  UNL1       -0.1659
     37 F           5.7642    4.2018   23.0042 F       1  UNL1       -0.1659
     38 C           4.3469    1.0919   18.2303 C.3     1  UNL1        0.4186
     39 F           4.6037    0.2701   17.0020 F       1  UNL1       -0.1659
     40 F           2.8978    1.1972   17.8570 F       1  UNL1       -0.1659
     41 F           5.7958    0.9866   18.6037 F       1  UNL1       -0.1659
@<TRIPOS>BOND
     1     8     9    1
     2     9    10    2
     3     9    11   am
     4    11    12    1
     5    12    13    1
     6    13    14    1
     7    14     1    1
     8     1     2    2
     9     1     3   am
    10     3     4    1
    11     4     5    1
    12     5    23    1
    13    23    24    2
    14    23    25   am
    15    25    26    1
    16    25    27    1
    17    27    28    1
    18    28    29   ar
    19    29    30   ar
    20    30    34    1
    21    34    35    1
    22    34    36    1
    23    34    37    1
    24    30    31   ar
    25    31    32   ar
    26    32    38    1
    27    38    39    1
    28    38    40    1
    29    38    41    1
    30    32    33   ar
    31     5     6    1
    32     6    17    1
    33    17    18   ar
    34    18    19   ar
    35    19    20   ar
    36    20    21   ar
    37    21    22   ar
    38     6     7    1
    39    14    15    1
    40    15    16    1
    41    16    11    1
    42     7     3    1
    43    33    28   ar
    44    22    17   ar
@<TRIPOS>MOLECULE
*****
 41 44 0 0 0
SMALL
GASTEIGER

@<TRIPOS>ATOM
      1 C           0.0657    3.0519   26.5420 C.2     1  UNL1        0.2253
      2 O          -0.7822    4.2170   26.9584 O.2     1  UNL1       -0.2749
      3 N           0.1435    2.6598   25.0962 N.am    1  UNL1       -0.2787
      4 C          -0.5665    3.3347   23.9602 C.3     1  UNL1        0.1028
      5 C          -0.2038    2.6160   22.6945 C.3     1  UNL1        0.1021
      6 C           0.7304    1.4969   23.0483 C.3     1  UNL1        0.0524
      7 C           0.9451    1.5240   24.5326 C.3     1  UNL1        0.0982
      8 C           4.5401    0.3773   31.0226 C.3     1  UNL1        0.0948
      9 C           3.1461   -0.0403   30.6590 C.2     1  UNL1        0.2261
     10 O           2.5222   -1.2309   31.3246 O.2     1  UNL1       -0.2749
     11 N           2.3760    0.7328   29.6297 N.am    1  UNL1       -0.2795
     12 C           2.9999    1.9234   28.9641 C.3     1  UNL1        0.0939
     13 C           2.2298    2.6964   27.9348 C.3     1  UNL1        0.0306
     14 C           0.8358    2.2789   27.5712 C.3     1  UNL1        0.0801
     15 C           0.2119    1.0883   28.2368 C.3     1  UNL1        0.0306
     16 C           0.9820    0.3152   29.2661 C.3     1  UNL1        0.0939
     17 C           1.3425    0.5220   22.0866 C.ar    1  UNL1       -0.0203
     18 C           0.6447    0.2009   20.7983 C.ar    1  UNL1       -0.0042
     19 C           1.2568   -0.7741   19.8366 C.ar    1  UNL1       -0.0003
     20 C           2.5667   -1.4279   20.1632 C.ar    1  UNL1       -0.0000
     21 C           3.2645   -1.1067   21.4517 C.ar    1  UNL1       -0.0003
     22 C           2.6524   -0.1318   22.4133 C.ar    1  UNL1       -0.0042
     23 C          -0.6899    2.9565   21.3169 C.2     1  UNL1        0.2275
     24 O          -2.0041    2.4207   20.8316 O.2     1  UNL1       -0.2748
     25 N           0.1383    3.8328   20.4247 N.am    1  UNL1       -0.2736
     26 C          -0.3478    4.1733   19.0471 C.3     1  UNL1        0.1152
     27 C           1.4527    4.3686   20.9100 C.3     1  UNL1        0.1202
     28 C           2.6956    3.5395   20.7774 C.ar    1  UNL1       -0.0024
     29 C           2.9177    2.7124   19.5458 C.ar    1  UNL1        0.0012
     30 C           4.1607    1.8833   19.4134 C.ar    1  UNL1        0.0711
     31 C           5.1816    1.8812   20.5124 C.ar    1  UNL1        0.0077
     32 C           4.9595    2.7082   21.7439 C.ar    1  UNL1        0.0711
     33 C           3.7165    3.5373   21.8764 C.ar    1  UNL1        0.0012
     34 C           4.3828    1.0563   18.1818 C.3     1  UNL1        0.4186
     35 F           4.6049    0.2293   16.9502 F       1  UNL1       -0.1659
     36 F           5.8390    0.9405   18.5221 F       1  UNL1       -0.1659
     37 F           2.9265    1.1721   17.8414 F       1  UNL1       -0.1659
     38 C           5.9803    2.7061   22.8429 C.3     1  UNL1        0.4186
     39 F           7.0012    2.7041   23.9420 F       1  UNL1       -0.1659
     40 F           6.3630    4.1129   22.4899 F       1  UNL1       -0.1659
     41 F           5.5976    1.2994   23.1959 F       1  UNL1       -0.1659
@<TRIPOS>BOND
     1     8     9    1
     2     9    10    2
     3     9    11   am
     4    11    12    1
     5    12    13    1
     6    13    14    1
     7    14     1    1
     8     1     2    2
     9     1     3   am
    10     3     4    1
    11     4     5    1
    12     5    23    1
    13    23    24    2
    14    23    25   am
    15    25    26    1
    16    25    27    1
    17    27    28    1
    18    28    29   ar
    19    29    30   ar
    20    30    34    1
    21    34    35    1
    22    34    36    1
    23    34    37    1
    24    30    31   ar
    25    31    32   ar
    26    32    38    1
    27    38    39    1
    28    38    40    1
    29    38    41    1
    30    32    33   ar
    31     5     6    1
    32     6    17    1
    33    17    18   ar
    34    18    19   ar
    35    19    20   ar
    36    20    21   ar
    37    21    22   ar
    38     6     7    1
    39    14    15    1
    40    15    16    1
    41    16    11    1
    42     7     3    1
    43    33    28   ar
    44    22    17   ar
@<TRIPOS>MOLECULE
*****
 41 44 0 0 0
SMALL
GASTEIGER

@<TRIPOS>ATOM
      1 C           2.3185    0.1295   27.2817 C.2     1  UNL1        0.2253
      2 O           2.2215   -0.9239   28.3451 O.2     1  UNL1       -0.2749
      3 N           3.3026   -0.0251   26.1604 N.am    1  UNL1       -0.2787
      4 C           4.2503   -1.1723   25.9709 C.3     1  UNL1        0.1028
      5 C           5.0453   -0.9158   24.7249 C.3     1  UNL1        0.1021
      6 C           4.5890    0.3900   24.1445 C.3     1  UNL1        0.0524
      7 C           3.5120    0.9404   25.0316 C.3     1  UNL1        0.0982
      8 C          -2.5640    4.9466   26.8272 C.3     1  UNL1        0.0948
      9 C          -1.2305    4.9618   27.5137 C.2     1  UNL1        0.2261
     10 O          -0.7842    6.1851   28.2583 O.2     1  UNL1       -0.2749
     11 N          -0.3433    3.7537   27.4557 N.am    1  UNL1       -0.2795
     12 C          -0.7896    2.5305   26.7112 C.3     1  UNL1        0.0939
     13 C           0.0977    1.3224   26.6532 C.3     1  UNL1        0.0306
     14 C           1.4312    1.3376   27.3397 C.3     1  UNL1        0.0801
     15 C           1.8775    2.5609   28.0843 C.3     1  UNL1        0.0306
     16 C           0.9903    3.7689   28.1423 C.3     1  UNL1        0.0939
     17 C           5.1170    1.0324   22.8962 C.ar    1  UNL1       -0.0203
     18 C           6.5349    0.7908   22.4704 C.ar    1  UNL1       -0.0042
     19 C           7.0629    1.4332   21.2220 C.ar    1  UNL1       -0.0003
     20 C           6.1731    2.3172   20.3994 C.ar    1  UNL1       -0.0000
     21 C           4.7551    2.5589   20.8252 C.ar    1  UNL1       -0.0003
     22 C           4.2272    1.9164   22.0736 C.ar    1  UNL1       -0.0042
     23 C           6.1098   -1.8083   24.1589 C.2     1  UNL1        0.2275
     24 O           7.5034   -1.7568   24.7110 O.2     1  UNL1       -0.2748
     25 N           5.7804   -2.7524   23.0407 N.am    1  UNL1       -0.2736
     26 C           6.8448   -3.6449   22.4747 C.3     1  UNL1        0.1152
     27 C           4.3867   -2.8039   22.4886 C.3     1  UNL1        0.1202
     28 C           4.0073   -1.9334   21.3274 C.ar    1  UNL1       -0.0024
     29 C           2.6540   -1.2879   21.2846 C.ar    1  UNL1        0.0012
     30 C           2.2747   -0.4174   20.1233 C.ar    1  UNL1        0.0711
     31 C           3.2487   -0.1924   19.0050 C.ar    1  UNL1        0.0077
     32 C           4.6020   -0.8379   19.0478 C.ar    1  UNL1        0.0711
     33 C           4.9813   -1.7084   20.2091 C.ar    1  UNL1        0.0012
     34 C           0.9214    0.2281   20.0804 C.3     1  UNL1        0.4186
     35 F          -0.4320    0.8735   20.0376 F       1  UNL1       -0.1659
     36 F           0.9817    0.2551   18.5820 F       1  UNL1       -0.1659
     37 F           0.8610    0.2010   21.5790 F       1  UNL1       -0.1659
     38 C           5.5761   -0.6129   17.9295 C.3     1  UNL1        0.4186
     39 F           6.5502   -0.3880   16.8113 F       1  UNL1       -0.1659
     40 F           6.7164   -0.7668   18.8920 F       1  UNL1       -0.1659
     41 F           4.4358   -0.4591   16.9672 F       1  UNL1       -0.1659
@<TRIPOS>BOND
     1     8     9    1
     2     9    10    2
     3     9    11   am
     4    11    12    1
     5    12    13    1
     6    13    14    1
     7    14     1    1
     8     1     2    2
     9     1     3   am
    10     3     4    1
    11     4     5    1
    12     5    23    1
    13    23    24    2
    14    23    25   am
    15    25    26    1
    16    25    27    1
    17    27    28    1
    18    28    29   ar
    19    29    30   ar
    20    30    34    1
    21    34    35    1
    22    34    36    1
    23    34    37    1
    24    30    31   ar
    25    31    32   ar
    26    32    38    1
    27    38    39    1
    28    38    40    1
    29    38    41    1
    30    32    33   ar
    31     5     6    1
    32     6    17    1
    33    17    18   ar
    34    18    19   ar
    35    19    20   ar
    36    20    21   ar
    37    21    22   ar
    38     6     7    1
    39    14    15    1
    40    15    16    1
    41    16    11    1
    42     7     3    1
    43    33    28   ar
    44    22    17   ar
@<TRIPOS>MOLECULE
*****
 41 44 0 0 0
SMALL
GASTEIGER

@<TRIPOS>ATOM
      1 C           2.1752    0.1926   27.2582 C.2     1  UNL1        0.2253
      2 O           2.1065   -0.8316   28.3519 O.2     1  UNL1       -0.2749
      3 N           3.1659    0.0337   26.1432 N.am    1  UNL1       -0.2787
      4 C           4.1468   -1.0906   25.9887 C.3     1  UNL1        0.1028
      5 C           4.9368   -0.8479   24.7369 C.3     1  UNL1        0.1021
      6 C           4.4442    0.4265   24.1177 C.3     1  UNL1        0.0524
      7 C           3.3498    0.9714   24.9868 C.3     1  UNL1        0.0982
      8 C          -2.8040    4.8829   26.5813 C.3     1  UNL1        0.0948
      9 C          -1.5126    4.9247   27.3432 C.2     1  UNL1        0.2261
     10 O          -1.1432    6.1494   28.1264 O.2     1  UNL1       -0.2749
     11 N          -0.5906    3.7416   27.3220 N.am    1  UNL1       -0.2795
     12 C          -0.9600    2.5169   26.5388 C.3     1  UNL1        0.0939
     13 C          -0.0381    1.3339   26.5175 C.3     1  UNL1        0.0306
     14 C           1.2533    1.3756   27.2794 C.3     1  UNL1        0.0801
     15 C           1.6227    2.6004   28.0626 C.3     1  UNL1        0.0306
     16 C           0.7007    3.7834   28.0839 C.3     1  UNL1        0.0939
     17 C           4.9561    1.0470   22.8517 C.ar    1  UNL1       -0.0203
     18 C           6.3543    0.7625   22.3890 C.ar    1  UNL1       -0.0042
     19 C           6.8662    1.3830   21.1229 C.ar    1  UNL1       -0.0003
     20 C           5.9800    2.2882   20.3196 C.ar    1  UNL1       -0.0000
     21 C           4.5817    2.5728   20.7823 C.ar    1  UNL1       -0.0003
     22 C           4.0699    1.9522   22.0484 C.ar    1  UNL1       -0.0042
     23 C           6.0279   -1.7254   24.1987 C.2     1  UNL1        0.2275
     24 O           7.4141   -1.6301   24.7635 O.2     1  UNL1       -0.2748
     25 N           5.7325   -2.6982   23.0958 N.am    1  UNL1       -0.2736
     26 C           6.8236   -3.5757   22.5577 C.3     1  UNL1        0.1152
     27 C           4.3462   -2.7935   22.5311 C.3     1  UNL1        0.1202
     28 C           3.9556   -1.9482   21.3551 C.ar    1  UNL1       -0.0024
     29 C           4.9129   -1.7600   20.2157 C.ar    1  UNL1        0.0012
     30 C           4.5223   -0.9147   19.0398 C.ar    1  UNL1        0.0711
     31 C           3.1744   -0.2575   19.0032 C.ar    1  UNL1        0.0077
     32 C           2.2172   -0.4456   20.1426 C.ar    1  UNL1        0.0711
     33 C           2.6078   -1.2909   21.3186 C.ar    1  UNL1        0.0012
     34 C           5.4796   -0.7266   17.9004 C.3     1  UNL1        0.4186
     35 F           6.4369   -0.5384   16.7610 F       1  UNL1       -0.1659
     36 F           4.8934    0.6276   17.6315 F       1  UNL1       -0.1659
     37 F           6.0658   -2.0808   18.1693 F       1  UNL1       -0.1659
     38 C           0.8693    0.2116   20.1061 C.3     1  UNL1        0.4186
     39 F          -0.4786    0.8688   20.0697 F       1  UNL1       -0.1659
     40 F           0.8288    0.2114   21.6056 F       1  UNL1       -0.1659
     41 F           0.9098    0.2118   18.6067 F       1  UNL1       -0.1659
@<TRIPOS>BOND
     1     8     9    1
     2     9    10    2
     3     9    11   am
     4    11    12    1
     5    12    13    1
     6    13    14    1
     7    14     1    1
     8     1     2    2
     9     1     3   am
    10     3     4    1
    11     4     5    1
    12     5    23    1
    13    23    24    2
    14    23    25   am
    15    25    26    1
    16    25    27    1
    17    27    28    1
    18    28    29   ar
    19    29    30   ar
    20    30    34    1
    21    34    35    1
    22    34    36    1
    23    34    37    1
    24    30    31   ar
    25    31    32   ar
    26    32    38    1
    27    38    39    1
    28    38    40    1
    29    38    41    1
    30    32    33   ar
    31     5     6    1
    32     6    17    1
    33    17    18   ar
    34    18    19   ar
    35    19    20   ar
    36    20    21   ar
    37    21    22   ar
    38     6     7    1
    39    14    15    1
    40    15    16    1
    41    16    11    1
    42     7     3    1
    43    33    28   ar
    44    22    17   ar
