@<TRIPOS>MOLECULE
*****
 32 35 0 0 0
SMALL
GASTEIGER

@<TRIPOS>ATOM
      1 N           1.7275    2.3012   20.4479 N.am    1  UNL1       -0.2683
      2 C           0.2414    2.3293   20.6502 C.2     1  UNL1        0.3047
      3 O          -0.5829    1.1194   20.3237 O.2     1  UNL1       -0.2525
      4 N          -0.4202    3.5673   21.1788 N.am    1  UNL1       -0.2863
      5 H           2.2686    3.0953   20.6622 H       1  UNL1        0.1564
      6 H           0.1208    4.3614   21.3931 H       1  UNL1        0.1512
      7 C           3.1633   -0.5993   24.7810 C.3     1  UNL1        0.0521
      8 C           3.3006   -0.8027   23.3012 C.ar    1  UNL1        0.0594
      9 C           2.7763    0.2319   22.3501 C.ar    1  UNL1        0.0160
     10 C           2.9136    0.0285   20.8704 C.ar    1  UNL1        0.0162
     11 C           2.3892    1.0632   19.9192 C.ar    1  UNL1        0.0516
     12 C           2.5265    0.8598   18.4394 C.ar    1  UNL1        0.0147
     13 C           3.1882   -0.3783   17.9108 C.ar    1  UNL1        0.0013
     14 C           3.7125   -1.4129   18.8619 C.ar    1  UNL1        0.0016
     15 C           3.5752   -1.2095   20.3417 C.ar    1  UNL1        0.0204
     16 C           4.0996   -2.2441   21.2928 C.ar    1  UNL1        0.0984
     17 N           3.9623   -2.0407   22.7726 N.ar    1  UNL1       -0.2481
     18 C          -1.9062    3.5954   21.3810 C.3     1  UNL1        0.1021
     19 C          -2.8241    3.6241   20.1950 C.3     1  UNL1        0.0700
     20 C          -4.3102    3.6522   20.3973 C.3     1  UNL1        0.2000
     21 O          -4.8783    3.6516   21.7855 O.3     1  UNL1       -0.4771
     22 C          -3.9604    3.6229   22.9715 C.ar    1  UNL1        0.1382
     23 C          -4.5285    3.6222   24.3597 C.ar    1  UNL1        0.0662
     24 C          -3.6106    3.5935   25.5458 C.ar    1  UNL1        0.1431
     25 F          -4.1788    3.5929   26.9340 F       1  UNL1       -0.2041
     26 C          -2.1246    3.5654   25.3436 C.ar    1  UNL1        0.0296
     27 C          -1.5565    3.5660   23.9553 C.ar    1  UNL1        0.0026
     28 C          -2.4744    3.5948   22.7693 C.ar    1  UNL1        0.0298
     29 C          -5.7757    3.6844   20.0789 C.3     1  UNL1        0.2357
     30 F          -6.7585    4.1428   21.1152 F       1  UNL1       -0.2303
     31 C          -4.2510    3.6641   18.8985 C.3     1  UNL1        0.2357
     32 F          -5.4411    3.2257   18.0975 F       1  UNL1       -0.2303
@<TRIPOS>BOND
     1     7     8    1
     2     8     9   ar
     3     9    10   ar
     4    10    11   ar
     5    11     1    1
     6     1     2   am
     7     2     3    2
     8     2     4   am
     9    18     4    1
    10    18    19    1
    11    19    20    1
    12    20    29    1
    13    29    30    1
    14    20    31    1
    15    31    32    1
    16    20    21    1
    17    21    22    1
    18    22    23   ar
    19    23    24   ar
    20    24    25    1
    21    24    26   ar
    22    26    27   ar
    23    27    28   ar
    24    11    12   ar
    25    12    13   ar
    26    13    14   ar
    27    14    15   ar
    28    15    16   ar
    29    16    17   ar
    30    17     8   ar
    31    15    10   ar
    32    28    18    1
    33    28    22   ar
    34     1     5    1
    35     4     6    1
@<TRIPOS>MOLECULE
*****
 32 35 0 0 0
SMALL
GASTEIGER

@<TRIPOS>ATOM
      1 N          -0.7293    3.7182   20.8341 N.am    1  UNL1       -0.2683
      2 C           0.0515    2.4471   20.6762 C.2     1  UNL1        0.3047
      3 O          -0.6668    1.1358   20.5553 O.2     1  UNL1       -0.2525
      4 N           1.5504    2.4874   20.6392 N.am    1  UNL1       -0.2863
      5 H          -0.2579    4.5788   20.9134 H       1  UNL1        0.1564
      6 H           2.0219    3.3480   20.7186 H       1  UNL1        0.1512
      7 C          -2.0955    3.5038   26.0626 C.3     1  UNL1        0.0521
      8 C          -2.8782    3.5272   24.7833 C.ar    1  UNL1        0.0594
      9 C          -2.1619    3.5908   23.4669 C.ar    1  UNL1        0.0160
     10 C          -2.9446    3.6142   22.1875 C.ar    1  UNL1        0.0162
     11 C          -2.2283    3.6779   20.8711 C.ar    1  UNL1        0.0516
     12 C          -3.0110    3.7013   19.5917 C.ar    1  UNL1        0.0147
     13 C          -4.5101    3.6610   19.6288 C.ar    1  UNL1        0.0013
     14 C          -5.2263    3.5973   20.9451 C.ar    1  UNL1        0.0016
     15 C          -4.4436    3.5740   22.2245 C.ar    1  UNL1        0.0204
     16 C          -5.1599    3.5103   23.5409 C.ar    1  UNL1        0.0984
     17 N          -4.3771    3.4869   24.8203 N.ar    1  UNL1       -0.2481
     18 C           2.3311    1.2164   20.4814 C.3     1  UNL1        0.1021
     19 C           2.7126    0.7356   19.1127 C.3     1  UNL1        0.0700
     20 C           3.4934   -0.5355   18.9548 C.3     1  UNL1        0.2000
     21 O           3.8926   -1.3257   20.1657 O.3     1  UNL1       -0.4771
     22 C           3.5111   -0.8449   21.5343 C.ar    1  UNL1        0.1382
     23 C           3.9103   -1.6351   22.7452 C.ar    1  UNL1        0.0662
     24 C           3.5289   -1.1543   24.1138 C.ar    1  UNL1        0.1431
     25 F           3.9281   -1.9446   25.3247 F       1  UNL1       -0.2041
     26 C           2.7481    0.1167   24.2717 C.ar    1  UNL1        0.0296
     27 C           2.3489    0.9069   23.0609 C.ar    1  UNL1        0.0026
     28 C           2.7304    0.4261   21.6922 C.ar    1  UNL1        0.0298
     29 C           4.2235   -1.6687   18.2971 C.3     1  UNL1        0.2357
     30 F           3.9017   -3.0854   18.6702 F       1  UNL1       -0.2303
     31 C           3.3477   -0.1388   17.5155 C.3     1  UNL1        0.2357
     32 F           3.4914   -1.1696   16.4353 F       1  UNL1       -0.2303
@<TRIPOS>BOND
     1     7     8    1
     2     8     9   ar
     3     9    10   ar
     4    10    11   ar
     5    11     1    1
     6     1     2   am
     7     2     3    2
     8     2     4   am
     9    18     4    1
    10    18    19    1
    11    19    20    1
    12    20    29    1
    13    29    30    1
    14    20    31    1
    15    31    32    1
    16    20    21    1
    17    21    22    1
    18    22    23   ar
    19    23    24   ar
    20    24    25    1
    21    24    26   ar
    22    26    27   ar
    23    27    28   ar
    24    11    12   ar
    25    12    13   ar
    26    13    14   ar
    27    14    15   ar
    28    15    16   ar
    29    16    17   ar
    30    17     8   ar
    31    15    10   ar
    32    28    18    1
    33    28    22   ar
    34     1     5    1
    35     4     6    1
@<TRIPOS>MOLECULE
*****
 32 35 0 0 0
SMALL
GASTEIGER

@<TRIPOS>ATOM
      1 N           5.7856   -1.4170   23.0605 N.am    1  UNL1       -0.2683
      2 C           6.0281   -2.6988   23.8010 C.2     1  UNL1        0.3047
      3 O           5.3953   -3.9722   23.3235 O.2     1  UNL1       -0.2525
      4 N           6.9034   -2.7072   25.0191 N.am    1  UNL1       -0.2863
      5 H           6.2010   -0.5813   23.3740 H       1  UNL1        0.1564
      6 H           7.3188   -1.8715   25.3326 H       1  UNL1        0.1512
      7 C           9.0245   -2.5428   18.8782 C.3     1  UNL1        0.0521
      8 C           7.5583   -2.2551   19.0102 C.ar    1  UNL1        0.0594
      9 C           6.9674   -1.9757   20.3603 C.ar    1  UNL1        0.0160
     10 C           5.5012   -1.6880   20.4923 C.ar    1  UNL1        0.0162
     11 C           4.9103   -1.4087   21.8424 C.ar    1  UNL1        0.0516
     12 C           3.4441   -1.1209   21.9745 C.ar    1  UNL1        0.0147
     13 C           2.5688   -1.1125   20.7563 C.ar    1  UNL1        0.0013
     14 C           3.1597   -1.3919   19.4062 C.ar    1  UNL1        0.0016
     15 C           4.6259   -1.6796   19.2742 C.ar    1  UNL1        0.0204
     16 C           5.2168   -1.9589   17.9241 C.ar    1  UNL1        0.0984
     17 N           6.6830   -2.2467   17.7921 N.ar    1  UNL1       -0.2481
     18 C           7.1459   -3.9889   25.7596 C.3     1  UNL1        0.1021
     19 C           7.5633   -5.2200   25.0112 C.3     1  UNL1        0.0700
     20 C           7.8058   -6.5018   25.7517 C.3     1  UNL1        0.2000
     21 O           7.6308   -6.5525   27.2406 O.3     1  UNL1       -0.4771
     22 C           7.2133   -5.3213   27.9890 C.ar    1  UNL1        0.1382
     23 C           7.0383   -5.3720   29.4778 C.ar    1  UNL1        0.0662
     24 C           6.6208   -4.1409   30.2262 C.ar    1  UNL1        0.1431
     25 F           6.4458   -4.1915   31.7152 F       1  UNL1       -0.2041
     26 C           6.3784   -2.8591   29.4858 C.ar    1  UNL1        0.0296
     27 C           6.5534   -2.8085   27.9969 C.ar    1  UNL1        0.0026
     28 C           6.9709   -4.0396   27.2485 C.ar    1  UNL1        0.0298
     29 C           8.1506   -7.9394   26.0057 C.3     1  UNL1        0.2357
     30 F           7.2198   -8.8045   26.8025 F       1  UNL1       -0.2303
     31 C           8.1006   -6.9505   24.3510 C.3     1  UNL1        0.2357
     32 F           9.0873   -8.0540   24.1090 F       1  UNL1       -0.2303
@<TRIPOS>BOND
     1     7     8    1
     2     8     9   ar
     3     9    10   ar
     4    10    11   ar
     5    11     1    1
     6     1     2   am
     7     2     3    2
     8     2     4   am
     9    18     4    1
    10    18    19    1
    11    19    20    1
    12    20    29    1
    13    29    30    1
    14    20    31    1
    15    31    32    1
    16    20    21    1
    17    21    22    1
    18    22    23   ar
    19    23    24   ar
    20    24    25    1
    21    24    26   ar
    22    26    27   ar
    23    27    28   ar
    24    11    12   ar
    25    12    13   ar
    26    13    14   ar
    27    14    15   ar
    28    15    16   ar
    29    16    17   ar
    30    17     8   ar
    31    15    10   ar
    32    28    18    1
    33    28    22   ar
    34     1     5    1
    35     4     6    1
@<TRIPOS>MOLECULE
*****
 32 35 0 0 0
SMALL
GASTEIGER

@<TRIPOS>ATOM
      1 N           8.0507   -3.4531   23.1274 N.am    1  UNL1       -0.2683
      2 C           6.8336   -3.0448   22.3515 C.2     1  UNL1        0.3047
      3 O           5.7549   -4.0473   22.0661 O.2     1  UNL1       -0.2525
      4 N           6.6953   -1.6341   21.8610 N.am    1  UNL1       -0.2863
      5 H           8.7587   -2.7951   23.3148 H       1  UNL1        0.1564
      6 H           7.4033   -0.9761   22.0483 H       1  UNL1        0.1512
      7 C           6.1754   -3.4680   28.2002 C.3     1  UNL1        0.0521
      8 C           6.7480   -4.5223   27.2999 C.ar    1  UNL1        0.0594
      9 C           7.1823   -4.1660   25.9091 C.ar    1  UNL1        0.0160
     10 C           7.7548   -5.2203   25.0088 C.ar    1  UNL1        0.0162
     11 C           8.1891   -4.8638   23.6180 C.ar    1  UNL1        0.0516
     12 C           8.7617   -5.9182   22.7177 C.ar    1  UNL1        0.0147
     13 C           8.9000   -7.3290   23.2083 C.ar    1  UNL1        0.0013
     14 C           8.4658   -7.6854   24.5991 C.ar    1  UNL1        0.0016
     15 C           7.8932   -6.6310   25.4993 C.ar    1  UNL1        0.0204
     16 C           7.4590   -6.9874   26.8901 C.ar    1  UNL1        0.0984
     17 N           6.8864   -5.9331   27.7904 N.ar    1  UNL1       -0.2481
     18 C           5.4782   -1.2258   21.0851 C.3     1  UNL1        0.1021
     19 C           5.4652   -1.3500   19.5903 C.3     1  UNL1        0.0700
     20 C           4.2481   -0.9417   18.8144 C.3     1  UNL1        0.2000
     21 O           3.0441   -0.4093   19.5332 O.3     1  UNL1       -0.4771
     22 C           3.0571   -0.2851   21.0280 C.ar    1  UNL1        0.1382
     23 C           1.8531    0.2473   21.7469 C.ar    1  UNL1        0.0662
     24 C           1.8661    0.3715   23.2417 C.ar    1  UNL1        0.1431
     25 F           0.6620    0.9039   23.9606 F       1  UNL1       -0.2041
     26 C           3.0832   -0.0368   24.0176 C.ar    1  UNL1        0.0296
     27 C           4.2872   -0.5692   23.2987 C.ar    1  UNL1        0.0026
     28 C           4.2741   -0.6934   21.8039 C.ar    1  UNL1        0.0298
     29 C           3.3396   -0.6877   17.6481 C.3     1  UNL1        0.2357
     30 F           3.8663   -0.8022   16.2483 F       1  UNL1       -0.2303
     31 C           5.1366   -1.3859   17.6904 C.3     1  UNL1        0.2357
     32 F           5.7442   -2.7572   17.7118 F       1  UNL1       -0.2303
@<TRIPOS>BOND
     1     7     8    1
     2     8     9   ar
     3     9    10   ar
     4    10    11   ar
     5    11     1    1
     6     1     2   am
     7     2     3    2
     8     2     4   am
     9    18     4    1
    10    18    19    1
    11    19    20    1
    12    20    29    1
    13    29    30    1
    14    20    31    1
    15    31    32    1
    16    20    21    1
    17    21    22    1
    18    22    23   ar
    19    23    24   ar
    20    24    25    1
    21    24    26   ar
    22    26    27   ar
    23    27    28   ar
    24    11    12   ar
    25    12    13   ar
    26    13    14   ar
    27    14    15   ar
    28    15    16   ar
    29    16    17   ar
    30    17     8   ar
    31    15    10   ar
    32    28    18    1
    33    28    22   ar
    34     1     5    1
    35     4     6    1
@<TRIPOS>MOLECULE
*****
 32 35 0 0 0
SMALL
GASTEIGER

@<TRIPOS>ATOM
      1 N          -0.6283    3.5196   21.1890 N.am    1  UNL1       -0.2683
      2 C           0.1400    2.2650   20.8955 C.2     1  UNL1        0.3047
      3 O          -0.5902    1.0058   20.5333 O.2     1  UNL1       -0.2525
      4 N           1.6384    2.2698   20.9643 N.am    1  UNL1       -0.2863
      5 H          -0.1490    4.3460   21.4268 H       1  UNL1        0.1564
      6 H           2.1176    3.0962   21.2020 H       1  UNL1        0.1512
      7 C          -1.8933    4.2531   15.9822 C.3     1  UNL1        0.0521
      8 C          -2.7008    4.0662   17.2323 C.ar    1  UNL1        0.0594
      9 C          -2.0100    3.8840   18.5512 C.ar    1  UNL1        0.0160
     10 C          -2.8176    3.6970   19.8014 C.ar    1  UNL1        0.0162
     11 C          -2.1267    3.5148   21.1203 C.ar    1  UNL1        0.0516
     12 C          -2.9342    3.3279   22.3705 C.ar    1  UNL1        0.0147
     13 C          -4.4327    3.3231   22.3017 C.ar    1  UNL1        0.0013
     14 C          -5.1235    3.5053   20.9828 C.ar    1  UNL1        0.0016
     15 C          -4.3160    3.6923   19.7326 C.ar    1  UNL1        0.0204
     16 C          -5.0068    3.8745   18.4137 C.ar    1  UNL1        0.0984
     17 N          -4.1992    4.0614   17.1636 N.ar    1  UNL1       -0.2481
     18 C           2.4065    1.0153   20.6708 C.3     1  UNL1        0.1021
     19 C           2.6640    0.6085   19.2501 C.3     1  UNL1        0.0700
     20 C           3.4322   -0.6460   18.9567 C.3     1  UNL1        0.2000
     21 O           3.9429   -1.4937   20.0838 O.3     1  UNL1       -0.4771
     22 C           3.6855   -1.0869   21.5045 C.ar    1  UNL1        0.1382
     23 C           4.1962   -1.9346   22.6317 C.ar    1  UNL1        0.0662
     24 C           3.9387   -1.5278   24.0523 C.ar    1  UNL1        0.1431
     25 F           4.4495   -2.3756   25.1795 F       1  UNL1       -0.2041
     26 C           3.1706   -0.2733   24.3458 C.ar    1  UNL1        0.0296
     27 C           2.6599    0.5743   23.2186 C.ar    1  UNL1        0.0026
     28 C           2.9173    0.1676   21.7980 C.ar    1  UNL1        0.0298
     29 C           4.1040   -1.7377   18.1777 C.3     1  UNL1        0.2357
     30 F           4.5242   -3.0017   18.8673 F       1  UNL1       -0.2303
     31 C           3.1548   -0.1774   17.5590 C.3     1  UNL1        0.2357
     32 F           3.7430   -0.9123   16.3910 F       1  UNL1       -0.2303
@<TRIPOS>BOND
     1     7     8    1
     2     8     9   ar
     3     9    10   ar
     4    10    11   ar
     5    11     1    1
     6     1     2   am
     7     2     3    2
     8     2     4   am
     9    18     4    1
    10    18    19    1
    11    19    20    1
    12    20    29    1
    13    29    30    1
    14    20    31    1
    15    31    32    1
    16    20    21    1
    17    21    22    1
    18    22    23   ar
    19    23    24   ar
    20    24    25    1
    21    24    26   ar
    22    26    27   ar
    23    27    28   ar
    24    11    12   ar
    25    12    13   ar
    26    13    14   ar
    27    14    15   ar
    28    15    16   ar
    29    16    17   ar
    30    17     8   ar
    31    15    10   ar
    32    28    18    1
    33    28    22   ar
    34     1     5    1
    35     4     6    1
@<TRIPOS>MOLECULE
*****
 32 35 0 0 0
SMALL
GASTEIGER

@<TRIPOS>ATOM
      1 N           4.7623   -0.5326   36.1351 N.am    1  UNL1       -0.2683
      2 C           4.9061   -0.4900   34.6426 C.2     1  UNL1        0.3047
      3 O           5.7537    0.5682   34.0007 O.2     1  UNL1       -0.2525
      4 N           4.2024   -1.5054   33.7921 N.am    1  UNL1       -0.2863
      5 H           4.2061   -1.2270   36.5565 H       1  UNL1        0.1564
      6 H           3.6461   -2.1999   34.2134 H       1  UNL1        0.1512
      7 C           0.8913    2.0859   38.8570 C.3     1  UNL1        0.0521
      8 C           2.3869    2.1929   38.8145 C.ar    1  UNL1        0.0594
      9 C           3.1787    1.2844   37.9214 C.ar    1  UNL1        0.0160
     10 C           4.6743    1.3914   37.8789 C.ar    1  UNL1        0.0162
     11 C           5.4661    0.4829   36.9857 C.ar    1  UNL1        0.0516
     12 C           6.9617    0.5899   36.9432 C.ar    1  UNL1        0.0147
     13 C           7.6654    1.6055   37.7938 C.ar    1  UNL1        0.0013
     14 C           6.8736    2.5139   38.6869 C.ar    1  UNL1        0.0016
     15 C           5.3780    2.4069   38.7294 C.ar    1  UNL1        0.0204
     16 C           4.5862    3.3154   39.6225 C.ar    1  UNL1        0.0984
     17 N           3.0907    3.2084   39.6651 N.ar    1  UNL1       -0.2481
     18 C           4.3462   -1.4628   32.2996 C.3     1  UNL1        0.1021
     19 C           3.2910   -0.8018   31.4630 C.3     1  UNL1        0.0700
     20 C           3.4349   -0.7592   29.9705 C.3     1  UNL1        0.2000
     21 O           4.6338   -1.3775   29.3146 O.3     1  UNL1       -0.4771
     22 C           5.6889   -2.0385   30.1512 C.ar    1  UNL1        0.1382
     23 C           6.8878   -2.6568   29.4953 C.ar    1  UNL1        0.0662
     24 C           7.9429   -3.3178   30.3319 C.ar    1  UNL1        0.1431
     25 F           9.1419   -3.9361   29.6759 F       1  UNL1       -0.2041
     26 C           7.7991   -3.3604   31.8243 C.ar    1  UNL1        0.0296
     27 C           6.6002   -2.7421   32.4802 C.ar    1  UNL1        0.0026
     28 C           5.5451   -2.0811   31.6436 C.ar    1  UNL1        0.0298
     29 C           3.1249   -0.4664   28.5324 C.3     1  UNL1        0.2357
     30 F           3.3516   -1.5181   27.4871 F       1  UNL1       -0.2303
     31 C           2.1283   -0.0392   30.1270 C.3     1  UNL1        0.2357
     32 F           0.9069   -0.5381   29.4133 F       1  UNL1       -0.2303
@<TRIPOS>BOND
     1     7     8    1
     2     8     9   ar
     3     9    10   ar
     4    10    11   ar
     5    11     1    1
     6     1     2   am
     7     2     3    2
     8     2     4   am
     9    18     4    1
    10    18    19    1
    11    19    20    1
    12    20    29    1
    13    29    30    1
    14    20    31    1
    15    31    32    1
    16    20    21    1
    17    21    22    1
    18    22    23   ar
    19    23    24   ar
    20    24    25    1
    21    24    26   ar
    22    26    27   ar
    23    27    28   ar
    24    11    12   ar
    25    12    13   ar
    26    13    14   ar
    27    14    15   ar
    28    15    16   ar
    29    16    17   ar
    30    17     8   ar
    31    15    10   ar
    32    28    18    1
    33    28    22   ar
    34     1     5    1
    35     4     6    1
@<TRIPOS>MOLECULE
*****
 32 35 0 0 0
SMALL
GASTEIGER

@<TRIPOS>ATOM
      1 N           2.2157    2.0530   21.5432 N.am    1  UNL1       -0.2683
      2 C           0.7955    2.1743   21.0757 C.2     1  UNL1        0.3047
      3 O          -0.0941    0.9667   21.0587 O.2     1  UNL1       -0.2525
      4 N           0.2650    3.5030   20.6254 N.am    1  UNL1       -0.2863
      5 H           2.7996    2.8456   21.5544 H       1  UNL1        0.1564
      6 H           0.8488    4.2956   20.6367 H       1  UNL1        0.1512
      7 C           3.6422   -0.5940   17.0478 C.3     1  UNL1        0.0521
      8 C           3.6835   -0.9288   18.5093 C.ar    1  UNL1        0.0594
      9 C           3.1942    0.0651   19.5206 C.ar    1  UNL1        0.0160
     10 C           3.2355   -0.2698   20.9822 C.ar    1  UNL1        0.0162
     11 C           2.7462    0.7243   21.9935 C.ar    1  UNL1        0.0516
     12 C           2.7875    0.3894   23.4550 C.ar    1  UNL1        0.0147
     13 C           3.3181   -0.9395   23.9053 C.ar    1  UNL1        0.0013
     14 C           3.8073   -1.9334   22.8940 C.ar    1  UNL1        0.0016
     15 C           3.7660   -1.5986   21.4325 C.ar    1  UNL1        0.0204
     16 C           4.2553   -2.5925   20.4212 C.ar    1  UNL1        0.0984
     17 N           4.2140   -2.2576   18.9596 N.ar    1  UNL1       -0.2481
     18 C          -1.1552    3.6242   20.1581 C.3     1  UNL1        0.1021
     19 C          -1.4561    3.7281   18.6922 C.3     1  UNL1        0.0700
     20 C          -2.8763    3.8493   18.2249 C.3     1  UNL1        0.2000
     21 O          -3.9955    3.8666   19.2233 O.3     1  UNL1       -0.4771
     22 C          -3.6946    3.7627   20.6891 C.ar    1  UNL1        0.1382
     23 C          -4.8139    3.7800   21.6876 C.ar    1  UNL1        0.0662
     24 C          -4.5130    3.6761   23.1534 C.ar    1  UNL1        0.1431
     25 F          -5.6323    3.6934   24.1519 F       1  UNL1       -0.2041
     26 C          -3.0928    3.5549   23.6208 C.ar    1  UNL1        0.0296
     27 C          -1.9736    3.5376   22.6224 C.ar    1  UNL1        0.0026
     28 C          -2.2745    3.6415   21.1565 C.ar    1  UNL1        0.0298
     29 C          -4.0491    3.9802   17.2990 C.3     1  UNL1        0.2357
     30 F          -5.4089    3.5283   17.7424 F       1  UNL1       -0.2303
     31 C          -2.1643    3.8775   16.9048 C.3     1  UNL1        0.2357
     32 F          -0.7085    3.5241   16.8303 F       1  UNL1       -0.2303
@<TRIPOS>BOND
     1     7     8    1
     2     8     9   ar
     3     9    10   ar
     4    10    11   ar
     5    11     1    1
     6     1     2   am
     7     2     3    2
     8     2     4   am
     9    18     4    1
    10    18    19    1
    11    19    20    1
    12    20    29    1
    13    29    30    1
    14    20    31    1
    15    31    32    1
    16    20    21    1
    17    21    22    1
    18    22    23   ar
    19    23    24   ar
    20    24    25    1
    21    24    26   ar
    22    26    27   ar
    23    27    28   ar
    24    11    12   ar
    25    12    13   ar
    26    13    14   ar
    27    14    15   ar
    28    15    16   ar
    29    16    17   ar
    30    17     8   ar
    31    15    10   ar
    32    28    18    1
    33    28    22   ar
    34     1     5    1
    35     4     6    1
@<TRIPOS>MOLECULE
*****
 32 35 0 0 0
SMALL
GASTEIGER

@<TRIPOS>ATOM
      1 N           7.0092   -2.4103   22.2441 N.am    1  UNL1       -0.2683
      2 C           7.0544   -3.5412   23.2286 C.2     1  UNL1        0.3047
      3 O           6.1755   -4.7410   23.0334 O.2     1  UNL1       -0.2525
      4 N           7.9783   -3.4722   24.4082 N.am    1  UNL1       -0.2863
      5 H           7.5860   -1.6228   22.3722 H       1  UNL1        0.1564
      6 H           8.5550   -2.6847   24.5364 H       1  UNL1        0.1512
      7 C           2.4638    0.1040   23.7499 C.3     1  UNL1        0.0521
      8 C           2.9072   -0.5763   22.4887 C.ar    1  UNL1        0.0594
      9 C           4.2745   -1.1876   22.4072 C.ar    1  UNL1        0.0160
     10 C           4.7179   -1.8679   21.1460 C.ar    1  UNL1        0.0162
     11 C           6.0853   -2.4792   21.0645 C.ar    1  UNL1        0.0516
     12 C           6.5288   -3.1595   19.8033 C.ar    1  UNL1        0.0147
     13 C           5.6048   -3.2284   18.6236 C.ar    1  UNL1        0.0013
     14 C           4.2375   -2.6171   18.7051 C.ar    1  UNL1        0.0016
     15 C           3.7940   -1.9369   19.9663 C.ar    1  UNL1        0.0204
     16 C           2.4267   -1.3255   20.0479 C.ar    1  UNL1        0.0984
     17 N           1.9833   -0.6453   21.3091 N.ar    1  UNL1       -0.2481
     18 C           8.0233   -4.6030   25.3926 C.3     1  UNL1        0.1021
     19 C           8.5403   -5.9459   24.9691 C.3     1  UNL1        0.0700
     20 C           8.5854   -7.0768   25.9536 C.3     1  UNL1        0.2000
     21 O           8.1135   -6.8648   27.3615 O.3     1  UNL1       -0.4771
     22 C           7.5965   -5.5219   27.7851 C.ar    1  UNL1        0.1382
     23 C           7.1245   -5.3099   29.1930 C.ar    1  UNL1        0.0662
     24 C           6.6075   -3.9670   29.6165 C.ar    1  UNL1        0.1431
     25 F           6.1356   -3.7550   31.0245 F       1  UNL1       -0.2041
     26 C           6.5625   -2.8361   28.6321 C.ar    1  UNL1        0.0296
     27 C           7.0344   -3.0482   27.2242 C.ar    1  UNL1        0.0026
     28 C           7.5514   -4.3910   26.8007 C.ar    1  UNL1        0.0298
     29 C           8.8230   -8.4465   26.5170 C.3     1  UNL1        0.2357
     30 F           8.0262   -8.9214   27.6957 F       1  UNL1       -0.2303
     31 C           9.1399   -7.7646   24.7413 C.3     1  UNL1        0.2357
     32 F           8.4474   -7.6259   23.4180 F       1  UNL1       -0.2303
@<TRIPOS>BOND
     1     7     8    1
     2     8     9   ar
     3     9    10   ar
     4    10    11   ar
     5    11     1    1
     6     1     2   am
     7     2     3    2
     8     2     4   am
     9    18     4    1
    10    18    19    1
    11    19    20    1
    12    20    29    1
    13    29    30    1
    14    20    31    1
    15    31    32    1
    16    20    21    1
    17    21    22    1
    18    22    23   ar
    19    23    24   ar
    20    24    25    1
    21    24    26   ar
    22    26    27   ar
    23    27    28   ar
    24    11    12   ar
    25    12    13   ar
    26    13    14   ar
    27    14    15   ar
    28    15    16   ar
    29    16    17   ar
    30    17     8   ar
    31    15    10   ar
    32    28    18    1
    33    28    22   ar
    34     1     5    1
    35     4     6    1
@<TRIPOS>MOLECULE
*****
 32 35 0 0 0
SMALL
GASTEIGER

@<TRIPOS>ATOM
      1 N           5.0413    0.1726   24.1951 N.am    1  UNL1       -0.2683
      2 C           4.1264   -0.1399   25.3420 C.2     1  UNL1        0.3047
      3 O           3.6728   -1.5503   25.5768 O.2     1  UNL1       -0.2525
      4 N           3.6651    0.9579   26.2541 N.am    1  UNL1       -0.2863
      5 H           5.3390    1.0983   24.0410 H       1  UNL1        0.1564
      6 H           3.9628    1.8836   26.1000 H       1  UNL1        0.1512
      7 C           1.1993   -0.3598   20.4261 C.3     1  UNL1        0.0521
      8 C           2.5058   -1.0501   20.6843 C.ar    1  UNL1        0.0594
      9 C           3.3510   -0.6425   21.8546 C.ar    1  UNL1        0.0160
     10 C           4.6574   -1.3328   22.1127 C.ar    1  UNL1        0.0162
     11 C           5.5026   -0.9252   23.2831 C.ar    1  UNL1        0.0516
     12 C           6.8091   -1.6155   23.5412 C.ar    1  UNL1        0.0147
     13 C           7.2704   -2.7134   22.6291 C.ar    1  UNL1        0.0013
     14 C           6.4252   -3.1209   21.4588 C.ar    1  UNL1        0.0016
     15 C           5.1187   -2.4307   21.2007 C.ar    1  UNL1        0.0204
     16 C           4.2735   -2.8382   20.0304 C.ar    1  UNL1        0.0984
     17 N           2.9671   -2.1479   19.7722 N.ar    1  UNL1       -0.2481
     18 C           2.7502    0.6454   27.4009 C.3     1  UNL1        0.1021
     19 C           1.2755    0.8873   27.2714 C.3     1  UNL1        0.0700
     20 C           0.3606    0.5747   28.4183 C.3     1  UNL1        0.2000
     21 O           0.9204    0.0203   29.6947 O.3     1  UNL1       -0.4771
     22 C           2.3951   -0.2216   29.8242 C.ar    1  UNL1        0.1382
     23 C           2.9549   -0.7760   31.1006 C.ar    1  UNL1        0.0662
     24 C           4.4296   -1.0179   31.2302 C.ar    1  UNL1        0.1431
     25 F           4.9894   -1.5723   32.5066 F       1  UNL1       -0.2041
     26 C           5.3445   -0.7053   30.0834 C.ar    1  UNL1        0.0296
     27 C           4.7847   -0.1509   28.8070 C.ar    1  UNL1        0.0026
     28 C           3.3100    0.0909   28.6774 C.ar    1  UNL1        0.0298
     29 C          -0.9009    0.4383   29.2183 C.3     1  UNL1        0.2357
     30 F          -1.8416   -0.6982   28.9474 F       1  UNL1       -0.2303
     31 C          -0.6373    1.0817   27.4197 C.3     1  UNL1        0.2357
     32 F          -0.3915    0.8937   25.9520 F       1  UNL1       -0.2303
@<TRIPOS>BOND
     1     7     8    1
     2     8     9   ar
     3     9    10   ar
     4    10    11   ar
     5    11     1    1
     6     1     2   am
     7     2     3    2
     8     2     4   am
     9    18     4    1
    10    18    19    1
    11    19    20    1
    12    20    29    1
    13    29    30    1
    14    20    31    1
    15    31    32    1
    16    20    21    1
    17    21    22    1
    18    22    23   ar
    19    23    24   ar
    20    24    25    1
    21    24    26   ar
    22    26    27   ar
    23    27    28   ar
    24    11    12   ar
    25    12    13   ar
    26    13    14   ar
    27    14    15   ar
    28    15    16   ar
    29    16    17   ar
    30    17     8   ar
    31    15    10   ar
    32    28    18    1
    33    28    22   ar
    34     1     5    1
    35     4     6    1
