@<TRIPOS>MOLECULE
*****
 39 42 0 0 0
SMALL
GASTEIGER

@<TRIPOS>ATOM
      1 C           5.8716   -3.3692   24.1766 C.ar    1  UNL1        0.0957
      2 C           6.2821   -4.1005   22.9331 C.ar    1  UNL1        0.1191
      3 N           7.3175   -5.1834   23.0070 N.ar    1  UNL1       -0.2223
      4 C           7.9424   -5.5349   24.3245 C.ar    1  UNL1        0.1784
      5 N           8.9808   -6.5484   24.7043 N.ar    1  UNL1       -0.2236
      6 C           9.2122   -6.4436   26.1826 C.ar    1  UNL1        0.1066
      7 C           8.3167   -5.3651   26.7165 C.ar    1  UNL1        0.0910
      8 C           7.5319   -4.8035   25.5681 C.ar    1  UNL1        0.0988
      9 N           6.4966   -3.7207   25.4942 N.ar    1  UNL1       -0.3481
     10 H           6.2272   -3.2407   26.3105 H       1  UNL1        0.1661
     11 N           3.3223   -0.4940   24.7240 N.ar    1  UNL1       -0.2508
     12 N           4.3560   -1.4460   25.2486 N.ar    1  UNL1       -0.1678
     13 C           4.8363   -2.2863   24.1027 C.ar    1  UNL1        0.1194
     14 C           4.0994   -1.8537   22.8698 C.ar    1  UNL1        0.0411
     15 C           4.1596   -2.3254   21.4472 C.ar    1  UNL1        0.0402
     16 C           3.2841   -1.6893   20.4086 C.ar    1  UNL1        0.1444
     17 C           2.3484   -0.5816   20.7926 C.ar    1  UNL1        0.0386
     18 C           2.2882   -0.1099   22.2152 C.ar    1  UNL1        0.0219
     19 C           3.1637   -0.7460   23.2538 C.ar    1  UNL1        0.0796
     20 C           2.5779    0.5302   25.5283 C.3     1  UNL1        0.1289
     21 C           2.8450    0.6687   26.9979 C.3     1  UNL1        0.0437
     22 C           2.6684   -0.5114   27.9068 C.3     1  UNL1        0.0742
     23 C           2.4388   -0.4975   30.4946 C.3     1  UNL1        0.0897
     24 N           1.8151   -0.3912   29.1346 N.3     1  UNL1       -0.2703
     25 C           0.3382   -0.1647   29.0024 C.3     1  UNL1        0.0897
     26 O           3.3442   -2.1609   18.9859 O.3     1  UNL1       -0.4236
     27 C           3.8436   -3.5404   18.6736 C.3     1  UNL1        0.5087
     28 F           2.9798   -4.7331   18.9584 F       1  UNL1       -0.1550
     29 F           5.2069   -3.7272   18.0763 F       1  UNL1       -0.1550
     30 C           8.2226   -4.9254   28.1476 C.2     1  UNL1        0.2488
     31 O           9.4638   -4.5424   28.8977 O.2     1  UNL1       -0.2700
     32 N           6.8872   -4.8689   28.8285 N.am    1  UNL1       -0.3015
     33 H           6.0726   -5.1203   28.3362 H       1  UNL1        0.1497
     34 C           6.7931   -4.4292   30.2595 C.3     1  UNL1        0.0841
     35 C           6.5570   -3.0177   29.8103 C.3     1  UNL1        0.0222
     36 C           7.0293   -5.8408   30.7087 C.3     1  UNL1        0.0222
     37 C           6.6990   -3.9895   31.6905 C.3     1  UNL1        0.1549
     38 O           6.2401   -4.9547   32.7430 O.3     1  UNL1       -0.3803
     39 H           5.3124   -5.1895   32.5840 H       1  UNL1        0.2105
@<TRIPOS>BOND
     1    23    24    1
     2    24    25    1
     3    24    22    1
     4    22    21    1
     5    21    20    1
     6    20    11    1
     7    11    12   ar
     8    12    13   ar
     9    13     1    1
    10     1     2   ar
    11     2     3   ar
    12     3     4   ar
    13     4     5   ar
    14     5     6   ar
    15     6     7   ar
    16     7    30    1
    17    30    31    2
    18    30    32   am
    19    32    34    1
    20    34    35    1
    21    34    36    1
    22    34    37    1
    23    37    38    1
    24     7     8   ar
    25     8     9   ar
    26    13    14   ar
    27    14    15   ar
    28    15    16   ar
    29    16    26    1
    30    26    27    1
    31    27    28    1
    32    27    29    1
    33    16    17   ar
    34    17    18   ar
    35    18    19   ar
    36    19    11   ar
    37     9     1   ar
    38    19    14   ar
    39     8     4    1
    40    32    33    1
    41    38    39    1
    42     9    10    1
@<TRIPOS>MOLECULE
*****
 39 42 0 0 0
SMALL
GASTEIGER

@<TRIPOS>ATOM
      1 C           0.8450    1.6311   20.8670 C.ar    1  UNL1        0.0957
      2 C           1.3810    1.9171   19.4957 C.ar    1  UNL1        0.1191
      3 N           0.5621    2.7098   18.5205 N.ar    1  UNL1       -0.2223
      4 C          -0.7929    3.2166   18.9168 C.ar    1  UNL1        0.1784
      5 N          -1.8209    4.0186   18.1752 N.ar    1  UNL1       -0.2236
      6 C          -2.9924    4.2283   19.0882 C.ar    1  UNL1        0.1066
      7 C          -2.6883    3.5559   20.3942 C.ar    1  UNL1        0.0910
      8 C          -1.3290    2.9307   20.2882 C.ar    1  UNL1        0.0988
      9 N          -0.5101    2.1379   21.2634 N.ar    1  UNL1       -0.3481
     10 H          -0.8619    1.9502   22.1635 H       1  UNL1        0.1661
     11 N           2.7413    0.1000   23.8878 N.ar    1  UNL1       -0.2508
     12 N           1.8494    1.1516   23.2973 N.ar    1  UNL1       -0.1678
     13 C           1.6640    0.8383   21.8422 C.ar    1  UNL1        0.1194
     14 C           2.4412   -0.4068   21.5333 C.ar    1  UNL1        0.0411
     15 C           2.6287   -1.1841   20.2642 C.ar    1  UNL1        0.0402
     16 C           3.4821   -2.4177   20.2594 C.ar    1  UNL1        0.1444
     17 C           4.1479   -2.8740   21.5237 C.ar    1  UNL1        0.0386
     18 C           3.9604   -2.0968   22.7928 C.ar    1  UNL1        0.0219
     19 C           3.1070   -0.8632   22.7976 C.ar    1  UNL1        0.0796
     20 C           3.1888    0.0247   25.3175 C.3     1  UNL1        0.1289
     21 C           2.8260    1.1204   26.2757 C.3     1  UNL1        0.0437
     22 C           1.5380    1.0510   27.0415 C.3     1  UNL1        0.0742
     23 C           0.7774    3.3209   26.0322 C.3     1  UNL1        0.0897
     24 N           0.4635    2.0683   26.7953 N.3     1  UNL1       -0.2703
     25 C          -0.9248    1.8329   27.3122 C.3     1  UNL1        0.0897
     26 O           3.6696   -3.1950   18.9902 O.3     1  UNL1       -0.4236
     27 C           3.8194   -4.6866   19.0395 C.3     1  UNL1        0.5087
     28 F           2.8604   -5.5105   19.8467 F       1  UNL1       -0.1550
     29 F           4.9284   -5.3545   18.2816 F       1  UNL1       -0.1550
     30 C          -3.5861    3.5158   21.5953 C.2     1  UNL1        0.2488
     31 O          -4.7086    2.5229   21.6598 O.2     1  UNL1       -0.2700
     32 N          -3.3613    4.4686   22.7318 N.am    1  UNL1       -0.3015
     33 H          -2.6246    5.1202   22.6894 H       1  UNL1        0.1497
     34 C          -4.2591    4.4284   23.9327 C.3     1  UNL1        0.0841
     35 C          -5.2199    5.3527   23.2454 C.3     1  UNL1        0.0222
     36 C          -3.2982    3.5041   24.6201 C.3     1  UNL1        0.0222
     37 C          -5.1569    4.3883   25.1338 C.3     1  UNL1        0.1549
     38 O          -4.6922    3.7238   26.3957 O.3     1  UNL1       -0.3803
     39 H          -4.5866    2.7722   26.2400 H       1  UNL1        0.2105
@<TRIPOS>BOND
     1    23    24    1
     2    24    25    1
     3    24    22    1
     4    22    21    1
     5    21    20    1
     6    20    11    1
     7    11    12   ar
     8    12    13   ar
     9    13     1    1
    10     1     2   ar
    11     2     3   ar
    12     3     4   ar
    13     4     5   ar
    14     5     6   ar
    15     6     7   ar
    16     7    30    1
    17    30    31    2
    18    30    32   am
    19    32    34    1
    20    34    35    1
    21    34    36    1
    22    34    37    1
    23    37    38    1
    24     7     8   ar
    25     8     9   ar
    26    13    14   ar
    27    14    15   ar
    28    15    16   ar
    29    16    26    1
    30    26    27    1
    31    27    28    1
    32    27    29    1
    33    16    17   ar
    34    17    18   ar
    35    18    19   ar
    36    19    11   ar
    37     9     1   ar
    38    19    14   ar
    39     8     4    1
    40    32    33    1
    41    38    39    1
    42     9    10    1
@<TRIPOS>MOLECULE
*****
 39 42 0 0 0
SMALL
GASTEIGER

@<TRIPOS>ATOM
      1 C           3.3748   -0.6121   25.4871 C.ar    1  UNL1        0.0957
      2 C           3.1046   -0.1960   26.9025 C.ar    1  UNL1        0.1191
      3 N           2.0231    0.8006   27.1979 N.ar    1  UNL1       -0.2223
      4 C           1.2118    1.3811   26.0778 C.ar    1  UNL1        0.1784
      5 N           0.0891    2.3756   26.0623 N.ar    1  UNL1       -0.2236
      6 C          -0.3347    2.5742   24.6372 C.ar    1  UNL1        0.1066
      7 C           0.5262    1.7024   23.7719 C.ar    1  UNL1        0.0910
      8 C           1.4820    0.9650   24.6622 C.ar    1  UNL1        0.0988
      9 N           2.5635   -0.0316   24.3668 N.ar    1  UNL1       -0.3481
     10 H           2.7408   -0.3047   23.4377 H       1  UNL1        0.1661
     11 N           6.3533   -3.1005   25.4488 N.ar    1  UNL1       -0.2508
     12 N           5.4687   -2.1269   26.1696 N.ar    1  UNL1       -0.1678
     13 C           4.4563   -1.6087   25.1917 C.ar    1  UNL1        0.1194
     14 C           4.7151   -2.2620   23.8665 C.ar    1  UNL1        0.0411
     15 C           4.0346   -2.1365   22.5356 C.ar    1  UNL1        0.0402
     16 C           4.5266   -2.9330   21.3637 C.ar    1  UNL1        0.1444
     17 C           5.6991   -3.8550   21.5226 C.ar    1  UNL1        0.0386
     18 C           6.3795   -3.9805   22.8534 C.ar    1  UNL1        0.0219
     19 C           5.8875   -3.1840   24.0253 C.ar    1  UNL1        0.0796
     20 C           7.5020   -3.8577   26.0464 C.3     1  UNL1        0.1289
     21 C           7.4165   -5.3467   26.2067 C.3     1  UNL1        0.0437
     22 C           6.6685   -5.9345   27.3665 C.3     1  UNL1        0.0742
     23 C           8.5794   -7.0431   28.7337 C.3     1  UNL1        0.0897
     24 N           7.3687   -6.1596   28.6738 N.3     1  UNL1       -0.2703
     25 C           6.8581   -5.5012   29.9212 C.3     1  UNL1        0.0897
     26 O           3.8462   -2.8075   20.0327 O.3     1  UNL1       -0.4236
     27 C           3.7621   -3.9938   19.1186 C.3     1  UNL1        0.5087
     28 F           2.4884   -4.7806   19.0262 F       1  UNL1       -0.1550
     29 F           4.9517   -4.3933   18.2969 F       1  UNL1       -0.1550
     30 C           0.4455    1.5880   22.2783 C.2     1  UNL1        0.2488
     31 O          -0.7653    2.0942   21.5518 O.2     1  UNL1       -0.2700
     32 N           1.5754    0.9675   21.5115 N.am    1  UNL1       -0.3015
     33 H           2.3701    0.6353   21.9884 H       1  UNL1        0.1497
     34 C           1.4947    0.8532   20.0181 C.3     1  UNL1        0.0841
     35 C           2.0408    2.2436   19.8821 C.3     1  UNL1        0.0222
     36 C           0.9485   -0.5373   20.1540 C.3     1  UNL1        0.0222
     37 C           1.4139    0.7389   18.5246 C.3     1  UNL1        0.1549
     38 O           2.5668    0.1691   17.7525 O.3     1  UNL1       -0.3803
     39 H           3.3313    0.7612   17.8289 H       1  UNL1        0.2105
@<TRIPOS>BOND
     1    23    24    1
     2    24    25    1
     3    24    22    1
     4    22    21    1
     5    21    20    1
     6    20    11    1
     7    11    12   ar
     8    12    13   ar
     9    13     1    1
    10     1     2   ar
    11     2     3   ar
    12     3     4   ar
    13     4     5   ar
    14     5     6   ar
    15     6     7   ar
    16     7    30    1
    17    30    31    2
    18    30    32   am
    19    32    34    1
    20    34    35    1
    21    34    36    1
    22    34    37    1
    23    37    38    1
    24     7     8   ar
    25     8     9   ar
    26    13    14   ar
    27    14    15   ar
    28    15    16   ar
    29    16    26    1
    30    26    27    1
    31    27    28    1
    32    27    29    1
    33    16    17   ar
    34    17    18   ar
    35    18    19   ar
    36    19    11   ar
    37     9     1   ar
    38    19    14   ar
    39     8     4    1
    40    32    33    1
    41    38    39    1
    42     9    10    1
@<TRIPOS>MOLECULE
*****
 39 42 0 0 0
SMALL
GASTEIGER

@<TRIPOS>ATOM
      1 C          -0.2245    2.5868   20.1977 C.ar    1  UNL1        0.0957
      2 C           0.5231    2.8713   18.9289 C.ar    1  UNL1        0.1191
      3 N          -0.1748    3.5375   17.7803 N.ar    1  UNL1       -0.2223
      4 C          -1.6204    3.9191   17.9006 C.ar    1  UNL1        0.1784
      5 N          -2.5664    4.5824   16.9440 N.ar    1  UNL1       -0.2236
      6 C          -3.8987    4.7078   17.6215 C.ar    1  UNL1        0.1066
      7 C          -3.7762    4.1220   18.9970 C.ar    1  UNL1        0.0910
      8 C          -2.3682    3.6346   19.1695 C.ar    1  UNL1        0.0988
      9 N          -1.6702    2.9685   20.3180 N.ar    1  UNL1       -0.3481
     10 H          -2.1610    2.7818   21.1508 H       1  UNL1        0.1661
     11 N           1.2184    1.3723   23.5900 N.ar    1  UNL1       -0.2508
     12 N           0.3513    2.3005   22.7922 N.ar    1  UNL1       -0.1678
     13 C           0.4734    1.9207   21.3463 C.ar    1  UNL1        0.1194
     14 C           1.4159    0.7577   21.2504 C.ar    1  UNL1        0.0411
     15 C           1.9144   -0.0364   20.0796 C.ar    1  UNL1        0.0402
     16 C           2.8733   -1.1694   20.2956 C.ar    1  UNL1        0.1444
     17 C           3.3338   -1.5083   21.6823 C.ar    1  UNL1        0.0386
     18 C           2.8353   -0.7142   22.8532 C.ar    1  UNL1        0.0219
     19 C           1.8764    0.4188   22.6372 C.ar    1  UNL1        0.0796
     20 C           1.3963    1.3938   25.0793 C.3     1  UNL1        0.1289
     21 C           0.2156    1.1770   25.9789 C.3     1  UNL1        0.0437
     22 C           0.3284    1.4645   27.4468 C.3     1  UNL1        0.0742
     23 C           1.3809   -0.2311   29.1101 C.3     1  UNL1        0.0897
     24 N           0.1717    0.3538   28.4427 N.3     1  UNL1       -0.2703
     25 C          -1.1943   -0.1719   28.7712 C.3     1  UNL1        0.0897
     26 O           3.3719   -1.9636   19.1247 O.3     1  UNL1       -0.4236
     27 C           3.7059   -3.4164   19.2915 C.3     1  UNL1        0.5087
     28 F           2.7026   -4.4650   18.9125 F       1  UNL1       -0.1550
     29 F           5.0434   -3.8205   19.8374 F       1  UNL1       -0.1550
     30 C          -4.8698    4.0384   20.0203 C.2     1  UNL1        0.2488
     31 O          -6.1856    3.4135   19.6624 O.2     1  UNL1       -0.2700
     32 N          -4.6476    4.5797   21.4014 N.am    1  UNL1       -0.3015
     33 H          -3.7840    4.9898   21.6363 H       1  UNL1        0.1497
     34 C          -5.7412    4.4960   22.4246 C.3     1  UNL1        0.0841
     35 C          -5.1808    3.1947   22.9171 C.3     1  UNL1        0.0222
     36 C          -6.3015    5.7974   21.9322 C.3     1  UNL1        0.0222
     37 C          -6.8348    4.4123   23.4480 C.3     1  UNL1        0.1549
     38 O          -8.1484    3.7817   23.0919 O.3     1  UNL1       -0.3803
     39 H          -8.5948    4.3215   22.4209 H       1  UNL1        0.2105
@<TRIPOS>BOND
     1    23    24    1
     2    24    25    1
     3    24    22    1
     4    22    21    1
     5    21    20    1
     6    20    11    1
     7    11    12   ar
     8    12    13   ar
     9    13     1    1
    10     1     2   ar
    11     2     3   ar
    12     3     4   ar
    13     4     5   ar
    14     5     6   ar
    15     6     7   ar
    16     7    30    1
    17    30    31    2
    18    30    32   am
    19    32    34    1
    20    34    35    1
    21    34    36    1
    22    34    37    1
    23    37    38    1
    24     7     8   ar
    25     8     9   ar
    26    13    14   ar
    27    14    15   ar
    28    15    16   ar
    29    16    26    1
    30    26    27    1
    31    27    28    1
    32    27    29    1
    33    16    17   ar
    34    17    18   ar
    35    18    19   ar
    36    19    11   ar
    37     9     1   ar
    38    19    14   ar
    39     8     4    1
    40    32    33    1
    41    38    39    1
    42     9    10    1
@<TRIPOS>MOLECULE
*****
 39 42 0 0 0
SMALL
GASTEIGER

@<TRIPOS>ATOM
      1 C           0.3448    1.8137   19.9024 C.ar    1  UNL1        0.0957
      2 C           0.6536    2.3573   18.5390 C.ar    1  UNL1        0.1191
      3 N          -0.2776    3.3413   17.8952 N.ar    1  UNL1       -0.2223
      4 C          -1.5179    3.7817   18.6149 C.ar    1  UNL1        0.1784
      5 N          -2.6147    4.7317   18.2352 N.ar    1  UNL1       -0.2236
      6 C          -3.6016    4.7753   19.3640 C.ar    1  UNL1        0.1066
      7 C          -3.1146    3.8522   20.4413 C.ar    1  UNL1        0.0910
      8 C          -1.8268    3.2381   19.9783 C.ar    1  UNL1        0.0988
      9 N          -0.8955    2.2541   20.6221 N.ar    1  UNL1       -0.3481
     10 H          -1.0982    1.8973   21.5170 H       1  UNL1        0.1661
     11 N           2.8525   -0.9877   20.8662 N.ar    1  UNL1       -0.2508
     12 N           2.0554   -0.2394   19.8392 N.ar    1  UNL1       -0.1678
     13 C           1.2761    0.8297   20.5462 C.ar    1  UNL1        0.1194
     14 C           1.5916    0.7421   22.0101 C.ar    1  UNL1        0.0411
     15 C           1.1176    1.5399   23.1885 C.ar    1  UNL1        0.0402
     16 C           1.6178    1.2145   24.5646 C.ar    1  UNL1        0.1444
     17 C           2.5921    0.0913   24.7623 C.ar    1  UNL1        0.0386
     18 C           3.0661   -0.7066   23.5839 C.ar    1  UNL1        0.0219
     19 C           2.5658   -0.3812   22.2078 C.ar    1  UNL1        0.0796
     20 C           3.7744   -2.1403   20.5985 C.3     1  UNL1        0.1289
     21 C           3.6120   -2.9564   19.3504 C.3     1  UNL1        0.0437
     22 C           4.6416   -2.8762   18.2625 C.3     1  UNL1        0.0742
     23 C           3.8577   -0.8815   16.7940 C.3     1  UNL1        0.0897
     24 N           4.9268   -1.5634   17.5953 N.3     1  UNL1       -0.2703
     25 C           6.2810   -0.9325   17.7294 C.3     1  UNL1        0.0897
     26 O           1.1438    2.0124   25.7431 O.3     1  UNL1       -0.4236
     27 C           0.3100    1.3587   26.8049 C.3     1  UNL1        0.5087
     28 F          -1.1532    1.6721   26.9083 F       1  UNL1       -0.1550
     29 F           0.9395    0.3915   27.7633 F       1  UNL1       -0.1550
     30 C          -3.7958    3.5893   21.7517 C.2     1  UNL1        0.2488
     31 O          -4.7572    2.4451   21.8808 O.2     1  UNL1       -0.2700
     32 N          -3.5157    4.4705   22.9327 N.am    1  UNL1       -0.3015
     33 H          -2.8847    5.2215   22.8479 H       1  UNL1        0.1497
     34 C          -4.1970    4.2076   24.2429 C.3     1  UNL1        0.0841
     35 C          -3.0157    3.4015   24.6954 C.3     1  UNL1        0.0222
     36 C          -5.3783    5.0138   23.7905 C.3     1  UNL1        0.0222
     37 C          -4.8782    3.9447   25.5532 C.3     1  UNL1        0.1549
     38 O          -4.0830    3.9437   26.8251 O.3     1  UNL1       -0.3803
     39 H          -3.4582    3.2018   26.8152 H       1  UNL1        0.2105
@<TRIPOS>BOND
     1    23    24    1
     2    24    25    1
     3    24    22    1
     4    22    21    1
     5    21    20    1
     6    20    11    1
     7    11    12   ar
     8    12    13   ar
     9    13     1    1
    10     1     2   ar
    11     2     3   ar
    12     3     4   ar
    13     4     5   ar
    14     5     6   ar
    15     6     7   ar
    16     7    30    1
    17    30    31    2
    18    30    32   am
    19    32    34    1
    20    34    35    1
    21    34    36    1
    22    34    37    1
    23    37    38    1
    24     7     8   ar
    25     8     9   ar
    26    13    14   ar
    27    14    15   ar
    28    15    16   ar
    29    16    26    1
    30    26    27    1
    31    27    28    1
    32    27    29    1
    33    16    17   ar
    34    17    18   ar
    35    18    19   ar
    36    19    11   ar
    37     9     1   ar
    38    19    14   ar
    39     8     4    1
    40    32    33    1
    41    38    39    1
    42     9    10    1
@<TRIPOS>MOLECULE
*****
 39 42 0 0 0
SMALL
GASTEIGER

@<TRIPOS>ATOM
      1 C           4.4821   -1.4849   25.2384 C.ar    1  UNL1        0.0957
      2 C           4.9606   -1.7863   26.6276 C.ar    1  UNL1        0.1191
      3 N           6.0748   -2.7677   26.8408 N.ar    1  UNL1       -0.2223
      4 C           6.7105   -3.4478   25.6646 C.ar    1  UNL1        0.1784
      5 N           7.8192   -4.4532   25.5651 N.ar    1  UNL1       -0.2236
      6 C           8.0259   -4.7732   24.1144 C.ar    1  UNL1        0.1066
      7 C           7.0450   -3.9656   23.3172 C.ar    1  UNL1        0.0910
      8 C           6.2320   -3.1464   24.2753 C.ar    1  UNL1        0.0988
      9 N           5.1178   -2.1650   24.0621 N.ar    1  UNL1       -0.3481
     10 H           4.8038   -1.9672   23.1502 H       1  UNL1        0.1661
     11 N           1.6823    1.1970   25.4220 N.ar    1  UNL1       -0.2508
     12 N           2.7599    0.3813   26.0727 N.ar    1  UNL1       -0.1678
     13 C           3.3679   -0.5035   25.0252 C.ar    1  UNL1        0.1194
     14 C           2.6662   -0.2347   23.7270 C.ar    1  UNL1        0.0411
     15 C           2.8412   -0.8111   22.3533 C.ar    1  UNL1        0.0402
     16 C           1.9744   -0.3365   21.2248 C.ar    1  UNL1        0.1444
     17 C           0.9327    0.7145   21.4701 C.ar    1  UNL1        0.0386
     18 C           0.7577    1.2909   22.8438 C.ar    1  UNL1        0.0219
     19 C           1.6244    0.8163   23.9722 C.ar    1  UNL1        0.0796
     20 C           0.8150    2.2147   26.1016 C.3     1  UNL1        0.1289
     21 C          -0.6099    1.8839   26.4340 C.3     1  UNL1        0.0437
     22 C          -0.9781    1.4698   27.8279 C.3     1  UNL1        0.0742
     23 C           0.6393   -0.2045   28.9814 C.3     1  UNL1        0.0897
     24 N           0.0970    1.1864   28.8347 N.3     1  UNL1       -0.2703
     25 C           0.6299    2.2937   29.6949 C.3     1  UNL1        0.0897
     26 O           2.1494   -0.9129   19.8511 O.3     1  UNL1       -0.4236
     27 C           3.2608   -0.4257   18.9693 C.3     1  UNL1        0.5087
     28 F           3.1205   -0.4965   17.4776 F       1  UNL1       -0.1550
     29 F           4.5124    0.1323   19.5793 F       1  UNL1       -0.1550
     30 C           6.9022   -3.9754   21.8240 C.2     1  UNL1        0.2488
     31 O           7.6024   -5.0232   21.0105 O.2     1  UNL1       -0.2700
     32 N           6.0591   -2.9375   21.1443 N.am    1  UNL1       -0.3015
     33 H           5.5995   -2.2498   21.6783 H       1  UNL1        0.1497
     34 C           5.9163   -2.9474   19.6512 C.3     1  UNL1        0.0841
     35 C           4.6979   -3.8138   19.7735 C.3     1  UNL1        0.0222
     36 C           7.1346   -2.0809   19.5289 C.3     1  UNL1        0.0222
     37 C           5.7734   -2.9573   18.1580 C.3     1  UNL1        0.1549
     38 O           6.7878   -2.2574   17.3029 O.3     1  UNL1       -0.3803
     39 H           6.7424   -1.3019   17.4640 H       1  UNL1        0.2105
@<TRIPOS>BOND
     1    23    24    1
     2    24    25    1
     3    24    22    1
     4    22    21    1
     5    21    20    1
     6    20    11    1
     7    11    12   ar
     8    12    13   ar
     9    13     1    1
    10     1     2   ar
    11     2     3   ar
    12     3     4   ar
    13     4     5   ar
    14     5     6   ar
    15     6     7   ar
    16     7    30    1
    17    30    31    2
    18    30    32   am
    19    32    34    1
    20    34    35    1
    21    34    36    1
    22    34    37    1
    23    37    38    1
    24     7     8   ar
    25     8     9   ar
    26    13    14   ar
    27    14    15   ar
    28    15    16   ar
    29    16    26    1
    30    26    27    1
    31    27    28    1
    32    27    29    1
    33    16    17   ar
    34    17    18   ar
    35    18    19   ar
    36    19    11   ar
    37     9     1   ar
    38    19    14   ar
    39     8     4    1
    40    32    33    1
    41    38    39    1
    42     9    10    1
@<TRIPOS>MOLECULE
*****
 39 42 0 0 0
SMALL
GASTEIGER

@<TRIPOS>ATOM
      1 C           5.0001   -2.5570   24.1461 C.ar    1  UNL1        0.0957
      2 C           5.2362   -3.1898   22.8069 C.ar    1  UNL1        0.1191
      3 N           6.2500   -4.2861   22.6635 N.ar    1  UNL1       -0.2223
      4 C           7.0277   -4.7495   23.8594 C.ar    1  UNL1        0.1784
      5 N           8.0843   -5.8015   24.0235 N.ar    1  UNL1       -0.2236
      6 C           8.5013   -5.8189   25.4643 C.ar    1  UNL1        0.1066
      7 C           7.7024   -4.7776   26.1906 C.ar    1  UNL1        0.0910
      8 C           6.7917   -4.1167   25.1988 C.ar    1  UNL1        0.0988
      9 N           5.7779   -3.0205   25.3422 N.ar    1  UNL1       -0.3481
     10 H           5.6230   -2.6052   26.2212 H       1  UNL1        0.1661
     11 N           2.5623    0.2555   25.2472 N.ar    1  UNL1       -0.2508
     12 N           3.6105   -0.7690   25.5663 N.ar    1  UNL1       -0.1678
     13 C           3.9864   -1.4608   24.2895 C.ar    1  UNL1        0.1194
     14 C           3.1706   -0.8638   23.1813 C.ar    1  UNL1        0.0411
     15 C           3.1155   -1.1491   21.7097 C.ar    1  UNL1        0.0402
     16 C           2.1803   -0.3736   20.8300 C.ar    1  UNL1        0.1444
     17 C           1.3001    0.6871   21.4219 C.ar    1  UNL1        0.0386
     18 C           1.3552    0.9723   22.8934 C.ar    1  UNL1        0.0219
     19 C           2.2905    0.1969   23.7732 C.ar    1  UNL1        0.0796
     20 C           1.9020    1.1768   26.2295 C.3     1  UNL1        0.1289
     21 C           0.4068    1.2949   26.2589 C.3     1  UNL1        0.0437
     22 C          -0.2906    1.6748   27.5314 C.3     1  UNL1        0.0742
     23 C           0.8228    0.9419   29.7614 C.3     1  UNL1        0.0897
     24 N          -0.2386    0.7581   28.7176 N.3     1  UNL1       -0.2703
     25 C          -1.2479   -0.3424   28.8599 C.3     1  UNL1        0.0897
     26 O           2.1251   -0.6588   19.3584 O.3     1  UNL1       -0.4236
     27 C           3.3916   -0.7088   18.5561 C.3     1  UNL1        0.5087
     28 F           3.9275   -2.0270   18.0818 F       1  UNL1       -0.1550
     29 F           4.1222    0.5596   18.2283 F       1  UNL1       -0.1550
     30 C           7.7976   -4.4541   27.6523 C.2     1  UNL1        0.2488
     31 O           9.0705   -3.8950   28.2153 O.2     1  UNL1       -0.2700
     32 N           6.6198   -4.6895   28.5508 N.am    1  UNL1       -0.3015
     33 H           5.7843   -5.0564   28.1812 H       1  UNL1        0.1497
     34 C           6.7150   -4.3660   30.0123 C.3     1  UNL1        0.0841
     35 C           7.0896   -5.7891   30.3030 C.3     1  UNL1        0.0222
     36 C           6.3404   -2.9428   29.7217 C.3     1  UNL1        0.0222
     37 C           6.8102   -4.0425   31.4740 C.3     1  UNL1        0.1549
     38 O           6.3365   -5.0348   32.4942 O.3     1  UNL1       -0.3803
     39 H           5.3762   -5.1467   32.4149 H       1  UNL1        0.2105
@<TRIPOS>BOND
     1    23    24    1
     2    24    25    1
     3    24    22    1
     4    22    21    1
     5    21    20    1
     6    20    11    1
     7    11    12   ar
     8    12    13   ar
     9    13     1    1
    10     1     2   ar
    11     2     3   ar
    12     3     4   ar
    13     4     5   ar
    14     5     6   ar
    15     6     7   ar
    16     7    30    1
    17    30    31    2
    18    30    32   am
    19    32    34    1
    20    34    35    1
    21    34    36    1
    22    34    37    1
    23    37    38    1
    24     7     8   ar
    25     8     9   ar
    26    13    14   ar
    27    14    15   ar
    28    15    16   ar
    29    16    26    1
    30    26    27    1
    31    27    28    1
    32    27    29    1
    33    16    17   ar
    34    17    18   ar
    35    18    19   ar
    36    19    11   ar
    37     9     1   ar
    38    19    14   ar
    39     8     4    1
    40    32    33    1
    41    38    39    1
    42     9    10    1
@<TRIPOS>MOLECULE
*****
 39 42 0 0 0
SMALL
GASTEIGER

@<TRIPOS>ATOM
      1 C           5.8767   -3.5841   23.4250 C.ar    1  UNL1        0.0957
      2 C           6.7216   -4.2325   22.3689 C.ar    1  UNL1        0.1191
      3 N           7.8111   -5.1862   22.7608 N.ar    1  UNL1       -0.2223
      4 C           8.0557   -5.4914   24.2089 C.ar    1  UNL1        0.1784
      5 N           9.0493   -6.3830   24.8928 N.ar    1  UNL1       -0.2236
      6 C           8.8185   -6.2856   26.3717 C.ar    1  UNL1        0.1066
      7 C           7.6822   -5.3338   26.6018 C.ar    1  UNL1        0.0910
      8 C           7.2108   -4.8430   25.2651 C.ar    1  UNL1        0.0988
      9 N           6.1213   -3.8893   24.8732 N.ar    1  UNL1       -0.3481
     10 H           5.5667   -3.4638   25.5665 H       1  UNL1        0.1661
     11 N           3.1113   -1.4474   21.7362 N.ar    1  UNL1       -0.2508
     12 N           4.1479   -2.5301   21.6800 N.ar    1  UNL1       -0.1678
     13 C           4.7872   -2.6305   23.0332 C.ar    1  UNL1        0.1194
     14 C           4.1457   -1.6098   23.9258 C.ar    1  UNL1        0.0411
     15 C           4.3710   -1.2517   25.3649 C.ar    1  UNL1        0.0402
     16 C           3.5604   -0.1624   26.0024 C.ar    1  UNL1        0.1444
     17 C           2.5247    0.5688   25.2008 C.ar    1  UNL1        0.0386
     18 C           2.2994    0.2107   23.7617 C.ar    1  UNL1        0.0219
     19 C           3.1100   -0.8786   23.1242 C.ar    1  UNL1        0.0796
     20 C           2.2306   -1.0102   20.6034 C.3     1  UNL1        0.1289
     21 C           2.2904    0.4052   20.1100 C.3     1  UNL1        0.0437
     22 C           2.8040    0.6978   18.7314 C.3     1  UNL1        0.0742
     23 C           3.7933   -0.8699   16.9112 C.3     1  UNL1        0.0897
     24 N           3.9578   -0.0854   18.1790 N.3     1  UNL1       -0.2703
     25 C           5.2762   -0.0841   18.8945 C.3     1  UNL1        0.0897
     26 O           3.7856    0.1957   27.4415 O.3     1  UNL1       -0.4236
     27 C           3.7529   -0.8724   28.4942 C.3     1  UNL1        0.5087
     28 F           4.9153   -1.8075   28.6503 F       1  UNL1       -0.1550
     29 F           2.5576   -1.0055   29.3907 F       1  UNL1       -0.1550
     30 C           7.1166   -4.9417   27.9347 C.2     1  UNL1        0.2488
     31 O           5.6461   -4.6833   28.0787 O.2     1  UNL1       -0.2700
     32 N           8.0215   -4.8081   29.1234 N.am    1  UNL1       -0.3015
     33 H           8.9867   -4.9777   29.0289 H       1  UNL1        0.1497
     34 C           7.4559   -4.4160   30.4562 C.3     1  UNL1        0.0841
     35 C           7.2038   -5.8601   30.7740 C.3     1  UNL1        0.0222
     36 C           7.7080   -2.9719   30.1384 C.3     1  UNL1        0.0222
     37 C           6.8903   -4.0240   31.7891 C.3     1  UNL1        0.1549
     38 O           6.2522   -5.0595   32.6669 O.3     1  UNL1       -0.3803
     39 H           5.4472   -5.3931   32.2407 H       1  UNL1        0.2105
@<TRIPOS>BOND
     1    23    24    1
     2    24    25    1
     3    24    22    1
     4    22    21    1
     5    21    20    1
     6    20    11    1
     7    11    12   ar
     8    12    13   ar
     9    13     1    1
    10     1     2   ar
    11     2     3   ar
    12     3     4   ar
    13     4     5   ar
    14     5     6   ar
    15     6     7   ar
    16     7    30    1
    17    30    31    2
    18    30    32   am
    19    32    34    1
    20    34    35    1
    21    34    36    1
    22    34    37    1
    23    37    38    1
    24     7     8   ar
    25     8     9   ar
    26    13    14   ar
    27    14    15   ar
    28    15    16   ar
    29    16    26    1
    30    26    27    1
    31    27    28    1
    32    27    29    1
    33    16    17   ar
    34    17    18   ar
    35    18    19   ar
    36    19    11   ar
    37     9     1   ar
    38    19    14   ar
    39     8     4    1
    40    32    33    1
    41    38    39    1
    42     9    10    1
@<TRIPOS>MOLECULE
*****
 39 42 0 0 0
SMALL
GASTEIGER

@<TRIPOS>ATOM
      1 C           5.2373   -2.8174   24.3117 C.ar    1  UNL1        0.0957
      2 C           6.3560   -3.7897   24.5416 C.ar    1  UNL1        0.1191
      3 N           6.9549   -3.9343   25.9093 N.ar    1  UNL1       -0.2223
      4 C           6.4351   -3.1065   27.0470 C.ar    1  UNL1        0.1784
      5 N           6.8242   -3.0318   28.4937 N.ar    1  UNL1       -0.2236
      6 C           5.9460   -2.0132   29.1580 C.ar    1  UNL1        0.1066
      7 C           5.0141   -1.4584   28.1217 C.ar    1  UNL1        0.0910
      8 C           5.3164   -2.1341   26.8171 C.ar    1  UNL1        0.0988
      9 N           4.7174   -1.9895   25.4495 N.ar    1  UNL1       -0.3481
     10 H           3.9832   -1.3513   25.2986 H       1  UNL1        0.1661
     11 N           4.0617   -3.0797   20.6219 N.ar    1  UNL1       -0.2508
     12 N           4.8446   -3.6062   21.7881 N.ar    1  UNL1       -0.1678
     13 C           4.6384   -2.6728   22.9441 C.ar    1  UNL1        0.1194
     14 C           3.7282   -1.5694   22.4923 C.ar    1  UNL1        0.0411
     15 C           3.1779   -0.3682   23.2024 C.ar    1  UNL1        0.0402
     16 C           2.2712    0.5815   22.4773 C.ar    1  UNL1        0.1444
     17 C           1.9147    0.3300   21.0421 C.ar    1  UNL1        0.0386
     18 C           2.4651   -0.8712   20.3320 C.ar    1  UNL1        0.0219
     19 C           3.3718   -1.8209   21.0571 C.ar    1  UNL1        0.0796
     20 C           3.9827   -3.7026   19.2597 C.3     1  UNL1        0.1289
     21 C           5.0352   -3.4001   18.2345 C.3     1  UNL1        0.0437
     22 C           5.7765   -2.0970   18.2825 C.3     1  UNL1        0.0742
     23 C           3.9434   -0.8839   16.8976 C.3     1  UNL1        0.0897
     24 N           5.3557   -0.9618   17.3969 N.3     1  UNL1       -0.2703
     25 C           6.3472    0.0954   17.0105 C.3     1  UNL1        0.0897
     26 O           1.7208    1.7828   23.1874 O.3     1  UNL1       -0.4236
     27 C           0.2372    1.9681   23.3082 C.3     1  UNL1        0.5087
     28 F          -0.4393    1.7602   24.6307 F       1  UNL1       -0.1550
     29 F          -0.5699    2.3614   22.1065 F       1  UNL1       -0.1550
     30 C           3.9642   -0.4117   28.3501 C.2     1  UNL1        0.2488
     31 O           4.2785    0.7971   29.1808 O.2     1  UNL1       -0.2700
     32 N           2.6000   -0.5737   27.7478 N.am    1  UNL1       -0.3015
     33 H           2.3937   -1.3670   27.2025 H       1  UNL1        0.1497
     34 C           1.5502    0.4730   27.9761 C.3     1  UNL1        0.0841
     35 C           1.0930   -0.2539   29.2059 C.3     1  UNL1        0.0222
     36 C           2.0075    1.2000   26.7463 C.3     1  UNL1        0.0222
     37 C           0.5003    1.5198   28.2046 C.3     1  UNL1        0.1549
     38 O           0.4179    2.2233   29.5268 O.3     1  UNL1       -0.3803
     39 H           0.1668    1.5884   30.2158 H       1  UNL1        0.2105
@<TRIPOS>BOND
     1    23    24    1
     2    24    25    1
     3    24    22    1
     4    22    21    1
     5    21    20    1
     6    20    11    1
     7    11    12   ar
     8    12    13   ar
     9    13     1    1
    10     1     2   ar
    11     2     3   ar
    12     3     4   ar
    13     4     5   ar
    14     5     6   ar
    15     6     7   ar
    16     7    30    1
    17    30    31    2
    18    30    32   am
    19    32    34    1
    20    34    35    1
    21    34    36    1
    22    34    37    1
    23    37    38    1
    24     7     8   ar
    25     8     9   ar
    26    13    14   ar
    27    14    15   ar
    28    15    16   ar
    29    16    26    1
    30    26    27    1
    31    27    28    1
    32    27    29    1
    33    16    17   ar
    34    17    18   ar
    35    18    19   ar
    36    19    11   ar
    37     9     1   ar
    38    19    14   ar
    39     8     4    1
    40    32    33    1
    41    38    39    1
    42     9    10    1
