@<TRIPOS>MOLECULE
*****
 27 29 0 0 0
SMALL
GASTEIGER

@<TRIPOS>ATOM
      1 C          -7.1822  -15.4075   24.2123 C.ar    1  UNL1        0.0186
      2 C          -8.2078  -15.2196   25.2908 C.ar    1  UNL1        0.0105
      3 C          -7.8000  -15.2842   26.7329 C.ar    1  UNL1        0.0576
      4 CL         -8.8256  -15.0964   27.8113 Cl      1  UNL1       -0.0823
      5 C          -6.3669  -15.5367   27.0965 C.ar    1  UNL1        0.0145
      6 C          -5.3414  -15.7246   26.0181 C.ar    1  UNL1        0.0375
      7 C          -5.7490  -15.6599   24.5760 C.ar    1  UNL1        0.1354
      8 C          -7.5899  -15.3428   22.7703 C.3     1  UNL1        0.0751
      9 CA        -10.5724  -17.3235   21.0581 C.ar    1  UNL1        0.0948
     10 C          -9.9782  -18.6969   20.9547 C.ar    1  UNL1        0.0203
     11 C          -8.5879  -18.9523   21.4565 C.ar    1  UNL1        0.0028
     12 C          -7.7918  -17.8343   22.0617 C.ar    1  UNL1        0.0151
     13 C          -8.3860  -16.4609   22.1651 C.ar    1  UNL1        0.0635
     14 N          -9.7763  -16.2055   21.6633 N.ar    1  UNL1       -0.2482
     15 O         -12.1902  -16.0890   19.4430 O.co2   1  UNL1       -0.5430
     16 C         -11.9627  -17.0682   20.5563 C.2     1  UNL1        0.0905
     17 OXT       -13.1255  -17.7919   21.1677 O.co2   1  UNL1       -0.5430
     18 O          -4.7235  -15.8478   23.4976 O.3     1  UNL1       -0.4709
     19 C          -3.9575  -17.1342   23.4069 C.3     1  UNL1        0.2328
     20 C          -3.0458  -17.3837   22.2422 C.ar    1  UNL1        0.0319
     21 C          -2.0691  -16.3286   21.8148 C.ar    1  UNL1        0.0025
     22 C          -1.1573  -16.5781   20.6501 C.ar    1  UNL1        0.0295
     23 C          -1.2223  -17.8828   19.9129 C.ar    1  UNL1        0.1410
     24 F          -0.3105  -18.1323   18.7482 F       1  UNL1       -0.2041
     25 C          -2.1989  -18.9379   20.3403 C.ar    1  UNL1        0.0408
     26 C          -3.1107  -18.6884   21.5050 C.ar    1  UNL1        0.0594
     27 CL         -4.0874  -19.7436   21.9324 Cl      1  UNL1       -0.0824
@<TRIPOS>UNITY_ATOM_ATTR
17 1
charge -1
@<TRIPOS>BOND
     1    15    16   ar
     2    16    17   ar
     3    16     9    1
     4     9    10   ar
     5    10    11   ar
     6    11    12   ar
     7    12    13   ar
     8    13     8    1
     9     8     1    1
    10     1     2   ar
    11     2     3   ar
    12     3     4    1
    13     3     5   ar
    14     5     6   ar
    15     6     7   ar
    16     7    18    1
    17    18    19    1
    18    19    20    1
    19    20    21   ar
    20    21    22   ar
    21    22    23   ar
    22    23    24    1
    23    23    25   ar
    24    25    26   ar
    25    26    27    1
    26    13    14   ar
    27    14     9   ar
    28     7     1   ar
    29    26    20   ar
@<TRIPOS>MOLECULE
*****
 27 29 0 0 0
SMALL
GASTEIGER

@<TRIPOS>ATOM
      1 C          -8.4882  -17.6431   23.4437 C.ar    1  UNL1        0.0186
      2 C          -8.1527  -16.4733   24.3206 C.ar    1  UNL1        0.0105
      3 C          -8.5954  -16.4589   25.7538 C.ar    1  UNL1        0.0576
      4 CL         -8.2599  -15.2891   26.6306 Cl      1  UNL1       -0.0823
      5 C          -9.3735  -17.6144   26.3100 C.ar    1  UNL1        0.0145
      6 C          -9.7089  -18.7842   25.4331 C.ar    1  UNL1        0.0375
      7 C          -9.2663  -18.7986   24.0000 C.ar    1  UNL1        0.1354
      8 C          -8.0456  -17.6575   22.0106 C.3     1  UNL1        0.0751
      9 CA         -4.4596  -19.3073   21.5995 C.ar    1  UNL1        0.0948
     10 C          -4.7795  -20.4584   20.6925 C.ar    1  UNL1        0.0203
     11 C          -6.1880  -20.6759   20.2249 C.ar    1  UNL1        0.0028
     12 C          -7.2767  -19.7423   20.6642 C.ar    1  UNL1        0.0151
     13 C          -6.9569  -18.5912   21.5712 C.ar    1  UNL1        0.0635
     14 N          -5.5483  -18.3737   22.0388 N.ar    1  UNL1       -0.2482
     15 O          -2.7209  -17.9069   22.9283 O.co2   1  UNL1       -0.5430
     16 C          -3.0510  -19.0898   22.0671 C.2     1  UNL1        0.0905
     17 OXT        -1.9726  -20.0552   21.6735 O.co2   1  UNL1       -0.5430
     18 O          -9.6018  -19.9685   23.1232 O.3     1  UNL1       -0.4709
     19 C         -10.8959  -19.9908   22.3650 C.3     1  UNL1        0.2328
     20 C         -11.3062  -18.8026   21.5465 C.ar    1  UNL1        0.0319
     21 C         -10.7892  -18.6408   20.1478 C.ar    1  UNL1        0.0025
     22 C         -11.1995  -17.4527   19.3293 C.ar    1  UNL1        0.0295
     23 C         -12.1268  -16.4263   19.9095 C.ar    1  UNL1        0.1410
     24 F         -12.5371  -15.2382   19.0910 F       1  UNL1       -0.2041
     25 C         -12.6438  -16.5881   21.3082 C.ar    1  UNL1        0.0408
     26 C         -12.2335  -17.7763   22.1267 C.ar    1  UNL1        0.0594
     27 CL        -12.7505  -17.9381   23.5255 Cl      1  UNL1       -0.0824
@<TRIPOS>UNITY_ATOM_ATTR
17 1
charge -1
@<TRIPOS>BOND
     1    15    16   ar
     2    16    17   ar
     3    16     9    1
     4     9    10   ar
     5    10    11   ar
     6    11    12   ar
     7    12    13   ar
     8    13     8    1
     9     8     1    1
    10     1     2   ar
    11     2     3   ar
    12     3     4    1
    13     3     5   ar
    14     5     6   ar
    15     6     7   ar
    16     7    18    1
    17    18    19    1
    18    19    20    1
    19    20    21   ar
    20    21    22   ar
    21    22    23   ar
    22    23    24    1
    23    23    25   ar
    24    25    26   ar
    25    26    27    1
    26    13    14   ar
    27    14     9   ar
    28     7     1   ar
    29    26    20   ar
@<TRIPOS>MOLECULE
*****
 27 29 0 0 0
SMALL
GASTEIGER

@<TRIPOS>ATOM
      1 C          -7.3059  -15.7322   24.2780 C.ar    1  UNL1        0.0186
      2 C          -8.2797  -15.4803   25.3907 C.ar    1  UNL1        0.0105
      3 C          -7.7788  -15.2003   26.7767 C.ar    1  UNL1        0.0576
      4 CL         -8.7526  -14.9484   27.8895 Cl      1  UNL1       -0.0823
      5 C          -6.3042  -15.1722   27.0498 C.ar    1  UNL1        0.0145
      6 C          -5.3304  -15.4241   25.9370 C.ar    1  UNL1        0.0375
      7 C          -5.8312  -15.7041   24.5512 C.ar    1  UNL1        0.1354
      8 C          -7.8067  -16.0122   22.8921 C.3     1  UNL1        0.0751
      9 CA        -11.1792  -18.0435   22.3915 C.ar    1  UNL1        0.0948
     10 C         -10.6462  -19.4284   22.1731 C.ar    1  UNL1        0.0203
     11 C          -9.1667  -19.6747   22.1944 C.ar    1  UNL1        0.0028
     12 C          -8.2202  -18.5360   22.4340 C.ar    1  UNL1        0.0151
     13 C          -8.7532  -17.1510   22.6524 C.ar    1  UNL1        0.0635
     14 N         -10.2327  -16.9048   22.6312 N.ar    1  UNL1       -0.2482
     15 O         -13.4404  -17.8149   23.6503 O.co2   1  UNL1       -0.5430
     16 C         -12.6587  -17.7972   22.3703 C.2     1  UNL1        0.0905
     17 OXT       -13.3565  -17.5333   21.0690 O.co2   1  UNL1       -0.5430
     18 O          -4.8574  -15.9560   23.4384 O.3     1  UNL1       -0.4709
     19 C          -3.9374  -17.1391   23.5003 C.3     1  UNL1        0.2328
     20 C          -3.8682  -18.0965   22.3477 C.ar    1  UNL1        0.0319
     21 C          -4.8259  -19.2483   22.2708 C.ar    1  UNL1        0.0025
     22 C          -4.7567  -20.2057   21.1182 C.ar    1  UNL1        0.0295
     23 C          -3.7297  -20.0113   20.0424 C.ar    1  UNL1        0.1410
     24 F          -3.6604  -20.9687   18.8897 F       1  UNL1       -0.2041
     25 C          -2.7719  -18.8594   20.1192 C.ar    1  UNL1        0.0408
     26 C          -2.8412  -17.9020   21.2719 C.ar    1  UNL1        0.0594
     27 CL         -1.8833  -16.7502   21.3487 Cl      1  UNL1       -0.0824
@<TRIPOS>UNITY_ATOM_ATTR
17 1
charge -1
@<TRIPOS>BOND
     1    15    16   ar
     2    16    17   ar
     3    16     9    1
     4     9    10   ar
     5    10    11   ar
     6    11    12   ar
     7    12    13   ar
     8    13     8    1
     9     8     1    1
    10     1     2   ar
    11     2     3   ar
    12     3     4    1
    13     3     5   ar
    14     5     6   ar
    15     6     7   ar
    16     7    18    1
    17    18    19    1
    18    19    20    1
    19    20    21   ar
    20    21    22   ar
    21    22    23   ar
    22    23    24    1
    23    23    25   ar
    24    25    26   ar
    25    26    27    1
    26    13    14   ar
    27    14     9   ar
    28     7     1   ar
    29    26    20   ar
@<TRIPOS>MOLECULE
*****
 27 29 0 0 0
SMALL
GASTEIGER

@<TRIPOS>ATOM
      1 C          -7.3664  -15.4962   24.2300 C.ar    1  UNL1        0.0186
      2 C          -8.3233  -15.2365   25.3556 C.ar    1  UNL1        0.0105
      3 C          -7.8261  -15.2052   26.7705 C.ar    1  UNL1        0.0576
      4 CL         -8.7829  -14.9455   27.8962 Cl      1  UNL1       -0.0823
      5 C          -6.3721  -15.4336   27.0598 C.ar    1  UNL1        0.0145
      6 C          -5.4152  -15.6933   25.9342 C.ar    1  UNL1        0.0375
      7 C          -5.9124  -15.7246   24.5193 C.ar    1  UNL1        0.1354
      8 C          -7.8636  -15.5275   22.8152 C.3     1  UNL1        0.0751
      9 CA         -8.6204  -18.8669   20.8088 C.ar    1  UNL1        0.0948
     10 C         -10.0178  -19.1624   21.2671 C.ar    1  UNL1        0.0203
     11 C         -10.6970  -18.2463   22.2414 C.ar    1  UNL1        0.0028
     12 C          -9.9790  -17.0347   22.7574 C.ar    1  UNL1        0.0151
     13 C          -8.5817  -16.7392   22.2991 C.ar    1  UNL1        0.0635
     14 N          -7.9024  -17.6553   21.3248 N.ar    1  UNL1       -0.2482
     15 O          -6.5079  -20.1722   20.0450 O.co2   1  UNL1       -0.5430
     16 C          -7.9411  -19.7830   19.8344 C.2     1  UNL1        0.0905
     17 OXT        -8.6950  -20.3099   18.6496 O.co2   1  UNL1       -0.5430
     18 O          -4.9555  -15.9843   23.3937 O.3     1  UNL1       -0.4709
     19 C          -4.0731  -17.1969   23.4241 C.3     1  UNL1        0.2328
     20 C          -3.0533  -17.4096   22.3449 C.ar    1  UNL1        0.0319
     21 C          -2.1845  -16.2710   21.8990 C.ar    1  UNL1        0.0025
     22 C          -1.1647  -16.4838   20.8198 C.ar    1  UNL1        0.0295
     23 C          -1.0137  -17.8350   20.1864 C.ar    1  UNL1        0.1410
     24 F           0.0061  -18.0477   19.1071 F       1  UNL1       -0.2041
     25 C          -1.8825  -18.9736   20.6322 C.ar    1  UNL1        0.0408
     26 C          -2.9023  -18.7608   21.7115 C.ar    1  UNL1        0.0594
     27 CL         -3.7711  -19.8995   22.1573 Cl      1  UNL1       -0.0824
@<TRIPOS>UNITY_ATOM_ATTR
17 1
charge -1
@<TRIPOS>BOND
     1    15    16   ar
     2    16    17   ar
     3    16     9    1
     4     9    10   ar
     5    10    11   ar
     6    11    12   ar
     7    12    13   ar
     8    13     8    1
     9     8     1    1
    10     1     2   ar
    11     2     3   ar
    12     3     4    1
    13     3     5   ar
    14     5     6   ar
    15     6     7   ar
    16     7    18    1
    17    18    19    1
    18    19    20    1
    19    20    21   ar
    20    21    22   ar
    21    22    23   ar
    22    23    24    1
    23    23    25   ar
    24    25    26   ar
    25    26    27    1
    26    13    14   ar
    27    14     9   ar
    28     7     1   ar
    29    26    20   ar
@<TRIPOS>MOLECULE
*****
 27 29 0 0 0
SMALL
GASTEIGER

@<TRIPOS>ATOM
      1 C          -7.1477  -15.5667   24.0216 C.ar    1  UNL1        0.0186
      2 C          -8.1161  -15.2717   25.1285 C.ar    1  UNL1        0.0105
      3 C          -7.6493  -15.2748   26.5541 C.ar    1  UNL1        0.0576
      4 CL         -8.6177  -14.9798   27.6609 Cl      1  UNL1       -0.0823
      5 C          -6.2142  -15.5729   26.8727 C.ar    1  UNL1        0.0145
      6 C          -5.2458  -15.8679   25.7658 C.ar    1  UNL1        0.0375
      7 C          -5.7125  -15.8648   24.3403 C.ar    1  UNL1        0.1354
      8 C          -7.6144  -15.5635   22.5961 C.3     1  UNL1        0.0751
      9 CA        -10.5911  -18.1844   22.4532 C.ar    1  UNL1        0.0948
     10 C         -11.5290  -17.4967   21.5060 C.ar    1  UNL1        0.0203
     11 C         -11.1621  -16.1646   20.9221 C.ar    1  UNL1        0.0028
     12 C          -9.8573  -15.5202   21.2855 C.ar    1  UNL1        0.0151
     13 C          -8.9193  -16.2079   22.2327 C.ar    1  UNL1        0.0635
     14 N          -9.2862  -17.5400   22.8166 N.ar    1  UNL1       -0.2482
     15 O         -11.1529  -20.7014   22.1382 O.co2   1  UNL1       -0.5430
     16 C         -10.9580  -19.5165   23.0371 C.2     1  UNL1        0.0905
     17 OXT       -11.1299  -19.6638   24.5199 O.co2   1  UNL1       -0.5430
     18 O          -4.7441  -16.1597   23.2334 O.3     1  UNL1       -0.4709
     19 C          -4.0764  -17.5008   23.1586 C.3     1  UNL1        0.2328
     20 C          -4.6370  -18.5690   22.2671 C.ar    1  UNL1        0.0319
     21 C          -6.1020  -18.8885   22.3092 C.ar    1  UNL1        0.0025
     22 C          -6.6625  -19.9567   21.4177 C.ar    1  UNL1        0.0295
     23 C          -5.7582  -20.7055   20.4842 C.ar    1  UNL1        0.1410
     24 F          -6.3188  -21.7737   19.5928 F       1  UNL1       -0.2041
     25 C          -4.2932  -20.3860   20.4422 C.ar    1  UNL1        0.0408
     26 C          -3.7327  -19.3178   21.3336 C.ar    1  UNL1        0.0594
     27 CL         -2.2676  -18.9983   21.2915 Cl      1  UNL1       -0.0824
@<TRIPOS>UNITY_ATOM_ATTR
17 1
charge -1
@<TRIPOS>BOND
     1    15    16   ar
     2    16    17   ar
     3    16     9    1
     4     9    10   ar
     5    10    11   ar
     6    11    12   ar
     7    12    13   ar
     8    13     8    1
     9     8     1    1
    10     1     2   ar
    11     2     3   ar
    12     3     4    1
    13     3     5   ar
    14     5     6   ar
    15     6     7   ar
    16     7    18    1
    17    18    19    1
    18    19    20    1
    19    20    21   ar
    20    21    22   ar
    21    22    23   ar
    22    23    24    1
    23    23    25   ar
    24    25    26   ar
    25    26    27    1
    26    13    14   ar
    27    14     9   ar
    28     7     1   ar
    29    26    20   ar
@<TRIPOS>MOLECULE
*****
 27 29 0 0 0
SMALL
GASTEIGER

@<TRIPOS>ATOM
      1 C          -7.4200  -15.6428   24.1138 C.ar    1  UNL1        0.0186
      2 C          -8.3551  -15.3490   25.2493 C.ar    1  UNL1        0.0105
      3 C          -7.8211  -15.2127   26.6444 C.ar    1  UNL1        0.0576
      4 CL         -8.7561  -14.9189   27.7799 Cl      1  UNL1       -0.0823
      5 C          -6.3522  -15.3703   26.9040 C.ar    1  UNL1        0.0145
      6 C          -5.4172  -15.6641   25.7685 C.ar    1  UNL1        0.0375
      7 C          -5.9511  -15.8004   24.3734 C.ar    1  UNL1        0.1354
      8 C          -7.9539  -15.7791   22.7186 C.3     1  UNL1        0.0751
      9 CA        -11.4340  -17.6131   23.2438 C.ar    1  UNL1        0.0948
     10 C         -12.1999  -17.1136   22.0548 C.ar    1  UNL1        0.0203
     11 C         -11.5505  -16.1692   21.0870 C.ar    1  UNL1        0.0028
     12 C         -10.1352  -15.7244   21.3083 C.ar    1  UNL1        0.0151
     13 C          -9.3693  -16.2239   22.4973 C.ar    1  UNL1        0.0635
     14 N         -10.0187  -17.1683   23.4651 N.ar    1  UNL1       -0.2482
     15 O         -13.5347  -18.3985   24.5552 O.co2   1  UNL1       -0.5430
     16 C         -12.0833  -18.5575   24.2115 C.2     1  UNL1        0.0905
     17 OXT       -11.2813  -19.6608   24.8355 O.co2   1  UNL1       -0.5430
     18 O          -5.0160  -16.0942   23.2379 O.3     1  UNL1       -0.4709
     19 C          -3.9635  -17.1524   23.3876 C.3     1  UNL1        0.2328
     20 C          -2.9749  -17.3884   22.2844 C.ar    1  UNL1        0.0319
     21 C          -2.0854  -16.2722   21.8230 C.ar    1  UNL1        0.0025
     22 C          -1.0969  -16.5082   20.7198 C.ar    1  UNL1        0.0295
     23 C          -0.9978  -17.8603   20.0781 C.ar    1  UNL1        0.1410
     24 F          -0.0092  -18.0963   18.9749 F       1  UNL1       -0.2041
     25 C          -1.8873  -18.9765   20.5395 C.ar    1  UNL1        0.0408
     26 C          -2.8759  -18.7405   21.6427 C.ar    1  UNL1        0.0594
     27 CL         -3.7654  -19.8567   22.1041 Cl      1  UNL1       -0.0824
@<TRIPOS>UNITY_ATOM_ATTR
17 1
charge -1
@<TRIPOS>BOND
     1    15    16   ar
     2    16    17   ar
     3    16     9    1
     4     9    10   ar
     5    10    11   ar
     6    11    12   ar
     7    12    13   ar
     8    13     8    1
     9     8     1    1
    10     1     2   ar
    11     2     3   ar
    12     3     4    1
    13     3     5   ar
    14     5     6   ar
    15     6     7   ar
    16     7    18    1
    17    18    19    1
    18    19    20    1
    19    20    21   ar
    20    21    22   ar
    21    22    23   ar
    22    23    24    1
    23    23    25   ar
    24    25    26   ar
    25    26    27    1
    26    13    14   ar
    27    14     9   ar
    28     7     1   ar
    29    26    20   ar
@<TRIPOS>MOLECULE
*****
 27 29 0 0 0
SMALL
GASTEIGER

@<TRIPOS>ATOM
      1 C          -7.6591  -18.2365   22.6590 C.ar    1  UNL1        0.0186
      2 C          -7.0760  -16.9121   23.0537 C.ar    1  UNL1        0.0105
      3 C          -7.6980  -16.1201   24.1655 C.ar    1  UNL1        0.0576
      4 CL         -7.1149  -14.7957   24.5603 Cl      1  UNL1       -0.0823
      5 C          -8.9032  -16.6526   24.8825 C.ar    1  UNL1        0.0145
      6 C          -9.4863  -17.9771   24.4877 C.ar    1  UNL1        0.0375
      7 C          -8.8643  -18.7690   23.3760 C.ar    1  UNL1        0.1354
      8 C          -7.0371  -19.0284   21.5472 C.3     1  UNL1        0.0751
      9 CA         -3.3884  -18.4773   20.0867 C.ar    1  UNL1        0.0948
     10 C          -2.5597  -19.1774   21.1225 C.ar    1  UNL1        0.0203
     11 C          -3.2235  -19.8278   22.3000 C.ar    1  UNL1        0.0028
     12 C          -4.7159  -19.7782   22.4416 C.ar    1  UNL1        0.0151
     13 C          -5.5446  -19.0781   21.4057 C.ar    1  UNL1        0.0635
     14 N          -4.8809  -18.4276   20.2283 N.ar    1  UNL1       -0.2482
     15 O          -1.3756  -18.2985   18.4538 O.co2   1  UNL1       -0.5430
     16 C          -2.7247  -17.8269   18.9092 C.2     1  UNL1        0.0905
     17 OXT        -3.4100  -16.7049   18.1872 O.co2   1  UNL1       -0.5430
     18 O          -9.4475  -20.0934   22.9812 O.3     1  UNL1       -0.4709
     19 C         -10.7279  -20.1467   22.2018 C.3     1  UNL1        0.2328
     20 C         -11.2163  -18.9274   21.4773 C.ar    1  UNL1        0.0319
     21 C         -12.1728  -17.9881   22.1501 C.ar    1  UNL1        0.0025
     22 C         -12.6612  -16.7688   21.4256 C.ar    1  UNL1        0.0295
     23 C         -12.1930  -16.4889   20.0283 C.ar    1  UNL1        0.1410
     24 F         -12.6814  -15.2696   19.3039 F       1  UNL1       -0.2041
     25 C         -11.2365  -17.4282   19.3556 C.ar    1  UNL1        0.0408
     26 C         -10.7481  -18.6475   20.0800 C.ar    1  UNL1        0.0594
     27 CL         -9.7916  -19.5868   19.4072 Cl      1  UNL1       -0.0824
@<TRIPOS>UNITY_ATOM_ATTR
17 1
charge -1
@<TRIPOS>BOND
     1    15    16   ar
     2    16    17   ar
     3    16     9    1
     4     9    10   ar
     5    10    11   ar
     6    11    12   ar
     7    12    13   ar
     8    13     8    1
     9     8     1    1
    10     1     2   ar
    11     2     3   ar
    12     3     4    1
    13     3     5   ar
    14     5     6   ar
    15     6     7   ar
    16     7    18    1
    17    18    19    1
    18    19    20    1
    19    20    21   ar
    20    21    22   ar
    21    22    23   ar
    22    23    24    1
    23    23    25   ar
    24    25    26   ar
    25    26    27    1
    26    13    14   ar
    27    14     9   ar
    28     7     1   ar
    29    26    20   ar
@<TRIPOS>MOLECULE
*****
 27 29 0 0 0
SMALL
GASTEIGER

@<TRIPOS>ATOM
      1 C          -7.3161  -15.4549   24.3199 C.ar    1  UNL1        0.0186
      2 C          -8.2872  -15.2012   25.4346 C.ar    1  UNL1        0.0105
      3 C          -7.8114  -15.1966   26.8572 C.ar    1  UNL1        0.0576
      4 CL         -8.7825  -14.9428   27.9719 Cl      1  UNL1       -0.0823
      5 C          -6.3647  -15.4457   27.1651 C.ar    1  UNL1        0.0145
      6 C          -5.3936  -15.6995   26.0504 C.ar    1  UNL1        0.0375
      7 C          -5.8692  -15.7041   24.6278 C.ar    1  UNL1        0.1354
      8 C          -7.7917  -15.4595   22.8973 C.3     1  UNL1        0.0751
      9 CA         -9.4689  -18.4138   20.8456 C.ar    1  UNL1        0.0948
     10 C         -10.7946  -18.5234   21.5388 C.ar    1  UNL1        0.0203
     11 C         -11.1193  -17.6117   22.6848 C.ar    1  UNL1        0.0028
     12 C         -10.1184  -16.5904   23.1377 C.ar    1  UNL1        0.0151
     13 C          -8.7927  -16.4808   22.4445 C.ar    1  UNL1        0.0635
     14 N          -8.4680  -17.3925   21.2985 N.ar    1  UNL1       -0.2482
     15 O          -7.7595  -19.3415   19.1231 O.co2   1  UNL1       -0.5430
     16 C          -9.1441  -19.3254   19.6996 C.2     1  UNL1        0.0905
     17 OXT       -10.2041  -20.2210   19.1300 O.co2   1  UNL1       -0.5430
     18 O          -4.8981  -15.9578   23.5131 O.3     1  UNL1       -0.4709
     19 C          -3.9978  -17.1566   23.5611 C.3     1  UNL1        0.2328
     20 C          -3.9456  -18.1024   22.3980 C.ar    1  UNL1        0.0319
     21 C          -4.9765  -19.1836   22.2636 C.ar    1  UNL1        0.0025
     22 C          -4.9242  -20.1294   21.1005 C.ar    1  UNL1        0.0295
     23 C          -3.8410  -19.9939   20.0718 C.ar    1  UNL1        0.1410
     24 F          -3.7888  -20.9396   18.9087 F       1  UNL1       -0.2041
     25 C          -2.8101  -18.9126   20.2061 C.ar    1  UNL1        0.0408
     26 C          -2.8624  -17.9669   21.3692 C.ar    1  UNL1        0.0594
     27 CL         -1.8314  -16.8856   21.5036 Cl      1  UNL1       -0.0824
@<TRIPOS>UNITY_ATOM_ATTR
17 1
charge -1
@<TRIPOS>BOND
     1    15    16   ar
     2    16    17   ar
     3    16     9    1
     4     9    10   ar
     5    10    11   ar
     6    11    12   ar
     7    12    13   ar
     8    13     8    1
     9     8     1    1
    10     1     2   ar
    11     2     3   ar
    12     3     4    1
    13     3     5   ar
    14     5     6   ar
    15     6     7   ar
    16     7    18    1
    17    18    19    1
    18    19    20    1
    19    20    21   ar
    20    21    22   ar
    21    22    23   ar
    22    23    24    1
    23    23    25   ar
    24    25    26   ar
    25    26    27    1
    26    13    14   ar
    27    14     9   ar
    28     7     1   ar
    29    26    20   ar
@<TRIPOS>MOLECULE
*****
 27 29 0 0 0
SMALL
GASTEIGER

@<TRIPOS>ATOM
      1 C          -7.1520  -18.1205   22.3814 C.ar    1  UNL1        0.0186
      2 C          -7.5471  -16.8816   23.1291 C.ar    1  UNL1        0.0105
      3 C          -6.5062  -16.0757   23.8483 C.ar    1  UNL1        0.0576
      4 CL         -6.9013  -14.8368   24.5960 Cl      1  UNL1       -0.0823
      5 C          -5.0704  -16.5086   23.8197 C.ar    1  UNL1        0.0145
      6 C          -4.6753  -17.7475   23.0719 C.ar    1  UNL1        0.0375
      7 C          -5.7161  -18.5534   22.3528 C.ar    1  UNL1        0.1354
      8 C          -8.1928  -18.9264   21.6622 C.3     1  UNL1        0.0751
      9 CA        -11.3654  -16.8335   20.5202 C.ar    1  UNL1        0.0948
     10 C         -12.4251  -17.4193   21.4054 C.ar    1  UNL1        0.0203
     11 C         -12.0741  -18.5076   22.3763 C.ar    1  UNL1        0.0028
     12 C         -10.6633  -19.0099   22.4619 C.ar    1  UNL1        0.0151
     13 C          -9.6036  -18.4241   21.5766 C.ar    1  UNL1        0.0635
     14 N          -9.9546  -17.3358   20.6058 N.ar    1  UNL1       -0.2482
     15 O         -13.1548  -15.4227   19.2721 O.co2   1  UNL1       -0.5430
     16 C         -11.7164  -15.7452   19.5493 C.2     1  UNL1        0.0905
     17 OXT       -10.6290  -14.9795   18.8557 O.co2   1  UNL1       -0.5430
     18 O          -5.3210  -19.7923   21.6051 O.3     1  UNL1       -0.4709
     19 C          -4.7501  -19.6837   20.2222 C.3     1  UNL1        0.2328
     20 C          -3.4353  -18.9951   20.0056 C.ar    1  UNL1        0.0319
     21 C          -3.2713  -18.0328   18.8667 C.ar    1  UNL1        0.0025
     22 C          -1.9564  -17.3442   18.6500 C.ar    1  UNL1        0.0295
     23 C          -0.8055  -17.6179   19.5722 C.ar    1  UNL1        0.1410
     24 F           0.5093  -16.9293   19.3555 F       1  UNL1       -0.2041
     25 C          -0.9695  -18.5801   20.7111 C.ar    1  UNL1        0.0408
     26 C          -2.2844  -19.2688   20.9278 C.ar    1  UNL1        0.0594
     27 CL         -2.4483  -20.2311   22.0667 Cl      1  UNL1       -0.0824
@<TRIPOS>UNITY_ATOM_ATTR
17 1
charge -1
@<TRIPOS>BOND
     1    15    16   ar
     2    16    17   ar
     3    16     9    1
     4     9    10   ar
     5    10    11   ar
     6    11    12   ar
     7    12    13   ar
     8    13     8    1
     9     8     1    1
    10     1     2   ar
    11     2     3   ar
    12     3     4    1
    13     3     5   ar
    14     5     6   ar
    15     6     7   ar
    16     7    18    1
    17    18    19    1
    18    19    20    1
    19    20    21   ar
    20    21    22   ar
    21    22    23   ar
    22    23    24    1
    23    23    25   ar
    24    25    26   ar
    25    26    27    1
    26    13    14   ar
    27    14     9   ar
    28     7     1   ar
    29    26    20   ar
