@<TRIPOS>MOLECULE
*****
 30 32 0 0 0
SMALL
GASTEIGER

@<TRIPOS>ATOM
      1 C          -8.4648  -16.6874   26.6303 C.3     1  UNL1        0.0018
      2 C          -7.5814  -15.9783   27.6134 C.3     1  UNL1        0.0213
      3 C          -6.4419  -15.1338   27.1248 C.3     1  UNL1        0.0897
      4 O          -6.7273  -14.4517   24.2174 O.2     1  UNL1       -0.2701
      5 C          -5.6140  -15.3485   24.6716 C.2     1  UNL1        0.2460
      6 N          -5.4713  -15.6896   26.1253 N.am    1  UNL1       -0.3009
      7 H          -4.7406  -16.2782   26.4234 H       1  UNL1        0.1497
      8 C          -4.6434  -15.9043   23.6720 C.2     1  UNL1        0.0578
      9 C          -4.5277  -17.3879   23.4836 C.2     1  UNL1        0.0062
     10 C          -3.5571  -17.9437   22.4841 C.ar    1  UNL1        0.0193
     11 C          -3.6789  -19.3689   22.0327 C.ar    1  UNL1        0.0031
     12 C          -2.7083  -19.9246   21.0332 C.ar    1  UNL1        0.0207
     13 C          -1.6159  -19.0550   20.4850 C.ar    1  UNL1        0.0989
     14 N          -1.4940  -17.6298   20.9365 N.ar    1  UNL1       -0.2423
     15 C          -2.4646  -17.0741   21.9360 C.ar    1  UNL1        0.0988
     16 C          -9.1740  -15.9092   25.5620 C.3     1  UNL1        0.0002
     17 C          -9.4258  -16.5332   24.2214 C.3     1  UNL1        0.0034
     18 C          -8.4885  -17.5780   23.6925 C.3     1  UNL1        0.0216
     19 C          -8.7402  -18.2021   22.3519 C.3     1  UNL1        0.0937
     20 N          -9.9294  -17.7813   21.5401 N.am    1  UNL1       -0.2761
     21 C         -10.1811  -18.4052   20.1996 C.2     1  UNL1        0.2490
     22 O         -11.3703  -17.9844   19.3878 O.2     1  UNL1       -0.2699
     23 C         -10.8667  -16.7364   22.0691 C.3     1  UNL1        0.0937
     24 C         -10.6149  -16.1124   23.4096 C.3     1  UNL1        0.0216
     25 C          -9.2438  -19.4501   19.6707 C.ar    1  UNL1        0.0536
     26 C          -9.6906  -20.3739   18.5767 C.ar    1  UNL1        0.0045
     27 C          -8.7532  -21.4187   18.0478 C.ar    1  UNL1        0.0001
     28 C          -7.3691  -21.5397   18.6130 C.ar    1  UNL1        0.0000
     29 C          -6.9223  -20.6159   19.7071 C.ar    1  UNL1        0.0001
     30 C          -7.8596  -19.5711   20.2359 C.ar    1  UNL1        0.0045
@<TRIPOS>BOND
     1     4     5    2
     2     5     8    1
     3     8     9    2
     4     9    10    1
     5    10    11   ar
     6    11    12   ar
     7    12    13   ar
     8    13    14   ar
     9    14    15   ar
    10     5     6   am
    11     6     3    1
    12     3     2    1
    13     2     1    1
    14     1    16    1
    15    16    17    1
    16    17    18    1
    17    18    19    1
    18    19    20    1
    19    20    21   am
    20    21    22    2
    21    21    25    1
    22    25    26   ar
    23    26    27   ar
    24    27    28   ar
    25    28    29   ar
    26    29    30   ar
    27    20    23    1
    28    23    24    1
    29    15    10   ar
    30    24    17    1
    31    30    25   ar
    32     6     7    1
@<TRIPOS>MOLECULE
*****
 30 32 0 0 0
SMALL
GASTEIGER

@<TRIPOS>ATOM
      1 C          -7.5667  -15.2269   27.6574 C.3     1  UNL1        0.0018
      2 C          -6.2319  -15.8383   27.3500 C.3     1  UNL1        0.0213
      3 C          -5.2842  -15.1416   26.4191 C.3     1  UNL1        0.0897
      4 O          -3.8217  -17.7151   25.9312 O.2     1  UNL1       -0.2701
      5 C          -4.3704  -16.9333   24.7746 C.2     1  UNL1        0.2460
      6 N          -5.1017  -15.6466   25.0185 N.am    1  UNL1       -0.3009
      7 H          -5.4618  -15.1335   24.2594 H       1  UNL1        0.1497
      8 C          -4.1878  -17.4384   23.3740 C.2     1  UNL1        0.0578
      9 C          -2.8853  -17.2216   22.6624 C.2     1  UNL1        0.0062
     10 C          -2.7027  -17.7266   21.2617 C.ar    1  UNL1        0.0193
     11 C          -3.5449  -18.8608   20.7577 C.ar    1  UNL1        0.0031
     12 C          -3.3623  -19.3658   19.3571 C.ar    1  UNL1        0.0207
     13 C          -2.3374  -18.7366   18.4606 C.ar    1  UNL1        0.0989
     14 N          -1.4952  -17.6023   18.9647 N.ar    1  UNL1       -0.2423
     15 C          -1.6778  -17.0973   20.3652 C.ar    1  UNL1        0.0988
     16 C          -8.6042  -15.1107   26.5804 C.3     1  UNL1        0.0002
     17 C          -8.8834  -16.2767   25.6790 C.3     1  UNL1        0.0034
     18 C          -8.5261  -16.2025   24.2241 C.3     1  UNL1        0.0216
     19 C          -8.8053  -17.3685   23.3227 C.3     1  UNL1        0.0937
     20 N          -9.4419  -18.6088   23.8762 N.am    1  UNL1       -0.2761
     21 C          -9.7211  -19.7748   22.9749 C.2     1  UNL1        0.2490
     22 O         -10.3577  -21.0151   23.5285 O.2     1  UNL1       -0.2699
     23 C          -9.7993  -18.6830   25.3312 C.3     1  UNL1        0.0937
     24 C          -9.5200  -17.5170   26.2325 C.3     1  UNL1        0.0216
     25 C          -9.3638  -19.7005   21.5201 C.ar    1  UNL1        0.0536
     26 C          -7.9247  -19.6219   21.1043 C.ar    1  UNL1        0.0045
     27 C          -7.5673  -19.5476   19.6493 C.ar    1  UNL1        0.0001
     28 C          -8.6490  -19.5520   18.6102 C.ar    1  UNL1        0.0000
     29 C         -10.0881  -19.6306   19.0260 C.ar    1  UNL1        0.0001
     30 C         -10.4455  -19.7049   20.4808 C.ar    1  UNL1        0.0045
@<TRIPOS>BOND
     1     4     5    2
     2     5     8    1
     3     8     9    2
     4     9    10    1
     5    10    11   ar
     6    11    12   ar
     7    12    13   ar
     8    13    14   ar
     9    14    15   ar
    10     5     6   am
    11     6     3    1
    12     3     2    1
    13     2     1    1
    14     1    16    1
    15    16    17    1
    16    17    18    1
    17    18    19    1
    18    19    20    1
    19    20    21   am
    20    21    22    2
    21    21    25    1
    22    25    26   ar
    23    26    27   ar
    24    27    28   ar
    25    28    29   ar
    26    29    30   ar
    27    20    23    1
    28    23    24    1
    29    15    10   ar
    30    24    17    1
    31    30    25   ar
    32     6     7    1
@<TRIPOS>MOLECULE
*****
 30 32 0 0 0
SMALL
GASTEIGER

@<TRIPOS>ATOM
      1 C          -9.3127   -4.6077   17.8560 C.3     1  UNL1        0.0018
      2 C          -9.7933   -3.9932   16.5749 C.3     1  UNL1        0.0213
      3 C         -10.3741   -2.6102   16.5780 C.3     1  UNL1        0.0897
      4 O         -11.3563   -1.3916   19.1372 O.2     1  UNL1       -0.2701
      5 C         -12.3357   -1.8055   18.0793 C.2     1  UNL1        0.2460
      6 N         -11.8446   -2.4148   16.7996 N.am    1  UNL1       -0.3009
      7 H         -12.4875   -2.6865   16.1053 H       1  UNL1        0.1497
      8 C         -13.8064   -1.6101   18.3010 C.2     1  UNL1        0.0578
      9 C         -14.4298   -2.0211   19.6019 C.2     1  UNL1        0.0062
     10 C         -15.9005   -1.8257   19.8236 C.ar    1  UNL1        0.0193
     11 C         -16.8503   -2.9653   19.6020 C.ar    1  UNL1        0.0031
     12 C         -18.3209   -2.7699   19.8238 C.ar    1  UNL1        0.0207
     13 C         -18.8416   -1.4348   20.2671 C.ar    1  UNL1        0.0989
     14 N         -17.8918   -0.2953   20.4887 N.ar    1  UNL1       -0.2423
     15 C         -16.4212   -0.4907   20.2670 C.ar    1  UNL1        0.0988
     16 C         -10.2661   -4.8053   18.9970 C.3     1  UNL1        0.0002
     17 C         -11.4687   -5.6853   18.8257 C.3     1  UNL1        0.0034
     18 C         -12.8050   -5.2377   19.3395 C.3     1  UNL1        0.0216
     19 C         -14.0076   -6.1178   19.1681 C.3     1  UNL1        0.0937
     20 N         -13.8739   -7.4454   18.4830 N.am    1  UNL1       -0.2761
     21 C         -15.0764   -8.3255   18.3116 C.2     1  UNL1        0.2490
     22 O         -14.9427   -9.6531   17.6264 O.2     1  UNL1       -0.2699
     23 C         -12.5375   -7.8930   17.9691 C.3     1  UNL1        0.0937
     24 C         -11.3350   -7.0130   18.1405 C.3     1  UNL1        0.0216
     25 C         -16.4126   -7.8779   18.8254 C.ar    1  UNL1        0.0536
     26 C         -17.1397   -6.7553   18.1463 C.ar    1  UNL1        0.0045
     27 C         -18.4760   -6.3077   18.6602 C.ar    1  UNL1        0.0001
     28 C         -19.0852   -6.9826   19.8531 C.ar    1  UNL1        0.0000
     29 C         -18.3582   -8.1052   20.5322 C.ar    1  UNL1        0.0001
     30 C         -17.0220   -8.5529   20.0184 C.ar    1  UNL1        0.0045
@<TRIPOS>BOND
     1     4     5    2
     2     5     8    1
     3     8     9    2
     4     9    10    1
     5    10    11   ar
     6    11    12   ar
     7    12    13   ar
     8    13    14   ar
     9    14    15   ar
    10     5     6   am
    11     6     3    1
    12     3     2    1
    13     2     1    1
    14     1    16    1
    15    16    17    1
    16    17    18    1
    17    18    19    1
    18    19    20    1
    19    20    21   am
    20    21    22    2
    21    21    25    1
    22    25    26   ar
    23    26    27   ar
    24    27    28   ar
    25    28    29   ar
    26    29    30   ar
    27    20    23    1
    28    23    24    1
    29    15    10   ar
    30    24    17    1
    31    30    25   ar
    32     6     7    1
@<TRIPOS>MOLECULE
*****
 30 32 0 0 0
SMALL
GASTEIGER

@<TRIPOS>ATOM
      1 C           7.2575   -7.6404   26.3165 C.3     1  UNL1        0.0018
      2 C           8.5083   -8.4353   26.5478 C.3     1  UNL1        0.0213
      3 C           8.5218   -9.5315   27.5717 C.3     1  UNL1        0.0897
      4 O           8.4995  -12.5101   27.9281 O.2     1  UNL1       -0.2701
      5 C           7.2361  -11.7231   28.1136 C.2     1  UNL1        0.2460
      6 N           7.2472  -10.2338   27.9354 N.am    1  UNL1       -0.3009
      7 H           6.4180   -9.7172   28.0571 H       1  UNL1        0.1497
      8 C           5.9615  -12.4255   28.4773 C.2     1  UNL1        0.0578
      9 C           4.6811  -12.0618   27.7857 C.2     1  UNL1        0.0062
     10 C           3.4066  -12.7642   28.1494 C.ar    1  UNL1        0.0193
     11 C           2.7483  -12.4883   29.4687 C.ar    1  UNL1        0.0031
     12 C           1.4738  -13.1907   29.8323 C.ar    1  UNL1        0.0207
     13 C           0.8575  -14.1689   28.8766 C.ar    1  UNL1        0.0989
     14 N           1.5158  -14.4448   27.5574 N.ar    1  UNL1       -0.2423
     15 C           2.7903  -13.7424   27.1937 C.ar    1  UNL1        0.0988
     16 C           7.3220   -6.1434   26.2490 C.3     1  UNL1        0.0002
     17 C           7.0563   -5.3250   27.4777 C.3     1  UNL1        0.0034
     18 C           6.6518   -3.8865   27.3477 C.3     1  UNL1        0.0216
     19 C           6.3861   -3.0681   28.5765 C.3     1  UNL1        0.0937
     20 N           6.5249   -3.6883   29.9352 N.am    1  UNL1       -0.2761
     21 C           6.2593   -2.8700   31.1639 C.2     1  UNL1        0.2490
     22 O           6.3981   -3.4903   32.5226 O.2     1  UNL1       -0.2699
     23 C           6.9295   -5.1269   30.0651 C.3     1  UNL1        0.0937
     24 C           7.1951   -5.9452   28.8364 C.3     1  UNL1        0.0216
     25 C           5.8547   -1.4315   31.0339 C.ar    1  UNL1        0.0536
     26 C           6.9014   -0.3573   31.0102 C.ar    1  UNL1        0.0045
     27 C           6.4968    1.0813   30.8802 C.ar    1  UNL1        0.0001
     28 C           5.0456    1.4456   30.7739 C.ar    1  UNL1        0.0000
     29 C           3.9990    0.3714   30.7977 C.ar    1  UNL1        0.0001
     30 C           4.4035   -1.0671   30.9276 C.ar    1  UNL1        0.0045
@<TRIPOS>BOND
     1     4     5    2
     2     5     8    1
     3     8     9    2
     4     9    10    1
     5    10    11   ar
     6    11    12   ar
     7    12    13   ar
     8    13    14   ar
     9    14    15   ar
    10     5     6   am
    11     6     3    1
    12     3     2    1
    13     2     1    1
    14     1    16    1
    15    16    17    1
    16    17    18    1
    17    18    19    1
    18    19    20    1
    19    20    21   am
    20    21    22    2
    21    21    25    1
    22    25    26   ar
    23    26    27   ar
    24    27    28   ar
    25    28    29   ar
    26    29    30   ar
    27    20    23    1
    28    23    24    1
    29    15    10   ar
    30    24    17    1
    31    30    25   ar
    32     6     7    1
@<TRIPOS>MOLECULE
*****
 30 32 0 0 0
SMALL
GASTEIGER

@<TRIPOS>ATOM
      1 C           8.1723   -7.2353   28.3383 C.3     1  UNL1        0.0018
      2 C           9.1437   -8.2404   27.7941 C.3     1  UNL1        0.0213
      3 C           8.7323   -9.6748   27.6419 C.3     1  UNL1        0.0897
      4 O           7.8634  -12.4628   28.3290 O.2     1  UNL1       -0.2701
      5 C           6.8430  -11.4318   27.9472 C.2     1  UNL1        0.2460
      6 N           7.2774  -10.0378   27.6037 N.am    1  UNL1       -0.3009
      7 H           6.6077   -9.3612   27.3531 H       1  UNL1        0.1497
      8 C           5.3880  -11.7948   27.9090 C.2     1  UNL1        0.0578
      9 C           4.8910  -12.9829   28.6781 C.2     1  UNL1        0.0062
     10 C           3.4361  -13.3459   28.6399 C.ar    1  UNL1        0.0193
     11 C           2.4742  -12.6892   29.5851 C.ar    1  UNL1        0.0031
     12 C           1.0193  -13.0523   29.5468 C.ar    1  UNL1        0.0207
     13 C           0.5263  -14.0720   28.5634 C.ar    1  UNL1        0.0989
     14 N           1.4883  -14.7287   27.6182 N.ar    1  UNL1       -0.2423
     15 C           2.9431  -14.3657   27.6564 C.ar    1  UNL1        0.0988
     16 C           8.3430   -6.7050   29.7309 C.3     1  UNL1        0.0002
     17 C           7.7015   -5.4070   30.1232 C.3     1  UNL1        0.0034
     18 C           7.6362   -5.0091   31.5680 C.3     1  UNL1        0.0216
     19 C           6.9946   -3.7112   31.9602 C.3     1  UNL1        0.0937
     20 N           6.4184   -2.8112   30.9076 N.am    1  UNL1       -0.2761
     21 C           5.7769   -1.5133   31.2998 C.2     1  UNL1        0.2490
     22 O           5.2007   -0.6132   30.2473 O.2     1  UNL1       -0.2699
     23 C           6.4837   -3.2091   29.4628 C.3     1  UNL1        0.0937
     24 C           7.1253   -4.5070   29.0706 C.3     1  UNL1        0.0216
     25 C           5.7116   -1.1154   32.7446 C.ar    1  UNL1        0.0536
     26 C           4.5144   -1.4828   33.5703 C.ar    1  UNL1        0.0045
     27 C           4.4492   -1.0848   35.0152 C.ar    1  UNL1        0.0001
     28 C           5.5811   -0.3196   35.6342 C.ar    1  UNL1        0.0000
     29 C           6.7782    0.0478   34.8085 C.ar    1  UNL1        0.0001
     30 C           6.8435   -0.3501   33.3637 C.ar    1  UNL1        0.0045
@<TRIPOS>BOND
     1     4     5    2
     2     5     8    1
     3     8     9    2
     4     9    10    1
     5    10    11   ar
     6    11    12   ar
     7    12    13   ar
     8    13    14   ar
     9    14    15   ar
    10     5     6   am
    11     6     3    1
    12     3     2    1
    13     2     1    1
    14     1    16    1
    15    16    17    1
    16    17    18    1
    17    18    19    1
    18    19    20    1
    19    20    21   am
    20    21    22    2
    21    21    25    1
    22    25    26   ar
    23    26    27   ar
    24    27    28   ar
    25    28    29   ar
    26    29    30   ar
    27    20    23    1
    28    23    24    1
    29    15    10   ar
    30    24    17    1
    31    30    25   ar
    32     6     7    1
@<TRIPOS>MOLECULE
*****
 30 32 0 0 0
SMALL
GASTEIGER

@<TRIPOS>ATOM
      1 C          -9.3306   -4.9988   17.5873 C.3     1  UNL1        0.0018
      2 C         -10.1372   -4.7258   16.3525 C.3     1  UNL1        0.0213
      3 C         -10.5312   -3.3197   16.0096 C.3     1  UNL1        0.0897
      4 O         -10.3158   -0.5363   17.1078 O.2     1  UNL1       -0.2701
      5 C         -11.6041   -1.2943   17.2329 C.2     1  UNL1        0.2460
      6 N         -11.7118   -2.6860   16.6837 N.am    1  UNL1       -0.3009
      7 H         -12.5574   -3.1835   16.7658 H       1  UNL1        0.1497
      8 C         -12.7848   -0.6606   17.9071 C.2     1  UNL1        0.0578
      9 C         -13.9812   -1.4926   18.2626 C.2     1  UNL1        0.0062
     10 C         -15.1619   -0.8588   18.9368 C.ar    1  UNL1        0.0193
     11 C         -15.2140    0.6296   19.1152 C.ar    1  UNL1        0.0031
     12 C         -16.3946    1.2632   19.7894 C.ar    1  UNL1        0.0207
     13 C         -17.5231    0.4084   20.2852 C.ar    1  UNL1        0.0989
     14 N         -17.4710   -1.0800   20.1069 N.ar    1  UNL1       -0.2423
     15 C         -16.2904   -1.7136   19.4327 C.ar    1  UNL1        0.0988
     16 C          -9.8914   -5.8701   18.6719 C.3     1  UNL1        0.0002
     17 C         -11.3766   -5.9959   18.8403 C.3     1  UNL1        0.0034
     18 C         -12.0679   -7.2742   18.4690 C.3     1  UNL1        0.0216
     19 C         -13.5531   -7.4000   18.6374 C.3     1  UNL1        0.0937
     20 N         -14.3471   -6.2474   19.1770 N.am    1  UNL1       -0.2761
     21 C         -15.8322   -6.3732   19.3453 C.2     1  UNL1        0.2490
     22 O         -16.6261   -5.2205   19.8849 O.2     1  UNL1       -0.2699
     23 C         -13.6557   -4.9690   19.5482 C.3     1  UNL1        0.0937
     24 C         -12.1705   -4.8432   19.3799 C.3     1  UNL1        0.0216
     25 C         -16.5235   -7.6515   18.9741 C.ar    1  UNL1        0.0536
     26 C         -17.1671   -7.7922   17.6265 C.ar    1  UNL1        0.0045
     27 C         -17.8584   -9.0707   17.2553 C.ar    1  UNL1        0.0001
     28 C         -17.9060  -10.2084   18.2317 C.ar    1  UNL1        0.0000
     29 C         -17.2624  -10.0677   19.5793 C.ar    1  UNL1        0.0001
     30 C         -16.5712   -8.7893   19.9505 C.ar    1  UNL1        0.0045
@<TRIPOS>BOND
     1     4     5    2
     2     5     8    1
     3     8     9    2
     4     9    10    1
     5    10    11   ar
     6    11    12   ar
     7    12    13   ar
     8    13    14   ar
     9    14    15   ar
    10     5     6   am
    11     6     3    1
    12     3     2    1
    13     2     1    1
    14     1    16    1
    15    16    17    1
    16    17    18    1
    17    18    19    1
    18    19    20    1
    19    20    21   am
    20    21    22    2
    21    21    25    1
    22    25    26   ar
    23    26    27   ar
    24    27    28   ar
    25    28    29   ar
    26    29    30   ar
    27    20    23    1
    28    23    24    1
    29    15    10   ar
    30    24    17    1
    31    30    25   ar
    32     6     7    1
@<TRIPOS>MOLECULE
*****
 30 32 0 0 0
SMALL
GASTEIGER

@<TRIPOS>ATOM
      1 C           8.4792   -7.8322   26.0022 C.3     1  UNL1        0.0018
      2 C           9.0506   -8.3033   27.3066 C.3     1  UNL1        0.0213
      3 C           8.6458   -9.6353   27.8653 C.3     1  UNL1        0.0897
      4 O           7.9918  -12.5412   28.2227 O.2     1  UNL1       -0.2701
      5 C           6.9020  -11.5607   27.9048 C.2     1  UNL1        0.2460
      6 N           7.2290  -10.1078   27.7261 N.am    1  UNL1       -0.3009
      7 H           6.5138   -9.4642   27.5175 H       1  UNL1        0.1497
      8 C           5.4852  -12.0332   27.7656 C.2     1  UNL1        0.0578
      9 C           4.8344  -12.7921   28.8838 C.2     1  UNL1        0.0062
     10 C           3.4175  -13.2647   28.7446 C.ar    1  UNL1        0.0193
     11 C           2.3329  -12.6360   29.5682 C.ar    1  UNL1        0.0031
     12 C           0.9161  -13.1086   29.4290 C.ar    1  UNL1        0.0207
     13 C           0.5840  -14.2098   28.4662 C.ar    1  UNL1        0.0989
     14 N           1.6686  -14.8384   27.6426 N.ar    1  UNL1       -0.2423
     15 C           3.0853  -14.3659   27.7818 C.ar    1  UNL1        0.0988
     16 C           9.0173   -6.5922   25.3520 C.3     1  UNL1        0.0002
     17 C           8.0850   -5.6448   24.6568 C.3     1  UNL1        0.0034
     18 C           8.1107   -5.5291   23.1616 C.3     1  UNL1        0.0216
     19 C           7.1783   -4.5816   22.4665 C.3     1  UNL1        0.0937
     20 N           6.2203   -3.7499   23.2667 N.am    1  UNL1       -0.2761
     21 C           5.2880   -2.8025   22.5717 C.2     1  UNL1        0.2490
     22 O           4.3299   -1.9708   23.3719 O.2     1  UNL1       -0.2699
     23 C           6.1946   -3.8656   24.7621 C.3     1  UNL1        0.0937
     24 C           7.1270   -4.8130   25.4571 C.3     1  UNL1        0.0216
     25 C           5.3137   -2.6868   21.0764 C.ar    1  UNL1        0.0536
     26 C           4.5670   -3.6786   20.2345 C.ar    1  UNL1        0.0045
     27 C           4.5928   -3.5629   18.7391 C.ar    1  UNL1        0.0001
     28 C           5.3651   -2.4554   18.0857 C.ar    1  UNL1        0.0000
     29 C           6.1117   -1.4636   18.9277 C.ar    1  UNL1        0.0001
     30 C           6.0860   -1.5793   20.4230 C.ar    1  UNL1        0.0045
@<TRIPOS>BOND
     1     4     5    2
     2     5     8    1
     3     8     9    2
     4     9    10    1
     5    10    11   ar
     6    11    12   ar
     7    12    13   ar
     8    13    14   ar
     9    14    15   ar
    10     5     6   am
    11     6     3    1
    12     3     2    1
    13     2     1    1
    14     1    16    1
    15    16    17    1
    16    17    18    1
    17    18    19    1
    18    19    20    1
    19    20    21   am
    20    21    22    2
    21    21    25    1
    22    25    26   ar
    23    26    27   ar
    24    27    28   ar
    25    28    29   ar
    26    29    30   ar
    27    20    23    1
    28    23    24    1
    29    15    10   ar
    30    24    17    1
    31    30    25   ar
    32     6     7    1
@<TRIPOS>MOLECULE
*****
 30 32 0 0 0
SMALL
GASTEIGER

@<TRIPOS>ATOM
      1 C           8.8850   -6.6326   28.2477 C.3     1  UNL1        0.0018
      2 C           8.9722   -8.0699   28.6677 C.3     1  UNL1        0.0213
      3 C           8.6661   -9.1590   27.6827 C.3     1  UNL1        0.0897
      4 O           8.1329  -12.0714   28.1661 O.2     1  UNL1       -0.2701
      5 C           7.0034  -11.1513   27.8089 C.2     1  UNL1        0.2460
      6 N           7.2700   -9.6951   27.5672 N.am    1  UNL1       -0.3009
      7 H           6.5286   -9.0913   27.3328 H       1  UNL1        0.1497
      8 C           5.6072  -11.6875   27.6934 C.2     1  UNL1        0.0578
      9 C           5.0184  -12.4937   28.8129 C.2     1  UNL1        0.0062
     10 C           3.6222  -13.0299   28.6974 C.ar    1  UNL1        0.0193
     11 C           2.5697  -12.5980   29.6749 C.ar    1  UNL1        0.0031
     12 C           1.1736  -13.1342   29.5594 C.ar    1  UNL1        0.0207
     13 C           0.8301  -14.1022   28.4663 C.ar    1  UNL1        0.0989
     14 N           1.8826  -14.5341   27.4887 N.ar    1  UNL1       -0.2423
     15 C           3.2787  -13.9979   27.6043 C.ar    1  UNL1        0.0988
     16 C           7.5874   -6.0771   27.7400 C.3     1  UNL1        0.0002
     17 C           7.4651   -5.6460   26.3084 C.3     1  UNL1        0.0034
     18 C           6.5946   -4.4787   25.9484 C.3     1  UNL1        0.0216
     19 C           6.4723   -4.0476   24.5169 C.3     1  UNL1        0.0937
     20 N           7.2205   -4.7838   23.4454 N.am    1  UNL1       -0.2761
     21 C           7.0982   -4.3528   22.0139 C.2     1  UNL1        0.2490
     22 O           7.8464   -5.0890   20.9424 O.2     1  UNL1       -0.2699
     23 C           8.0910   -5.9511   23.8054 C.3     1  UNL1        0.0937
     24 C           8.2133   -6.3822   25.2369 C.3     1  UNL1        0.0216
     25 C           6.2277   -3.1855   21.6539 C.ar    1  UNL1        0.0536
     26 C           6.8113   -1.8050   21.5936 C.ar    1  UNL1        0.0045
     27 C           5.9407   -0.6377   21.2336 C.ar    1  UNL1        0.0001
     28 C           4.4865   -0.8509   20.9339 C.ar    1  UNL1        0.0000
     29 C           3.9029   -2.2314   20.9942 C.ar    1  UNL1        0.0001
     30 C           4.7734   -3.3987   21.3542 C.ar    1  UNL1        0.0045
@<TRIPOS>BOND
     1     4     5    2
     2     5     8    1
     3     8     9    2
     4     9    10    1
     5    10    11   ar
     6    11    12   ar
     7    12    13   ar
     8    13    14   ar
     9    14    15   ar
    10     5     6   am
    11     6     3    1
    12     3     2    1
    13     2     1    1
    14     1    16    1
    15    16    17    1
    16    17    18    1
    17    18    19    1
    18    19    20    1
    19    20    21   am
    20    21    22    2
    21    21    25    1
    22    25    26   ar
    23    26    27   ar
    24    27    28   ar
    25    28    29   ar
    26    29    30   ar
    27    20    23    1
    28    23    24    1
    29    15    10   ar
    30    24    17    1
    31    30    25   ar
    32     6     7    1
@<TRIPOS>MOLECULE
*****
 30 32 0 0 0
SMALL
GASTEIGER

@<TRIPOS>ATOM
      1 C          -6.6731  -14.6615   27.4940 C.3     1  UNL1        0.0018
      2 C          -5.8782  -14.8447   26.2353 C.3     1  UNL1        0.0213
      3 C          -5.3949  -16.2103   25.8456 C.3     1  UNL1        0.0897
      4 O          -3.2257  -18.1974   25.2576 O.2     1  UNL1       -0.2701
      5 C          -3.9125  -17.4818   24.1323 C.2     1  UNL1        0.2460
      6 N          -4.9971  -16.4883   24.4263 N.am    1  UNL1       -0.3009
      7 H          -5.4478  -16.0186   23.6877 H       1  UNL1        0.1497
      8 C          -3.5146  -17.7599   22.7130 C.2     1  UNL1        0.0578
      9 C          -2.3420  -17.0455   22.1091 C.2     1  UNL1        0.0062
     10 C          -1.9441  -17.3235   20.6897 C.ar    1  UNL1        0.0193
     11 C          -2.9176  -17.0762   19.5757 C.ar    1  UNL1        0.0031
     12 C          -2.5197  -17.3542   18.1565 C.ar    1  UNL1        0.0207
     13 C          -1.1483  -17.8796   17.8513 C.ar    1  UNL1        0.0989
     14 N          -0.1748  -18.1270   18.9653 N.ar    1  UNL1       -0.2423
     15 C          -0.5727  -17.8490   20.3845 C.ar    1  UNL1        0.0988
     16 C          -8.1374  -14.9863   27.5103 C.3     1  UNL1        0.0002
     17 C          -8.6950  -15.9844   26.5393 C.3     1  UNL1        0.0034
     18 C          -8.9993  -15.5705   25.1300 C.3     1  UNL1        0.0216
     19 C          -9.5569  -16.5686   24.1589 C.3     1  UNL1        0.0937
     20 N          -9.8103  -17.9806   24.5973 N.am    1  UNL1       -0.2761
     21 C         -10.3680  -18.9787   23.6263 C.2     1  UNL1        0.2490
     22 O         -10.6214  -20.3907   24.0646 O.2     1  UNL1       -0.2699
     23 C          -9.5061  -18.3945   26.0066 C.3     1  UNL1        0.0937
     24 C          -8.9484  -17.3964   26.9776 C.3     1  UNL1        0.0216
     25 C         -10.6722  -18.5648   22.2170 C.ar    1  UNL1        0.0536
     26 C         -11.7729  -17.5828   21.9448 C.ar    1  UNL1        0.0045
     27 C         -12.0771  -17.1689   20.5354 C.ar    1  UNL1        0.0001
     28 C         -11.2807  -17.7371   19.3984 C.ar    1  UNL1        0.0000
     29 C         -10.1800  -18.7191   19.6707 C.ar    1  UNL1        0.0001
     30 C          -9.8758  -19.1330   21.0799 C.ar    1  UNL1        0.0045
@<TRIPOS>BOND
     1     4     5    2
     2     5     8    1
     3     8     9    2
     4     9    10    1
     5    10    11   ar
     6    11    12   ar
     7    12    13   ar
     8    13    14   ar
     9    14    15   ar
    10     5     6   am
    11     6     3    1
    12     3     2    1
    13     2     1    1
    14     1    16    1
    15    16    17    1
    16    17    18    1
    17    18    19    1
    18    19    20    1
    19    20    21   am
    20    21    22    2
    21    21    25    1
    22    25    26   ar
    23    26    27   ar
    24    27    28   ar
    25    28    29   ar
    26    29    30   ar
    27    20    23    1
    28    23    24    1
    29    15    10   ar
    30    24    17    1
    31    30    25   ar
    32     6     7    1
