@<TRIPOS>MOLECULE
*****
 31 35 0 0 0
SMALL
GASTEIGER

@<TRIPOS>ATOM
      1 C          -9.2917  -16.8086   22.6439 C.3     1  UNL1        0.1332
      2 N          -9.4125  -18.2896   22.8490 N.ar    1  UNL1       -0.2965
      3 C          -8.3199  -19.2987   22.6540 C.ar    1  UNL1        0.1670
      4 N          -8.8792  -20.6542   22.9696 N.ar    1  UNL1       -0.1290
      5 N         -10.3174  -20.4829   23.3597 N.ar    1  UNL1       -0.1330
      6 C         -10.6470  -19.0214   23.2852 C.ar    1  UNL1        0.1464
      7 C          -6.9147  -19.0039   22.2196 C.ar    1  UNL1        0.0465
      8 C          -5.9926  -18.2451   23.1273 C.ar    1  UNL1        0.0039
      9 C          -4.5875  -17.9504   22.6929 C.ar    1  UNL1        0.0017
     10 C          -4.1045  -18.4145   21.3507 C.ar    1  UNL1        0.0200
     11 C          -5.0266  -19.1732   20.4430 C.ar    1  UNL1        0.0130
     12 C          -6.4317  -19.4680   20.8774 C.ar    1  UNL1        0.0606
     13 CL         -7.3538  -20.2268   19.9697 Cl      1  UNL1       -0.0821
     14 C          -2.6993  -18.1197   20.9163 C.ar    1  UNL1        0.1005
     15 C          -1.8256  -19.2254   20.4026 C.ar    1  UNL1        0.1179
     16 N          -0.4204  -18.9306   19.9682 N.ar    1  UNL1       -0.2391
     17 C           0.1110  -17.5301   20.0476 C.ar    1  UNL1        0.1195
     18 C          -0.7628  -16.4244   20.5614 C.ar    1  UNL1        0.1195
     19 N          -2.1679  -16.7192   20.9958 N.ar    1  UNL1       -0.2406
     20 C         -11.9775  -18.4009   23.5928 C.3     1  UNL1        0.0765
     21 C         -12.0419  -19.1749   24.8760 C.3     1  UNL1        0.0466
     22 C         -13.3724  -18.5544   25.1836 C.3     1  UNL1        0.1625
     23 F         -14.3587  -18.6629   26.3085 F       1  UNL1       -0.2372
     24 C         -13.3080  -17.7803   23.9004 C.3     1  UNL1        0.0466
     25 C         -11.9132  -17.6268   22.3096 C.ar    1  UNL1       -0.0158
     26 C         -12.2020  -16.1549   22.3063 C.ar    1  UNL1       -0.0030
     27 C         -12.1376  -15.3808   21.0231 C.ar    1  UNL1        0.0111
     28 C         -11.7844  -16.0787   19.7430 C.ar    1  UNL1        0.0577
     29 CL        -11.7201  -15.3046   18.4598 Cl      1  UNL1       -0.0822
     30 C         -11.4956  -17.5506   19.7463 C.ar    1  UNL1        0.0111
     31 C         -11.5600  -18.3247   21.0296 C.ar    1  UNL1       -0.0030
@<TRIPOS>BOND
     1     1     2    1
     2     2     3   ar
     3     3     7    1
     4     7     8   ar
     5     8     9   ar
     6     9    10   ar
     7    10    14    1
     8    14    15   ar
     9    15    16   ar
    10    16    17   ar
    11    17    18   ar
    12    18    19   ar
    13    10    11   ar
    14    11    12   ar
    15    12    13    1
    16     3     4   ar
    17     4     5   ar
    18     5     6   ar
    19     6    20    1
    20    20    25    1
    21    25    26   ar
    22    26    27   ar
    23    27    28   ar
    24    28    29    1
    25    28    30   ar
    26    30    31   ar
    27    20    21    1
    28    21    22    1
    29    22    23    1
    30    22    24    1
    31     6     2   ar
    32    24    20    1
    33    12     7   ar
    34    31    25   ar
    35    19    14   ar
@<TRIPOS>MOLECULE
*****
 31 35 0 0 0
SMALL
GASTEIGER

@<TRIPOS>ATOM
      1 C           7.1587   -0.7824   20.9381 C.3     1  UNL1        0.1332
      2 N           6.3473   -1.7728   20.1567 N.ar    1  UNL1       -0.2965
      3 C           6.1375   -3.2154   20.5104 C.ar    1  UNL1        0.1670
      4 N           5.2638   -3.8287   19.4567 N.ar    1  UNL1       -0.1290
      5 N           4.9335   -2.7653   18.4517 N.ar    1  UNL1       -0.1330
      6 C           5.6031   -1.4946   18.8843 C.ar    1  UNL1        0.1464
      7 C           6.7024   -3.9207   21.7077 C.ar    1  UNL1        0.0465
      8 C           7.9935   -4.6757   21.5934 C.ar    1  UNL1        0.0039
      9 C           8.5583   -5.3810   22.7907 C.ar    1  UNL1        0.0017
     10 C           7.8321   -5.3313   24.1022 C.ar    1  UNL1        0.0200
     11 C           6.5410   -4.5763   24.2165 C.ar    1  UNL1        0.0130
     12 C           5.9762   -3.8710   23.0192 C.ar    1  UNL1        0.0606
     13 CL          4.6851   -3.1160   23.1335 Cl      1  UNL1       -0.0821
     14 C           8.3970   -6.0366   25.2995 C.ar    1  UNL1        0.1005
     15 C           8.3887   -7.5353   25.3602 C.ar    1  UNL1        0.1179
     16 N           8.9536   -8.2407   26.5575 N.ar    1  UNL1       -0.2391
     17 C           9.5268   -7.4472   27.6941 C.ar    1  UNL1        0.1195
     18 C           9.5350   -5.9484   27.6334 C.ar    1  UNL1        0.1195
     19 N           8.9702   -5.2431   26.4362 N.ar    1  UNL1       -0.2406
     20 C           5.5397   -0.1772   18.1700 C.3     1  UNL1        0.0765
     21 C           6.9075   -0.4185   17.6035 C.3     1  UNL1        0.0466
     22 C           6.8441    0.8989   16.8892 C.3     1  UNL1        0.1625
     23 F           7.7665    1.6598   15.9835 F       1  UNL1       -0.2372
     24 C           5.4764    1.1403   17.4557 C.3     1  UNL1        0.0466
     25 C           4.1720    0.0642   18.7365 C.ar    1  UNL1       -0.0158
     26 C           2.9818    0.1198   17.8252 C.ar    1  UNL1       -0.0030
     27 C           1.6141    0.3612   18.3917 C.ar    1  UNL1        0.0111
     28 C           1.4364    0.5469   19.8696 C.ar    1  UNL1        0.0577
     29 CL          0.0686    0.7883   20.4361 Cl      1  UNL1       -0.0822
     30 C           2.6266    0.4913   20.7809 C.ar    1  UNL1        0.0111
     31 C           3.9944    0.2499   20.2143 C.ar    1  UNL1       -0.0030
@<TRIPOS>BOND
     1     1     2    1
     2     2     3   ar
     3     3     7    1
     4     7     8   ar
     5     8     9   ar
     6     9    10   ar
     7    10    14    1
     8    14    15   ar
     9    15    16   ar
    10    16    17   ar
    11    17    18   ar
    12    18    19   ar
    13    10    11   ar
    14    11    12   ar
    15    12    13    1
    16     3     4   ar
    17     4     5   ar
    18     5     6   ar
    19     6    20    1
    20    20    25    1
    21    25    26   ar
    22    26    27   ar
    23    27    28   ar
    24    28    29    1
    25    28    30   ar
    26    30    31   ar
    27    20    21    1
    28    21    22    1
    29    22    23    1
    30    22    24    1
    31     6     2   ar
    32    24    20    1
    33    12     7   ar
    34    31    25   ar
    35    19    14   ar
@<TRIPOS>MOLECULE
*****
 31 35 0 0 0
SMALL
GASTEIGER

@<TRIPOS>ATOM
      1 C           6.8625   -0.8415   21.5908 C.3     1  UNL1        0.1332
      2 N           6.2382   -1.9697   20.8244 N.ar    1  UNL1       -0.2965
      3 C           6.1594   -3.4002   21.2687 C.ar    1  UNL1        0.1670
      4 N           5.4556   -4.1800   20.1980 N.ar    1  UNL1       -0.1290
      5 N           5.0994   -3.2315   19.0919 N.ar    1  UNL1       -0.1330
      6 C           5.5832   -1.8654   19.4790 C.ar    1  UNL1        0.1464
      7 C           6.6910   -3.9537   22.5576 C.ar    1  UNL1        0.0465
      8 C           7.9188   -4.8154   22.5540 C.ar    1  UNL1        0.0039
      9 C           8.4503   -5.3688   23.8428 C.ar    1  UNL1        0.0017
     10 C           7.7542   -5.0605   25.1352 C.ar    1  UNL1        0.0200
     11 C           6.5265   -4.1988   25.1388 C.ar    1  UNL1        0.0130
     12 C           5.9949   -3.6454   23.8500 C.ar    1  UNL1        0.0606
     13 CL          4.7671   -2.7836   23.8536 Cl      1  UNL1       -0.0821
     14 C           8.2859   -5.6140   26.4241 C.ar    1  UNL1        0.1005
     15 C           8.8594   -4.6900   27.4571 C.ar    1  UNL1        0.1179
     16 N           9.3911   -5.2435   28.7460 N.ar    1  UNL1       -0.2391
     17 C           9.3491   -6.7210   29.0017 C.ar    1  UNL1        0.1195
     18 C           8.7755   -7.6449   27.9686 C.ar    1  UNL1        0.1195
     19 N           8.2439   -7.0915   26.6798 N.ar    1  UNL1       -0.2406
     20 C           5.4374   -0.6147   18.6639 C.3     1  UNL1        0.0765
     21 C           6.6860   -0.9615   17.9085 C.3     1  UNL1        0.0466
     22 C           6.5402    0.2893   17.0934 C.3     1  UNL1        0.1625
     23 F           7.3201    0.9284   15.9829 F       1  UNL1       -0.2372
     24 C           5.2916    0.6360   17.8488 C.3     1  UNL1        0.0466
     25 C           4.1888   -0.2679   19.4193 C.ar    1  UNL1       -0.0158
     26 C           4.1302    0.9900   20.2343 C.ar    1  UNL1       -0.0030
     27 C           2.8816    1.3368   20.9897 C.ar    1  UNL1        0.0111
     28 C           1.6914    0.4256   20.9302 C.ar    1  UNL1        0.0577
     29 CL          0.4428    0.7724   21.6856 Cl      1  UNL1       -0.0822
     30 C           1.7500   -0.8323   20.1152 C.ar    1  UNL1        0.0111
     31 C           2.9987   -1.1791   19.3598 C.ar    1  UNL1       -0.0030
@<TRIPOS>BOND
     1     1     2    1
     2     2     3   ar
     3     3     7    1
     4     7     8   ar
     5     8     9   ar
     6     9    10   ar
     7    10    14    1
     8    14    15   ar
     9    15    16   ar
    10    16    17   ar
    11    17    18   ar
    12    18    19   ar
    13    10    11   ar
    14    11    12   ar
    15    12    13    1
    16     3     4   ar
    17     4     5   ar
    18     5     6   ar
    19     6    20    1
    20    20    25    1
    21    25    26   ar
    22    26    27   ar
    23    27    28   ar
    24    28    29    1
    25    28    30   ar
    26    30    31   ar
    27    20    21    1
    28    21    22    1
    29    22    23    1
    30    22    24    1
    31     6     2   ar
    32    24    20    1
    33    12     7   ar
    34    31    25   ar
    35    19    14   ar
@<TRIPOS>MOLECULE
*****
 31 35 0 0 0
SMALL
GASTEIGER

@<TRIPOS>ATOM
      1 C           2.0449    2.6897   28.0311 C.3     1  UNL1        0.1332
      2 N           0.7825    1.9495   28.3604 N.ar    1  UNL1       -0.2965
      3 C           0.4722    1.2711   29.6618 C.ar    1  UNL1        0.1670
      4 N          -0.8932    0.6600   29.5519 N.ar    1  UNL1       -0.1290
      5 N          -1.4268    0.9607   28.1827 N.ar    1  UNL1       -0.1330
      6 C          -0.3911    1.7577   27.4463 C.ar    1  UNL1        0.1464
      7 C           1.3699    1.2138   30.8623 C.ar    1  UNL1        0.0465
      8 C           1.1384    2.1429   32.0169 C.ar    1  UNL1        0.0039
      9 C           2.0360    2.0856   33.2172 C.ar    1  UNL1        0.0017
     10 C           3.1651    1.0992   33.2630 C.ar    1  UNL1        0.0200
     11 C           3.3966    0.1701   32.1084 C.ar    1  UNL1        0.0130
     12 C           2.4990    0.2274   30.9080 C.ar    1  UNL1        0.0606
     13 CL          2.7305   -0.7017   29.7534 Cl      1  UNL1       -0.0821
     14 C           4.0628    1.0419   34.4635 C.ar    1  UNL1        0.1005
     15 C           4.6603   -0.2656   34.8915 C.ar    1  UNL1        0.1179
     16 N           5.5579   -0.3229   36.0919 N.ar    1  UNL1       -0.2391
     17 C           5.8580    0.9274   36.8643 C.ar    1  UNL1        0.1195
     18 C           5.2604    2.2350   36.4363 C.ar    1  UNL1        0.1195
     19 N           4.3628    2.2923   35.2359 N.ar    1  UNL1       -0.2406
     20 C          -0.5086    2.2725   26.0423 C.3     1  UNL1        0.0765
     21 C           0.3566    1.1472   25.5574 C.3     1  UNL1        0.0466
     22 C           0.2392    1.6620   24.1534 C.3     1  UNL1        0.1625
     23 F           0.7680    1.2302   22.8177 F       1  UNL1       -0.2372
     24 C          -0.6260    2.7872   24.6383 C.3     1  UNL1        0.0466
     25 C          -1.3737    3.3977   26.5272 C.ar    1  UNL1       -0.0158
     26 C          -2.8636    3.3188   26.3721 C.ar    1  UNL1       -0.0030
     27 C          -3.7288    4.4441   26.8571 C.ar    1  UNL1        0.0111
     28 C          -3.1042    5.6484   27.4971 C.ar    1  UNL1        0.0577
     29 CL         -3.9694    6.7736   27.9820 Cl      1  UNL1       -0.0822
     30 C          -1.6143    5.7273   27.6522 C.ar    1  UNL1        0.0111
     31 C          -0.7491    4.6019   27.1672 C.ar    1  UNL1       -0.0030
@<TRIPOS>BOND
     1     1     2    1
     2     2     3   ar
     3     3     7    1
     4     7     8   ar
     5     8     9   ar
     6     9    10   ar
     7    10    14    1
     8    14    15   ar
     9    15    16   ar
    10    16    17   ar
    11    17    18   ar
    12    18    19   ar
    13    10    11   ar
    14    11    12   ar
    15    12    13    1
    16     3     4   ar
    17     4     5   ar
    18     5     6   ar
    19     6    20    1
    20    20    25    1
    21    25    26   ar
    22    26    27   ar
    23    27    28   ar
    24    28    29    1
    25    28    30   ar
    26    30    31   ar
    27    20    21    1
    28    21    22    1
    29    22    23    1
    30    22    24    1
    31     6     2   ar
    32    24    20    1
    33    12     7   ar
    34    31    25   ar
    35    19    14   ar
@<TRIPOS>MOLECULE
*****
 31 35 0 0 0
SMALL
GASTEIGER

@<TRIPOS>ATOM
      1 C           0.7840   -0.1797   20.5803 C.3     1  UNL1        0.1332
      2 N           1.9661    0.5951   21.0824 N.ar    1  UNL1       -0.2965
      3 C           1.9296    1.7021   22.0940 C.ar    1  UNL1        0.1670
      4 N           3.3333    2.1901   22.2979 N.ar    1  UNL1       -0.1290
      5 N           4.2373    1.3849   21.4123 N.ar    1  UNL1       -0.1330
      6 C           3.3923    0.3991   20.6611 C.ar    1  UNL1        0.1464
      7 C           0.7045    2.2285   22.7811 C.ar    1  UNL1        0.0465
      8 C          -0.2407    3.1294   22.0430 C.ar    1  UNL1        0.0039
      9 C          -1.4657    3.6558   22.7301 C.ar    1  UNL1        0.0017
     10 C          -1.7456    3.2813   24.1553 C.ar    1  UNL1        0.0200
     11 C          -0.8004    2.3803   24.8935 C.ar    1  UNL1        0.0130
     12 C           0.4246    1.8540   24.2064 C.ar    1  UNL1        0.0606
     13 CL          1.3699    0.9530   24.9446 Cl      1  UNL1       -0.0821
     14 C          -2.9707    3.8077   24.8424 C.ar    1  UNL1        0.1005
     15 C          -3.0335    3.8432   26.3407 C.ar    1  UNL1        0.1179
     16 N          -4.2586    4.3697   27.0278 N.ar    1  UNL1       -0.2391
     17 C          -5.4209    4.8605   26.2165 C.ar    1  UNL1        0.1195
     18 C          -5.3581    4.8250   24.7182 C.ar    1  UNL1        0.1195
     19 N          -4.1330    4.2986   24.0312 N.ar    1  UNL1       -0.2406
     20 C           3.8868   -0.6062   19.6637 C.3     1  UNL1        0.0765
     21 C           3.2360    0.1708   18.5579 C.3     1  UNL1        0.0466
     22 C           3.7305   -0.8345   17.5605 C.3     1  UNL1        0.1625
     23 F           3.6199   -0.9959   16.0733 F       1  UNL1       -0.2372
     24 C           4.3812   -1.6115   18.6662 C.3     1  UNL1        0.0466
     25 C           4.5375   -1.3833   20.7694 C.ar    1  UNL1       -0.0158
     26 C           6.0305   -1.5228   20.8101 C.ar    1  UNL1       -0.0030
     27 C           6.6812   -2.2998   21.9159 C.ar    1  UNL1        0.0111
     28 C           5.8390   -2.9374   22.9810 C.ar    1  UNL1        0.0577
     29 CL          6.4898   -3.7144   24.0868 Cl      1  UNL1       -0.0822
     30 C           4.3461   -2.7978   22.9403 C.ar    1  UNL1        0.0111
     31 C           3.6953   -2.0207   21.8344 C.ar    1  UNL1       -0.0030
@<TRIPOS>BOND
     1     1     2    1
     2     2     3   ar
     3     3     7    1
     4     7     8   ar
     5     8     9   ar
     6     9    10   ar
     7    10    14    1
     8    14    15   ar
     9    15    16   ar
    10    16    17   ar
    11    17    18   ar
    12    18    19   ar
    13    10    11   ar
    14    11    12   ar
    15    12    13    1
    16     3     4   ar
    17     4     5   ar
    18     5     6   ar
    19     6    20    1
    20    20    25    1
    21    25    26   ar
    22    26    27   ar
    23    27    28   ar
    24    28    29    1
    25    28    30   ar
    26    30    31   ar
    27    20    21    1
    28    21    22    1
    29    22    23    1
    30    22    24    1
    31     6     2   ar
    32    24    20    1
    33    12     7   ar
    34    31    25   ar
    35    19    14   ar
@<TRIPOS>MOLECULE
*****
 31 35 0 0 0
SMALL
GASTEIGER

@<TRIPOS>ATOM
      1 C           6.2183    1.5094   35.2330 C.3     1  UNL1        0.1332
      2 N           4.8196    1.6952   34.7239 N.ar    1  UNL1       -0.2965
      3 C           4.1449    0.8613   33.6754 C.ar    1  UNL1        0.1670
      4 N           2.7584    1.3982   33.4774 N.ar    1  UNL1       -0.1290
      5 N           2.5762    2.5640   34.4035 N.ar    1  UNL1       -0.1330
      6 C           3.8501    2.7476   35.1740 C.ar    1  UNL1        0.1464
      7 C           4.7505   -0.3049   32.9519 C.ar    1  UNL1        0.0465
      8 C           4.5842   -1.6931   33.4952 C.ar    1  UNL1        0.0039
      9 C           5.1897   -2.8591   32.7717 C.ar    1  UNL1        0.0017
     10 C           5.9616   -2.6370   31.5048 C.ar    1  UNL1        0.0200
     11 C           6.1280   -1.2488   30.9615 C.ar    1  UNL1        0.0130
     12 C           5.5224   -0.0828   31.6850 C.ar    1  UNL1        0.0606
     13 CL          5.6887    1.3055   31.1417 Cl      1  UNL1       -0.0821
     14 C           6.5672   -3.8032   30.7813 C.ar    1  UNL1        0.1005
     15 C           7.1874   -4.9272   31.5571 C.ar    1  UNL1        0.1179
     16 N           7.7930   -6.0934   30.8336 N.ar    1  UNL1       -0.2391
     17 C           7.7783   -6.1354   29.3343 C.ar    1  UNL1        0.1195
     18 C           7.1581   -5.0114   28.5585 C.ar    1  UNL1        0.1195
     19 N           6.5526   -3.8453   29.2820 N.ar    1  UNL1       -0.2406
     20 C           4.1090    3.7988   36.2121 C.3     1  UNL1        0.0765
     21 C           4.9382    4.5678   35.2267 C.3     1  UNL1        0.0466
     22 C           5.1971    5.6190   36.2648 C.3     1  UNL1        0.1625
     23 F           5.9665    6.9061   36.3020 F       1  UNL1       -0.2372
     24 C           4.3678    4.8501   37.2502 C.3     1  UNL1        0.0466
     25 C           3.2797    3.0299   37.1975 C.ar    1  UNL1       -0.0158
     26 C           1.9457    3.5613   37.6313 C.ar    1  UNL1       -0.0030
     27 C           1.1165    2.7924   38.6167 C.ar    1  UNL1        0.0111
     28 C           1.6213    1.4920   39.1685 C.ar    1  UNL1        0.0577
     29 CL          0.7921    0.7231   40.1539 Cl      1  UNL1       -0.0822
     30 C           2.9553    0.9606   38.7347 C.ar    1  UNL1        0.0111
     31 C           3.7845    1.7296   37.7492 C.ar    1  UNL1       -0.0030
@<TRIPOS>BOND
     1     1     2    1
     2     2     3   ar
     3     3     7    1
     4     7     8   ar
     5     8     9   ar
     6     9    10   ar
     7    10    14    1
     8    14    15   ar
     9    15    16   ar
    10    16    17   ar
    11    17    18   ar
    12    18    19   ar
    13    10    11   ar
    14    11    12   ar
    15    12    13    1
    16     3     4   ar
    17     4     5   ar
    18     5     6   ar
    19     6    20    1
    20    20    25    1
    21    25    26   ar
    22    26    27   ar
    23    27    28   ar
    24    28    29    1
    25    28    30   ar
    26    30    31   ar
    27    20    21    1
    28    21    22    1
    29    22    23    1
    30    22    24    1
    31     6     2   ar
    32    24    20    1
    33    12     7   ar
    34    31    25   ar
    35    19    14   ar
@<TRIPOS>MOLECULE
*****
 31 35 0 0 0
SMALL
GASTEIGER

@<TRIPOS>ATOM
      1 C           4.6367   -2.4744   23.1281 C.3     1  UNL1        0.1332
      2 N           5.7342   -3.3705   22.6357 N.ar    1  UNL1       -0.2965
      3 C           6.8126   -3.9874   23.4762 C.ar    1  UNL1        0.1670
      4 N           7.6908   -4.8052   22.5763 N.ar    1  UNL1       -0.1290
      5 N           7.1552   -4.6938   21.1796 N.ar    1  UNL1       -0.1330
      6 C           5.9458   -3.8071   21.2163 C.ar    1  UNL1        0.1464
      7 C           6.9829   -3.8164   24.9567 C.ar    1  UNL1        0.0465
      8 C           6.6522   -4.9471   25.8852 C.ar    1  UNL1        0.0039
      9 C           6.8225   -4.7761   27.3656 C.ar    1  UNL1        0.0017
     10 C           7.3235   -3.4744   27.9176 C.ar    1  UNL1        0.0200
     11 C           7.6541   -2.3437   26.9891 C.ar    1  UNL1        0.0130
     12 C           7.4838   -2.5147   25.5086 C.ar    1  UNL1        0.0606
     13 CL          7.8145   -1.3840   24.5801 Cl      1  UNL1       -0.0821
     14 C           7.4937   -3.3034   29.3981 C.ar    1  UNL1        0.1005
     15 C           8.4472   -2.2746   29.9295 C.ar    1  UNL1        0.1179
     16 N           8.6175   -2.1036   31.4100 N.ar    1  UNL1       -0.2391
     17 C           7.8343   -2.9615   32.3590 C.ar    1  UNL1        0.1195
     18 C           6.8808   -3.9904   31.8275 C.ar    1  UNL1        0.1195
     19 N           6.7106   -4.1613   30.3471 N.ar    1  UNL1       -0.2406
     20 C           5.0973   -3.4242   20.0402 C.3     1  UNL1        0.0765
     21 C           4.1892   -4.5854   20.3173 C.3     1  UNL1        0.0466
     22 C           3.3406   -4.2026   19.1412 C.3     1  UNL1        0.1625
     23 F           2.0985   -4.7530   18.5055 F       1  UNL1       -0.2372
     24 C           4.2487   -3.0413   18.8641 C.3     1  UNL1        0.0466
     25 C           6.0053   -2.2629   19.7631 C.ar    1  UNL1       -0.0158
     26 C           7.3919   -2.5024   19.2433 C.ar    1  UNL1       -0.0030
     27 C           8.3000   -1.3411   18.9662 C.ar    1  UNL1        0.0111
     28 C           7.8215    0.0597   19.2089 C.ar    1  UNL1        0.0577
     29 CL          8.7296    1.2210   18.9317 Cl      1  UNL1       -0.0822
     30 C           6.4350    0.2992   19.7286 C.ar    1  UNL1        0.0111
     31 C           5.5269   -0.8621   20.0057 C.ar    1  UNL1       -0.0030
@<TRIPOS>BOND
     1     1     2    1
     2     2     3   ar
     3     3     7    1
     4     7     8   ar
     5     8     9   ar
     6     9    10   ar
     7    10    14    1
     8    14    15   ar
     9    15    16   ar
    10    16    17   ar
    11    17    18   ar
    12    18    19   ar
    13    10    11   ar
    14    11    12   ar
    15    12    13    1
    16     3     4   ar
    17     4     5   ar
    18     5     6   ar
    19     6    20    1
    20    20    25    1
    21    25    26   ar
    22    26    27   ar
    23    27    28   ar
    24    28    29    1
    25    28    30   ar
    26    30    31   ar
    27    20    21    1
    28    21    22    1
    29    22    23    1
    30    22    24    1
    31     6     2   ar
    32    24    20    1
    33    12     7   ar
    34    31    25   ar
    35    19    14   ar
@<TRIPOS>MOLECULE
*****
 31 35 0 0 0
SMALL
GASTEIGER

@<TRIPOS>ATOM
      1 C           7.2251   -0.4501   36.9497 C.3     1  UNL1        0.1332
      2 N           6.4812    0.6219   36.2100 N.ar    1  UNL1       -0.2965
      3 C           6.0731    0.5768   34.7672 C.ar    1  UNL1        0.1670
      4 N           5.3544    1.8543   34.4487 N.ar    1  UNL1       -0.1290
      5 N           5.3183    2.6889   35.6944 N.ar    1  UNL1       -0.1330
      6 C           6.0147    1.9273   36.7830 C.ar    1  UNL1        0.1464
      7 C           6.3373   -0.5483   33.8110 C.ar    1  UNL1        0.0465
      8 C           7.6407   -0.6138   33.0716 C.ar    1  UNL1        0.0039
      9 C           7.9049   -1.7389   32.1154 C.ar    1  UNL1        0.0017
     10 C           6.8656   -2.7985   31.8986 C.ar    1  UNL1        0.0200
     11 C           5.5622   -2.7331   32.6380 C.ar    1  UNL1        0.0130
     12 C           5.2980   -1.6080   33.5942 C.ar    1  UNL1        0.0606
     13 CL          3.9945   -1.5426   34.3337 Cl      1  UNL1       -0.0821
     14 C           7.1298   -3.9237   30.9424 C.ar    1  UNL1        0.1005
     15 C           8.0166   -5.0624   31.3508 C.ar    1  UNL1        0.1179
     16 N           8.2808   -6.1876   30.3945 N.ar    1  UNL1       -0.2391
     17 C           7.6582   -6.1739   29.0299 C.ar    1  UNL1        0.1195
     18 C           6.7714   -5.0350   28.6215 C.ar    1  UNL1        0.1195
     19 N           6.5072   -3.9100   29.5778 N.ar    1  UNL1       -0.2406
     20 C           6.2103    2.3898   38.1965 C.3     1  UNL1        0.0765
     21 C           7.6920    2.4519   37.9711 C.3     1  UNL1        0.0466
     22 C           7.8876    2.9144   39.3845 C.3     1  UNL1        0.1625
     23 F           9.0736    3.2853   40.2246 F       1  UNL1       -0.2372
     24 C           6.4059    2.8523   39.6099 C.3     1  UNL1        0.0466
     25 C           4.7287    2.3278   38.4218 C.ar    1  UNL1       -0.0158
     26 C           4.0178    1.0077   38.3765 C.ar    1  UNL1       -0.0030
     27 C           2.5361    0.9456   38.6018 C.ar    1  UNL1        0.0111
     28 C           1.7653    2.2037   38.8725 C.ar    1  UNL1        0.0577
     29 CL          0.2836    2.1416   39.0979 Cl      1  UNL1       -0.0822
     30 C           2.4762    3.5238   38.9178 C.ar    1  UNL1        0.0111
     31 C           3.9579    3.5858   38.6925 C.ar    1  UNL1       -0.0030
@<TRIPOS>BOND
     1     1     2    1
     2     2     3   ar
     3     3     7    1
     4     7     8   ar
     5     8     9   ar
     6     9    10   ar
     7    10    14    1
     8    14    15   ar
     9    15    16   ar
    10    16    17   ar
    11    17    18   ar
    12    18    19   ar
    13    10    11   ar
    14    11    12   ar
    15    12    13    1
    16     3     4   ar
    17     4     5   ar
    18     5     6   ar
    19     6    20    1
    20    20    25    1
    21    25    26   ar
    22    26    27   ar
    23    27    28   ar
    24    28    29    1
    25    28    30   ar
    26    30    31   ar
    27    20    21    1
    28    21    22    1
    29    22    23    1
    30    22    24    1
    31     6     2   ar
    32    24    20    1
    33    12     7   ar
    34    31    25   ar
    35    19    14   ar
@<TRIPOS>MOLECULE
*****
 31 35 0 0 0
SMALL
GASTEIGER

@<TRIPOS>ATOM
      1 C           4.1372   -3.1890   21.1190 C.3     1  UNL1        0.1332
      2 N           5.0254   -2.0033   21.3538 N.ar    1  UNL1       -0.2965
      3 C           6.1408   -1.9214   22.3534 C.ar    1  UNL1        0.1670
      4 N           6.7590   -0.5589   22.2475 N.ar    1  UNL1       -0.1290
      5 N           6.0257    0.2014   21.1825 N.ar    1  UNL1       -0.1330
      6 C           4.9542   -0.6914   20.6301 C.ar    1  UNL1        0.1464
      7 C           6.5638   -3.0109   23.2937 C.ar    1  UNL1        0.0465
      8 C           6.2176   -2.9206   24.7504 C.ar    1  UNL1        0.0039
      9 C           6.6406   -4.0101   25.6907 C.ar    1  UNL1        0.0017
     10 C           7.4097   -5.1898   25.1743 C.ar    1  UNL1        0.0200
     11 C           7.7559   -5.2801   23.7176 C.ar    1  UNL1        0.0130
     12 C           7.3329   -4.1907   22.7773 C.ar    1  UNL1        0.0606
     13 CL          7.6791   -4.2809   21.3205 Cl      1  UNL1       -0.0821
     14 C           7.8326   -6.2793   26.1146 C.ar    1  UNL1        0.1005
     15 C           7.4775   -7.7061   25.8177 C.ar    1  UNL1        0.1179
     16 N           7.9005   -8.7956   26.7581 N.ar    1  UNL1       -0.2391
     17 C           8.6785   -8.4582   27.9953 C.ar    1  UNL1        0.1195
     18 C           9.0337   -7.0314   28.2922 C.ar    1  UNL1        0.1195
     19 N           8.6107   -5.9420   27.3519 N.ar    1  UNL1       -0.2406
     20 C           3.9823   -0.3347   19.5447 C.3     1  UNL1        0.0765
     21 C           4.7536   -1.1812   18.5759 C.3     1  UNL1        0.0466
     22 C           3.7817   -0.8245   17.4905 C.3     1  UNL1        0.1625
     23 F           3.6399   -1.1709   16.0379 F       1  UNL1       -0.2372
     24 C           3.0104    0.0219   18.4593 C.3     1  UNL1        0.0466
     25 C           3.2110    0.5117   20.5135 C.ar    1  UNL1       -0.0158
     26 C           3.2760    2.0074   20.4197 C.ar    1  UNL1       -0.0030
     27 C           2.5047    2.8539   21.3885 C.ar    1  UNL1        0.0111
     28 C           1.6683    2.2047   22.4511 C.ar    1  UNL1        0.0577
     29 CL          0.8970    3.0511   23.4199 Cl      1  UNL1       -0.0822
     30 C           1.6033    0.7090   22.5449 C.ar    1  UNL1        0.0111
     31 C           2.3747   -0.1375   21.5760 C.ar    1  UNL1       -0.0030
@<TRIPOS>BOND
     1     1     2    1
     2     2     3   ar
     3     3     7    1
     4     7     8   ar
     5     8     9   ar
     6     9    10   ar
     7    10    14    1
     8    14    15   ar
     9    15    16   ar
    10    16    17   ar
    11    17    18   ar
    12    18    19   ar
    13    10    11   ar
    14    11    12   ar
    15    12    13    1
    16     3     4   ar
    17     4     5   ar
    18     5     6   ar
    19     6    20    1
    20    20    25    1
    21    25    26   ar
    22    26    27   ar
    23    27    28   ar
    24    28    29    1
    25    28    30   ar
    26    30    31   ar
    27    20    21    1
    28    21    22    1
    29    22    23    1
    30    22    24    1
    31     6     2   ar
    32    24    20    1
    33    12     7   ar
    34    31    25   ar
    35    19    14   ar
