@<TRIPOS>MOLECULE
*****
 46 50 0 0 0
SMALL
GASTEIGER

@<TRIPOS>ATOM
      1 C           3.5956    1.8590   33.2855 C.3     1  UNL1        0.0972
      2 C           4.4963    2.5727   32.3214 C.3     1  UNL1        0.0431
      3 C           3.8768    2.4872   30.9580 C.3     1  UNL1        0.0968
      4 N           2.5932    1.7206   31.0794 N.am    1  UNL1       -0.2623
      5 C           1.6491    1.3987   29.9591 C.2     1  UNL1        0.3073
      6 O           0.3971    0.6197   30.2338 O.2     1  UNL1       -0.2523
      7 N           1.9571    1.8559   28.5641 N.am    1  UNL1       -0.2626
      8 C           3.1639    2.6388   28.1390 C.3     1  UNL1        0.0964
      9 C           3.0650    2.8772   26.6614 C.3     1  UNL1        0.0390
     10 C           1.7970    2.2416   26.1732 C.3     1  UNL1        0.0759
     11 C           1.1123    1.6104   27.3492 C.3     1  UNL1        0.1106
     12 C           2.4194    1.3324   32.5179 C.3     1  UNL1        0.1147
     13 C           3.3305    2.7425   35.7143 C.3     1  UNL1        0.1152
     14 N           3.8300    1.6999   34.7585 N.am    1  UNL1       -0.2742
     15 C           4.5638    0.4982   35.2757 C.2     1  UNL1        0.2491
     16 O           4.7982    0.3391   36.7487 O.2     1  UNL1       -0.2699
     17 C           5.0633   -0.5444   34.3198 C.ar    1  UNL1        0.0536
     18 C           6.4116   -0.3915   33.6806 C.ar    1  UNL1        0.0045
     19 C           6.9111   -1.4340   32.7249 C.ar    1  UNL1        0.0001
     20 C           6.0622   -2.6295   32.4083 C.ar    1  UNL1        0.0000
     21 C           4.7138   -2.7824   33.0474 C.ar    1  UNL1        0.0001
     22 C           4.2144   -1.7398   34.0032 C.ar    1  UNL1        0.0045
     23 C           6.5617   -3.6721   31.4524 C.ar    1  UNL1       -0.0000
     24 C           6.6876   -3.3523   29.9924 C.ar    1  UNL1       -0.0001
     25 C           7.1871   -4.3949   29.0365 C.ar    1  UNL1        0.0039
     26 C           7.5606   -5.7573   29.5408 C.ar    1  UNL1        0.0714
     27 C           7.4347   -6.0771   31.0010 C.ar    1  UNL1        0.0039
     28 C           6.9352   -5.0345   31.9567 C.ar    1  UNL1       -0.0001
     29 C           8.0601   -6.7998   28.5851 C.3     1  UNL1        0.4186
     30 F           8.5596   -7.8424   27.6293 F       1  UNL1       -0.1659
     31 F           7.0912   -6.3137   27.5484 F       1  UNL1       -0.1659
     32 F           9.0290   -7.2860   29.6218 F       1  UNL1       -0.1659
     33 N           1.3010    2.2379   24.7576 N.3     1  UNL1       -0.2971
     34 H           1.7408    3.0302   24.2894 H       1  UNL1        0.1233
     35 C           1.5293    1.0386   23.8861 C.3     1  UNL1        0.0689
     36 C           2.8070    0.2611   23.9999 C.3     1  UNL1        0.0211
     37 C           3.1607   -0.7575   22.9570 C.3     1  UNL1        0.0203
     38 C           2.3121   -0.0288   21.9576 C.3     1  UNL1        0.0044
     39 C           4.0092   -1.4861   23.9565 C.3     1  UNL1        0.0044
     40 C           3.5143   -1.7760   21.9142 C.ar    1  UNL1       -0.0227
     41 C           4.3228   -2.9828   22.2882 C.ar    1  UNL1       -0.0034
     42 C           4.6764   -4.0013   21.2453 C.ar    1  UNL1        0.0111
     43 C           4.2214   -3.8130   19.8285 C.ar    1  UNL1        0.0577
     44 CL          4.5749   -4.8315   18.7855 Cl      1  UNL1       -0.0822
     45 C           3.4128   -2.6062   19.4545 C.ar    1  UNL1        0.0111
     46 C           3.0592   -1.5877   20.4973 C.ar    1  UNL1       -0.0034
@<TRIPOS>BOND
     1    13    14    1
     2    14    15   am
     3    15    16    2
     4    15    17    1
     5    17    18   ar
     6    18    19   ar
     7    19    20   ar
     8    20    23    1
     9    23    24   ar
    10    24    25   ar
    11    25    26   ar
    12    26    29    1
    13    29    30    1
    14    29    31    1
    15    29    32    1
    16    26    27   ar
    17    27    28   ar
    18    20    21   ar
    19    21    22   ar
    20     1    14    1
    21     1     2    1
    22     2     3    1
    23     3     4    1
    24     4     5   am
    25     5     6    2
    26     5     7   am
    27     7     8    1
    28     8     9    1
    29     9    10    1
    30    10    33    1
    31    33    35    1
    32    35    36    1
    33    36    37    1
    34    37    38    1
    35    37    39    1
    36    37    40    1
    37    40    41   ar
    38    41    42   ar
    39    42    43   ar
    40    43    44    1
    41    43    45   ar
    42    45    46   ar
    43    10    11    1
    44     4    12    1
    45    22    17   ar
    46    12     1    1
    47    28    23   ar
    48    11     7    1
    49    46    40   ar
    50    33    34    1
@<TRIPOS>MOLECULE
*****
 46 50 0 0 0
SMALL
GASTEIGER

@<TRIPOS>ATOM
      1 C           6.9393   -1.6410   30.4710 C.3     1  UNL1        0.0972
      2 C           7.3523   -0.6963   29.3815 C.3     1  UNL1        0.0431
      3 C           7.2692   -1.4298   28.0757 C.3     1  UNL1        0.0968
      4 N           6.8049   -2.8279   28.3582 N.am    1  UNL1       -0.2623
      5 C           6.5834   -3.9062   27.3392 C.2     1  UNL1        0.3073
      6 O           6.1150   -5.2634   27.7732 O.2     1  UNL1       -0.2523
      7 N           6.8302   -3.6271   25.8862 N.am    1  UNL1       -0.2626
      8 C           7.2976   -2.3254   25.3054 C.3     1  UNL1        0.0964
      9 C           7.4093   -2.4946   23.8191 C.3     1  UNL1        0.0390
     10 C           7.0109   -3.9008   23.4814 C.3     1  UNL1        0.0759
     11 C           6.6531   -4.6007   24.7590 C.3     1  UNL1        0.1106
     12 C           6.6010   -2.9584   29.8385 C.3     1  UNL1        0.1147
     13 C           7.9594   -1.8048   32.8548 C.3     1  UNL1        0.1152
     14 N           6.8758   -1.3240   31.9357 N.am    1  UNL1       -0.2742
     15 C           5.7288   -0.5263   32.4814 C.2     1  UNL1        0.2491
     16 O           5.6653   -0.2092   33.9461 O.2     1  UNL1       -0.2699
     17 C           4.6451   -0.0455   31.5623 C.ar    1  UNL1        0.0536
     18 C           3.4836   -0.9383   31.2406 C.ar    1  UNL1        0.0045
     19 C           2.4000   -0.4575   30.3216 C.ar    1  UNL1        0.0001
     20 C           2.4780    0.9162   29.7242 C.ar    1  UNL1        0.0000
     21 C           3.6396    1.8091   30.0459 C.ar    1  UNL1        0.0001
     22 C           4.7231    1.3282   30.9649 C.ar    1  UNL1        0.0045
     23 C           1.3944    1.3970   28.8051 C.ar    1  UNL1       -0.0000
     24 C           0.1044    0.6382   28.7051 C.ar    1  UNL1       -0.0001
     25 C          -0.9793    1.1190   27.7860 C.ar    1  UNL1        0.0039
     26 C          -0.7728    2.3586   26.9669 C.ar    1  UNL1        0.0714
     27 C           0.5174    3.1173   27.0670 C.ar    1  UNL1        0.0039
     28 C           1.6009    2.6365   27.9860 C.ar    1  UNL1       -0.0001
     29 C          -1.8563    2.8394   26.0479 C.3     1  UNL1        0.4186
     30 F          -2.9398    3.3202   25.1288 F       1  UNL1       -0.1659
     31 F          -1.0274    2.4418   24.8627 F       1  UNL1       -0.1659
     32 F          -2.6852    3.2370   27.2331 F       1  UNL1       -0.1659
     33 N           6.9765   -4.5015   22.1074 N.3     1  UNL1       -0.2971
     34 H           6.5250   -5.4119   22.1953 H       1  UNL1        0.1233
     35 C           6.2824   -3.7798   20.9906 C.3     1  UNL1        0.0689
     36 C           4.8035   -3.9406   20.7985 C.3     1  UNL1        0.0211
     37 C           3.9851   -2.7944   20.2824 C.3     1  UNL1        0.0203
     38 C           4.2909   -2.0156   21.5274 C.3     1  UNL1        0.0044
     39 C           3.6793   -3.5733   19.0375 C.3     1  UNL1        0.0044
     40 C           3.1667   -1.6481   19.7663 C.ar    1  UNL1       -0.0227
     41 C           3.5681   -0.9497   18.5010 C.ar    1  UNL1       -0.0034
     42 C           2.7497    0.1966   17.9850 C.ar    1  UNL1        0.0111
     43 C           1.5299    0.6444   18.7343 C.ar    1  UNL1        0.0577
     44 CL          0.7115    1.7907   18.2183 Cl      1  UNL1       -0.0822
     45 C           1.1285   -0.0540   19.9996 C.ar    1  UNL1        0.0111
     46 C           1.9469   -1.2003   20.5157 C.ar    1  UNL1       -0.0034
@<TRIPOS>BOND
     1    13    14    1
     2    14    15   am
     3    15    16    2
     4    15    17    1
     5    17    18   ar
     6    18    19   ar
     7    19    20   ar
     8    20    23    1
     9    23    24   ar
    10    24    25   ar
    11    25    26   ar
    12    26    29    1
    13    29    30    1
    14    29    31    1
    15    29    32    1
    16    26    27   ar
    17    27    28   ar
    18    20    21   ar
    19    21    22   ar
    20     1    14    1
    21     1     2    1
    22     2     3    1
    23     3     4    1
    24     4     5   am
    25     5     6    2
    26     5     7   am
    27     7     8    1
    28     8     9    1
    29     9    10    1
    30    10    33    1
    31    33    35    1
    32    35    36    1
    33    36    37    1
    34    37    38    1
    35    37    39    1
    36    37    40    1
    37    40    41   ar
    38    41    42   ar
    39    42    43   ar
    40    43    44    1
    41    43    45   ar
    42    45    46   ar
    43    10    11    1
    44     4    12    1
    45    22    17   ar
    46    12     1    1
    47    28    23   ar
    48    11     7    1
    49    46    40   ar
    50    33    34    1
@<TRIPOS>MOLECULE
*****
 46 50 0 0 0
SMALL
GASTEIGER

@<TRIPOS>ATOM
      1 C           3.3489    0.2720   29.1321 C.3     1  UNL1        0.0972
      2 C           2.8027   -0.9178   28.3999 C.3     1  UNL1        0.0431
      3 C           3.4634   -0.9776   27.0546 C.3     1  UNL1        0.0968
      4 N           4.4180    0.1752   26.9553 N.am    1  UNL1       -0.2623
      5 C           5.2902    0.4989   25.7787 C.2     1  UNL1        0.3073
      6 O           6.1993    1.6910   25.8245 O.2     1  UNL1       -0.2523
      7 N           5.2533   -0.3697   24.5563 N.am    1  UNL1       -0.2626
      8 C           4.3995   -1.5883   24.3660 C.3     1  UNL1        0.0964
      9 C           4.6822   -2.1439   23.0016 C.3     1  UNL1        0.0390
     10 C           5.7107   -1.2686   22.3487 C.3     1  UNL1        0.0759
     11 C           6.0636   -0.1721   23.3096 C.3     1  UNL1        0.1106
     12 C           4.3472    0.9474   28.2393 C.3     1  UNL1        0.1147
     13 C           3.8197    0.3293   31.6865 C.3     1  UNL1        0.1152
     14 N           2.9643    0.7094   30.5144 N.am    1  UNL1       -0.2742
     15 C           1.7243    1.5270   30.7245 C.2     1  UNL1        0.2491
     16 O           1.3398    1.9644   32.1068 O.2     1  UNL1       -0.2699
     17 C           0.8689    1.9070   29.5524 C.ar    1  UNL1        0.0536
     18 C           1.0876    3.2187   28.8584 C.ar    1  UNL1        0.0045
     19 C           0.2322    3.5987   27.6863 C.ar    1  UNL1        0.0001
     20 C          -0.8418    2.6671   27.2082 C.ar    1  UNL1        0.0000
     21 C          -1.0605    1.3554   27.9022 C.ar    1  UNL1        0.0001
     22 C          -0.2051    0.9754   29.0743 C.ar    1  UNL1        0.0045
     23 C          -1.6972    3.0472   26.0360 C.ar    1  UNL1       -0.0000
     24 C          -1.1225    3.0284   24.6507 C.ar    1  UNL1       -0.0001
     25 C          -1.9779    3.4085   23.4785 C.ar    1  UNL1        0.0039
     26 C          -3.4081    3.8074   23.6918 C.ar    1  UNL1        0.0714
     27 C          -3.9828    3.8262   25.0772 C.ar    1  UNL1        0.0039
     28 C          -3.1274    3.4461   26.2493 C.ar    1  UNL1       -0.0001
     29 C          -4.2635    4.1874   22.5197 C.3     1  UNL1        0.4186
     30 F          -5.1189    4.5675   21.3477 F       1  UNL1       -0.1659
     31 F          -3.5970    5.5302   22.4688 F       1  UNL1       -0.1659
     32 F          -4.9299    2.8446   22.5707 F       1  UNL1       -0.1659
     33 N           6.2853   -1.4569   20.9760 N.3     1  UNL1       -0.2971
     34 H           7.2578   -1.7384   21.1000 H       1  UNL1        0.1233
     35 C           5.6654   -2.4446   20.0326 C.3     1  UNL1        0.0689
     36 C           4.8289   -1.9623   18.8848 C.3     1  UNL1        0.0211
     37 C           3.6715   -1.0415   19.1350 C.3     1  UNL1        0.0203
     38 C           2.9516   -2.1424   19.8560 C.3     1  UNL1        0.0044
     39 C           4.3914    0.0593   18.4141 C.3     1  UNL1        0.0044
     40 C           2.5140   -0.1208   19.3853 C.ar    1  UNL1       -0.0227
     41 C           1.4447   -0.5089   20.3631 C.ar    1  UNL1       -0.0034
     42 C           0.2873    0.4118   20.6134 C.ar    1  UNL1        0.0111
     43 C           0.1992    1.7206   19.8859 C.ar    1  UNL1        0.0577
     44 CL         -0.9582    2.6414   20.1361 Cl      1  UNL1       -0.0822
     45 C           1.2685    2.1087   18.9081 C.ar    1  UNL1        0.0111
     46 C           2.4259    1.1880   18.6578 C.ar    1  UNL1       -0.0034
@<TRIPOS>BOND
     1    13    14    1
     2    14    15   am
     3    15    16    2
     4    15    17    1
     5    17    18   ar
     6    18    19   ar
     7    19    20   ar
     8    20    23    1
     9    23    24   ar
    10    24    25   ar
    11    25    26   ar
    12    26    29    1
    13    29    30    1
    14    29    31    1
    15    29    32    1
    16    26    27   ar
    17    27    28   ar
    18    20    21   ar
    19    21    22   ar
    20     1    14    1
    21     1     2    1
    22     2     3    1
    23     3     4    1
    24     4     5   am
    25     5     6    2
    26     5     7   am
    27     7     8    1
    28     8     9    1
    29     9    10    1
    30    10    33    1
    31    33    35    1
    32    35    36    1
    33    36    37    1
    34    37    38    1
    35    37    39    1
    36    37    40    1
    37    40    41   ar
    38    41    42   ar
    39    42    43   ar
    40    43    44    1
    41    43    45   ar
    42    45    46   ar
    43    10    11    1
    44     4    12    1
    45    22    17   ar
    46    12     1    1
    47    28    23   ar
    48    11     7    1
    49    46    40   ar
    50    33    34    1
@<TRIPOS>MOLECULE
*****
 46 50 0 0 0
SMALL
GASTEIGER

@<TRIPOS>ATOM
      1 C          -1.7005    4.8015   24.1693 C.3     1  UNL1        0.0972
      2 C          -2.5174    3.6216   24.6056 C.3     1  UNL1        0.0431
      3 C          -1.7161    2.8494   25.6114 C.3     1  UNL1        0.0968
      4 N          -0.4039    3.5521   25.7968 N.am    1  UNL1       -0.2623
      5 C           0.7041    3.1236   26.7125 C.2     1  UNL1        0.3073
      6 O           1.9655    3.9312   26.7927 O.2     1  UNL1       -0.2523
      7 N           0.5506    1.8875   27.5482 N.am    1  UNL1       -0.2626
      8 C          -0.6464    0.9837   27.5743 C.3     1  UNL1        0.0964
      9 C          -0.3696   -0.1243   28.5467 C.3     1  UNL1        0.0390
     10 C           0.9985    0.0947   29.1217 C.3     1  UNL1        0.0759
     11 C           1.5672    1.3380   28.5046 C.3     1  UNL1        0.1106
     12 C          -0.3943    4.7586   24.9055 C.3     1  UNL1        0.1147
     13 C          -2.9494    7.0101   23.6101 C.3     1  UNL1        0.1152
     14 N          -2.1168    5.8418   23.1720 N.am    1  UNL1       -0.2742
     15 C          -1.7004    5.7138   21.7367 C.2     1  UNL1        0.2491
     16 O          -2.1166    6.7541   20.7394 O.2     1  UNL1       -0.2699
     17 C          -0.8677    4.5455   21.2986 C.ar    1  UNL1        0.0536
     18 C          -1.5295    3.2577   20.9071 C.ar    1  UNL1        0.0045
     19 C          -0.6969    2.0895   20.4690 C.ar    1  UNL1        0.0001
     20 C           0.7976    2.2091   20.4225 C.ar    1  UNL1        0.0000
     21 C           1.4595    3.4970   20.8141 C.ar    1  UNL1        0.0001
     22 C           0.6268    4.6652   21.2521 C.ar    1  UNL1        0.0045
     23 C           1.6303    1.0408   19.9845 C.ar    1  UNL1       -0.0000
     24 C           1.7770   -0.1534   20.8801 C.ar    1  UNL1       -0.0001
     25 C           2.6096   -1.3217   20.4420 C.ar    1  UNL1        0.0039
     26 C           3.2956   -1.2957   19.1083 C.ar    1  UNL1        0.0714
     27 C           3.1489   -0.1013   18.2127 C.ar    1  UNL1        0.0039
     28 C           2.3163    1.0669   18.6507 C.ar    1  UNL1       -0.0001
     29 C           4.1282   -2.4639   18.6702 C.3     1  UNL1        0.4186
     30 F           4.9609   -3.6321   18.2321 F       1  UNL1       -0.1659
     31 F           5.0549   -1.5322   17.9469 F       1  UNL1       -0.1659
     32 F           3.2016   -3.3956   19.3935 F       1  UNL1       -0.1659
     33 N           1.6784   -0.7768   30.1358 N.3     1  UNL1       -0.2971
     34 H           1.9117   -1.6505   29.6640 H       1  UNL1        0.1233
     35 C           2.9299   -0.3028   30.8133 C.3     1  UNL1        0.0689
     36 C           3.5483   -1.1237   31.9058 C.3     1  UNL1        0.0211
     37 C           3.9131   -0.4818   33.2116 C.3     1  UNL1        0.0203
     38 C           3.3878    0.8316   32.7125 C.3     1  UNL1        0.0044
     39 C           4.4383   -1.7952   33.7105 C.3     1  UNL1        0.0044
     40 C           4.2778    0.1602   34.5173 C.ar    1  UNL1       -0.0227
     41 C           3.7097    1.5006   34.8785 C.ar    1  UNL1       -0.0034
     42 C           4.0744    2.1426   36.1842 C.ar    1  UNL1        0.0111
     43 C           5.0073    1.4441   37.1286 C.ar    1  UNL1        0.0577
     44 CL          5.3721    2.0860   38.4343 Cl      1  UNL1       -0.0822
     45 C           5.5755    0.1037   36.7673 C.ar    1  UNL1        0.0111
     46 C           5.2107   -0.5383   35.4616 C.ar    1  UNL1       -0.0034
@<TRIPOS>BOND
     1    13    14    1
     2    14    15   am
     3    15    16    2
     4    15    17    1
     5    17    18   ar
     6    18    19   ar
     7    19    20   ar
     8    20    23    1
     9    23    24   ar
    10    24    25   ar
    11    25    26   ar
    12    26    29    1
    13    29    30    1
    14    29    31    1
    15    29    32    1
    16    26    27   ar
    17    27    28   ar
    18    20    21   ar
    19    21    22   ar
    20     1    14    1
    21     1     2    1
    22     2     3    1
    23     3     4    1
    24     4     5   am
    25     5     6    2
    26     5     7   am
    27     7     8    1
    28     8     9    1
    29     9    10    1
    30    10    33    1
    31    33    35    1
    32    35    36    1
    33    36    37    1
    34    37    38    1
    35    37    39    1
    36    37    40    1
    37    40    41   ar
    38    41    42   ar
    39    42    43   ar
    40    43    44    1
    41    43    45   ar
    42    45    46   ar
    43    10    11    1
    44     4    12    1
    45    22    17   ar
    46    12     1    1
    47    28    23   ar
    48    11     7    1
    49    46    40   ar
    50    33    34    1
@<TRIPOS>MOLECULE
*****
 46 50 0 0 0
SMALL
GASTEIGER

@<TRIPOS>ATOM
      1 C          -0.0231    5.5311   21.4145 C.3     1  UNL1        0.0972
      2 C           1.2686    5.3076   22.1435 C.3     1  UNL1        0.0431
      3 C           0.9723    4.5067   23.3768 C.3     1  UNL1        0.0968
      4 N          -0.5026    4.2353   23.4099 N.am    1  UNL1       -0.2623
      5 C          -1.2339    3.4659   24.4697 C.2     1  UNL1        0.3073
      6 O          -2.7181    3.2748   24.3682 O.2     1  UNL1       -0.2523
      7 N          -0.4809    2.8876   25.6309 N.am    1  UNL1       -0.2626
      8 C           0.9967    2.9963   25.8659 C.3     1  UNL1        0.0964
      9 C           1.3176    2.2750   27.1413 C.3     1  UNL1        0.0390
     10 C           0.0383    1.7204   27.6946 C.3     1  UNL1        0.0759
     11 C          -1.0731    2.0990   26.7611 C.3     1  UNL1        0.1106
     12 C          -1.1177    4.8684   22.1972 C.3     1  UNL1        0.1147
     13 C          -0.7934    7.6586   20.1376 C.3     1  UNL1        0.1152
     14 N          -0.1907    6.2850   20.1286 N.am    1  UNL1       -0.2742
     15 C           0.2443    5.6653   18.8337 C.2     1  UNL1        0.2491
     16 O           0.0767    6.4192   17.5478 O.2     1  UNL1       -0.2699
     17 C           0.8470    4.2917   18.8247 C.ar    1  UNL1        0.0536
     18 C           2.3374    4.1264   18.8634 C.ar    1  UNL1        0.0045
     19 C           2.9400    2.7528   18.8544 C.ar    1  UNL1        0.0001
     20 C           2.0523    1.5446   18.8067 C.ar    1  UNL1        0.0000
     21 C           0.5620    1.7100   18.7681 C.ar    1  UNL1        0.0001
     22 C          -0.0406    3.0835   18.7771 C.ar    1  UNL1        0.0045
     23 C           2.6550    0.1710   18.7978 C.ar    1  UNL1       -0.0000
     24 C           2.3877   -0.7728   19.9325 C.ar    1  UNL1       -0.0001
     25 C           2.9904   -2.1464   19.9235 C.ar    1  UNL1        0.0039
     26 C           3.8605   -2.5761   18.7797 C.ar    1  UNL1        0.0714
     27 C           4.1278   -1.6323   17.6449 C.ar    1  UNL1        0.0039
     28 C           3.5251   -0.2588   17.6539 C.ar    1  UNL1       -0.0001
     29 C           4.4632   -3.9497   18.7707 C.3     1  UNL1        0.4186
     30 F           5.0659   -5.3232   18.7617 F       1  UNL1       -0.1659
     31 F           3.0900   -4.5524   18.8038 F       1  UNL1       -0.1659
     32 F           5.8363   -3.3469   18.7376 F       1  UNL1       -0.1659
     33 N          -0.1043    0.9266   28.9593 N.3     1  UNL1       -0.2971
     34 H          -0.4544    0.0067   28.6917 H       1  UNL1        0.1233
     35 C           1.0887    0.6968   29.8391 C.3     1  UNL1        0.0689
     36 C           1.4468    1.7007   30.8945 C.3     1  UNL1        0.0211
     37 C           2.3081    1.2954   32.0538 C.3     1  UNL1        0.0203
     38 C           1.6935    2.3792   32.8891 C.3     1  UNL1        0.0044
     39 C           2.9227    0.2118   31.2184 C.3     1  UNL1        0.0044
     40 C           3.1694    0.8903   33.2131 C.ar    1  UNL1       -0.0227
     41 C           3.8838   -0.4285   33.1919 C.ar    1  UNL1       -0.0034
     42 C           4.7451   -0.8336   34.3512 C.ar    1  UNL1        0.0111
     43 C           4.8918    0.0800   35.5318 C.ar    1  UNL1        0.0577
     44 CL          5.7531   -0.3251   36.6912 Cl      1  UNL1       -0.0822
     45 C           4.1774    1.3987   35.5530 C.ar    1  UNL1        0.0111
     46 C           3.3161    1.8039   34.3937 C.ar    1  UNL1       -0.0034
@<TRIPOS>BOND
     1    13    14    1
     2    14    15   am
     3    15    16    2
     4    15    17    1
     5    17    18   ar
     6    18    19   ar
     7    19    20   ar
     8    20    23    1
     9    23    24   ar
    10    24    25   ar
    11    25    26   ar
    12    26    29    1
    13    29    30    1
    14    29    31    1
    15    29    32    1
    16    26    27   ar
    17    27    28   ar
    18    20    21   ar
    19    21    22   ar
    20     1    14    1
    21     1     2    1
    22     2     3    1
    23     3     4    1
    24     4     5   am
    25     5     6    2
    26     5     7   am
    27     7     8    1
    28     8     9    1
    29     9    10    1
    30    10    33    1
    31    33    35    1
    32    35    36    1
    33    36    37    1
    34    37    38    1
    35    37    39    1
    36    37    40    1
    37    40    41   ar
    38    41    42   ar
    39    42    43   ar
    40    43    44    1
    41    43    45   ar
    42    45    46   ar
    43    10    11    1
    44     4    12    1
    45    22    17   ar
    46    12     1    1
    47    28    23   ar
    48    11     7    1
    49    46    40   ar
    50    33    34    1
@<TRIPOS>MOLECULE
*****
 46 50 0 0 0
SMALL
GASTEIGER

@<TRIPOS>ATOM
      1 C          -1.3918    4.7834   23.9586 C.3     1  UNL1        0.0972
      2 C          -2.1857    3.5655   24.3280 C.3     1  UNL1        0.0431
      3 C          -1.4316    2.8260   25.3930 C.3     1  UNL1        0.0968
      4 N          -0.1716    3.5868   25.6819 N.am    1  UNL1       -0.2623
      5 C           0.8794    3.2049   26.6818 C.2     1  UNL1        0.3073
      6 O           2.0923    4.0687   26.8618 O.2     1  UNL1       -0.2523
      7 N           0.7172    1.9593   27.5016 N.am    1  UNL1       -0.2626
      8 C          -0.4356    1.0020   27.4323 C.3     1  UNL1        0.0964
      9 C          -0.1859   -0.0967   28.4225 C.3     1  UNL1        0.0390
     10 C           1.1213    0.1815   29.1038 C.3     1  UNL1        0.0759
     11 C           1.6794    1.4522   28.5346 C.3     1  UNL1        0.1106
     12 C          -0.1470    4.7965   24.7954 C.3     1  UNL1        0.1147
     13 C          -2.5786    7.0091   23.3358 C.3     1  UNL1        0.1152
     14 N          -1.7753    5.8082   22.9326 N.am    1  UNL1       -0.2742
     15 C          -1.3556    5.6321   21.5033 C.2     1  UNL1        0.2491
     16 O          -1.7391    6.6569   20.4773 O.2     1  UNL1       -0.2699
     17 C          -0.5523    4.4312   21.1000 C.ar    1  UNL1        0.0536
     18 C          -1.2422    3.1332   20.8014 C.ar    1  UNL1        0.0045
     19 C          -0.4389    1.9323   20.3981 C.ar    1  UNL1        0.0001
     20 C           1.0543    2.0295   20.2935 C.ar    1  UNL1        0.0000
     21 C           1.7442    3.3275   20.5921 C.ar    1  UNL1        0.0001
     22 C           0.9409    4.5283   20.9954 C.ar    1  UNL1        0.0045
     23 C           1.8576    0.8286   19.8902 C.ar    1  UNL1       -0.0000
     24 C           1.8979   -0.3795   20.7784 C.ar    1  UNL1       -0.0001
     25 C           2.7012   -1.5804   20.3751 C.ar    1  UNL1        0.0039
     26 C           3.4642   -1.5732   19.0836 C.ar    1  UNL1        0.0714
     27 C           3.4238   -0.3650   18.1954 C.ar    1  UNL1        0.0039
     28 C           2.6205    0.8358   18.5987 C.ar    1  UNL1       -0.0001
     29 C           4.2674   -2.7740   18.6803 C.3     1  UNL1        0.4186
     30 F           5.0707   -3.9749   18.2770 F       1  UNL1       -0.1659
     31 F           3.1748   -3.6725   19.1792 F       1  UNL1       -0.1659
     32 F           5.3601   -1.8756   18.1814 F       1  UNL1       -0.1659
     33 N           1.7583   -0.6627   30.1674 N.3     1  UNL1       -0.2971
     34 H           2.2278   -1.4324   29.6905 H       1  UNL1        0.1233
     35 C           2.7613   -0.0577   31.1045 C.3     1  UNL1        0.0689
     36 C           4.2063    0.0182   30.7094 C.3     1  UNL1        0.0211
     37 C           5.0502   -1.2220   30.7100 C.3     1  UNL1        0.0203
     38 C           4.7734   -1.4096   32.1722 C.3     1  UNL1        0.0044
     39 C           5.3269   -1.0343   29.2478 C.3     1  UNL1        0.0044
     40 C           5.8941   -2.4621   30.7106 C.ar    1  UNL1       -0.0227
     41 C           6.5402   -2.9303   29.4405 C.ar    1  UNL1       -0.0034
     42 C           7.3841   -4.1704   29.4411 C.ar    1  UNL1        0.0111
     43 C           7.5817   -4.9423   30.7119 C.ar    1  UNL1        0.0577
     44 CL          8.4255   -6.1825   30.7127 Cl      1  UNL1       -0.0822
     45 C           6.9355   -4.4742   31.9821 C.ar    1  UNL1        0.0111
     46 C           6.0917   -3.2340   31.9814 C.ar    1  UNL1       -0.0034
@<TRIPOS>BOND
     1    13    14    1
     2    14    15   am
     3    15    16    2
     4    15    17    1
     5    17    18   ar
     6    18    19   ar
     7    19    20   ar
     8    20    23    1
     9    23    24   ar
    10    24    25   ar
    11    25    26   ar
    12    26    29    1
    13    29    30    1
    14    29    31    1
    15    29    32    1
    16    26    27   ar
    17    27    28   ar
    18    20    21   ar
    19    21    22   ar
    20     1    14    1
    21     1     2    1
    22     2     3    1
    23     3     4    1
    24     4     5   am
    25     5     6    2
    26     5     7   am
    27     7     8    1
    28     8     9    1
    29     9    10    1
    30    10    33    1
    31    33    35    1
    32    35    36    1
    33    36    37    1
    34    37    38    1
    35    37    39    1
    36    37    40    1
    37    40    41   ar
    38    41    42   ar
    39    42    43   ar
    40    43    44    1
    41    43    45   ar
    42    45    46   ar
    43    10    11    1
    44     4    12    1
    45    22    17   ar
    46    12     1    1
    47    28    23   ar
    48    11     7    1
    49    46    40   ar
    50    33    34    1
@<TRIPOS>MOLECULE
*****
 46 50 0 0 0
SMALL
GASTEIGER

@<TRIPOS>ATOM
      1 C           5.3221    0.0859   32.8298 C.3     1  UNL1        0.0972
      2 C           3.9735   -0.5580   32.9581 C.3     1  UNL1        0.0431
      3 C           3.1900   -0.2441   31.7181 C.3     1  UNL1        0.0968
      4 N           4.0545    0.5940   30.8234 N.am    1  UNL1       -0.2623
      5 C           3.6689    1.1333   29.4779 C.2     1  UNL1        0.3073
      6 O           4.6441    1.9607   28.6941 O.2     1  UNL1       -0.2523
      7 N           2.3082    0.8453   28.9163 N.am    1  UNL1       -0.2626
      8 C           1.2329    0.0376   29.5808 C.3     1  UNL1        0.0964
      9 C           0.0440    0.0075   28.6667 C.3     1  UNL1        0.0390
     10 C           0.3844    0.7967   27.4372 C.3     1  UNL1        0.0759
     11 C           1.7838    1.3144   27.5915 C.3     1  UNL1        0.1106
     12 C           5.3721    0.7979   31.5105 C.3     1  UNL1        0.1147
     13 C           6.3707    0.8975   35.0641 C.3     1  UNL1        0.1152
     14 N           6.4267    0.0281   33.8430 N.am    1  UNL1       -0.2742
     15 C           7.5874   -0.8990   33.6350 C.2     1  UNL1        0.2491
     16 O           8.6920   -0.9569   34.6482 O.2     1  UNL1       -0.2699
     17 C           7.6434   -1.7684   32.4139 C.ar    1  UNL1        0.0536
     18 C           8.4593   -1.3449   31.2285 C.ar    1  UNL1        0.0045
     19 C           8.5153   -2.2143   30.0075 C.ar    1  UNL1        0.0001
     20 C           7.7555   -3.5071   29.9717 C.ar    1  UNL1        0.0000
     21 C           6.9396   -3.9306   31.1571 C.ar    1  UNL1        0.0001
     22 C           6.8836   -3.0612   32.3781 C.ar    1  UNL1        0.0045
     23 C           7.8115   -4.3765   28.7506 C.ar    1  UNL1       -0.0000
     24 C           6.6186   -5.1969   28.3586 C.ar    1  UNL1       -0.0001
     25 C           6.6746   -6.0662   27.1374 C.ar    1  UNL1        0.0039
     26 C           7.9237   -6.1151   26.3083 C.ar    1  UNL1        0.0714
     27 C           9.1167   -5.2946   26.7004 C.ar    1  UNL1        0.0039
     28 C           9.0606   -4.4253   27.9215 C.ar    1  UNL1       -0.0001
     29 C           7.9798   -6.9844   25.0872 C.3     1  UNL1        0.4186
     30 F           8.0359   -7.8537   23.8661 F       1  UNL1       -0.1659
     31 F           7.6759   -5.7944   24.2261 F       1  UNL1       -0.1659
     32 F           8.2837   -8.1744   25.9483 F       1  UNL1       -0.1659
     33 N          -0.5163    1.0274   26.2603 N.3     1  UNL1       -0.2971
     34 H          -1.4381    0.6777   26.5219 H       1  UNL1        0.1233
     35 C          -0.7149    2.4160   25.7287 C.3     1  UNL1        0.0689
     36 C          -1.8509    3.2564   26.2320 C.3     1  UNL1        0.0211
     37 C          -2.9486    3.6710   25.2975 C.3     1  UNL1        0.0203
     38 C          -2.0507    3.4060   24.1254 C.3     1  UNL1        0.0044
     39 C          -3.8463    3.9359   26.4695 C.3     1  UNL1        0.0044
     40 C          -4.0462    4.0855   24.3629 C.ar    1  UNL1       -0.0227
     41 C          -3.7136    4.5638   22.9807 C.ar    1  UNL1       -0.0034
     42 C          -4.8113    4.9784   22.0461 C.ar    1  UNL1        0.0111
     43 C          -6.2414    4.9146   22.4939 C.ar    1  UNL1        0.0577
     44 CL         -7.3391    5.3292   21.5594 Cl      1  UNL1       -0.0822
     45 C          -6.5740    4.4364   23.8762 C.ar    1  UNL1        0.0111
     46 C          -5.4763    4.0218   24.8107 C.ar    1  UNL1       -0.0034
@<TRIPOS>BOND
     1    13    14    1
     2    14    15   am
     3    15    16    2
     4    15    17    1
     5    17    18   ar
     6    18    19   ar
     7    19    20   ar
     8    20    23    1
     9    23    24   ar
    10    24    25   ar
    11    25    26   ar
    12    26    29    1
    13    29    30    1
    14    29    31    1
    15    29    32    1
    16    26    27   ar
    17    27    28   ar
    18    20    21   ar
    19    21    22   ar
    20     1    14    1
    21     1     2    1
    22     2     3    1
    23     3     4    1
    24     4     5   am
    25     5     6    2
    26     5     7   am
    27     7     8    1
    28     8     9    1
    29     9    10    1
    30    10    33    1
    31    33    35    1
    32    35    36    1
    33    36    37    1
    34    37    38    1
    35    37    39    1
    36    37    40    1
    37    40    41   ar
    38    41    42   ar
    39    42    43   ar
    40    43    44    1
    41    43    45   ar
    42    45    46   ar
    43    10    11    1
    44     4    12    1
    45    22    17   ar
    46    12     1    1
    47    28    23   ar
    48    11     7    1
    49    46    40   ar
    50    33    34    1
@<TRIPOS>MOLECULE
*****
 46 50 0 0 0
SMALL
GASTEIGER

@<TRIPOS>ATOM
      1 C           4.1669    1.4055   32.5427 C.3     1  UNL1        0.0972
      2 C           2.8666    0.6974   32.3023 C.3     1  UNL1        0.0431
      3 C           2.4349    0.9858   30.8950 C.3     1  UNL1        0.0968
      4 N           3.4683    1.8723   30.2656 N.am    1  UNL1       -0.2623
      5 C           3.4369    2.4058   28.8641 C.2     1  UNL1        0.3073
      6 O           4.5472    3.2858   28.3715 O.2     1  UNL1       -0.2523
      7 N           2.2951    2.0592   27.9551 N.am    1  UNL1       -0.2626
      8 C           1.1200    1.1953   28.3056 C.3     1  UNL1        0.0964
      9 C           0.2265    1.1178   27.1032 C.3     1  UNL1        0.0390
     10 C           0.8495    1.9340   26.0095 C.3     1  UNL1        0.0759
     11 C           2.1279    2.5158   26.5361 C.3     1  UNL1        0.1106
     12 C           4.5387    2.1317   31.2840 C.3     1  UNL1        0.1147
     13 C           4.7298    2.4516   34.8533 C.3     1  UNL1        0.1152
     14 N           4.9566    1.3902   33.8179 N.am    1  UNL1       -0.2742
     15 C           5.9730    0.3135   34.0576 C.2     1  UNL1        0.2491
     16 O           6.7628    0.2982   35.3328 O.2     1  UNL1       -0.2699
     17 C           6.1998   -0.7479   33.0222 C.ar    1  UNL1        0.0536
     18 C           5.4426   -2.0407   33.0951 C.ar    1  UNL1        0.0045
     19 C           5.6694   -3.1020   32.0597 C.ar    1  UNL1        0.0001
     20 C           6.6534   -2.8706   30.9515 C.ar    1  UNL1        0.0000
     21 C           7.4106   -1.5778   30.8786 C.ar    1  UNL1        0.0001
     22 C           7.1838   -0.5165   31.9140 C.ar    1  UNL1        0.0045
     23 C           6.8802   -3.9320   29.9160 C.ar    1  UNL1       -0.0000
     24 C           7.5556   -5.2168   30.2944 C.ar    1  UNL1       -0.0001
     25 C           7.7824   -6.2782   29.2590 C.ar    1  UNL1        0.0039
     26 C           7.3337   -6.0548   27.8452 C.ar    1  UNL1        0.0714
     27 C           6.6583   -4.7699   27.4668 C.ar    1  UNL1        0.0039
     28 C           6.4316   -3.7086   28.5022 C.ar    1  UNL1       -0.0001
     29 C           7.5605   -7.1161   26.8098 C.3     1  UNL1        0.4186
     30 F           7.7872   -8.1775   25.7744 F       1  UNL1       -0.1659
     31 F           7.2213   -6.1336   25.7284 F       1  UNL1       -0.1659
     32 F           7.8997   -8.0986   27.8912 F       1  UNL1       -0.1659
     33 N           0.2919    2.1332   24.6314 N.3     1  UNL1       -0.2971
     34 H          -0.0214    3.1024   24.5778 H       1  UNL1        0.1233
     35 C           1.1568    1.8906   23.4301 C.3     1  UNL1        0.0689
     36 C           0.6273    1.0970   22.2726 C.3     1  UNL1        0.0211
     37 C           1.5625    0.2742   21.4369 C.3     1  UNL1        0.0203
     38 C           2.6583    0.5064   22.4346 C.3     1  UNL1        0.0044
     39 C           0.4668    0.0420   20.4393 C.3     1  UNL1        0.0044
     40 C           2.4978   -0.5486   20.6013 C.ar    1  UNL1       -0.0227
     41 C           3.2465   -1.6922   21.2190 C.ar    1  UNL1       -0.0034
     42 C           4.1818   -2.5150   20.3834 C.ar    1  UNL1        0.0111
     43 C           4.3683   -2.1941   18.9301 C.ar    1  UNL1        0.0577
     44 CL          5.3036   -3.0169   18.0943 Cl      1  UNL1       -0.0822
     45 C           3.6196   -1.0505   18.3123 C.ar    1  UNL1        0.0111
     46 C           2.6843   -0.2277   19.1480 C.ar    1  UNL1       -0.0034
@<TRIPOS>BOND
     1    13    14    1
     2    14    15   am
     3    15    16    2
     4    15    17    1
     5    17    18   ar
     6    18    19   ar
     7    19    20   ar
     8    20    23    1
     9    23    24   ar
    10    24    25   ar
    11    25    26   ar
    12    26    29    1
    13    29    30    1
    14    29    31    1
    15    29    32    1
    16    26    27   ar
    17    27    28   ar
    18    20    21   ar
    19    21    22   ar
    20     1    14    1
    21     1     2    1
    22     2     3    1
    23     3     4    1
    24     4     5   am
    25     5     6    2
    26     5     7   am
    27     7     8    1
    28     8     9    1
    29     9    10    1
    30    10    33    1
    31    33    35    1
    32    35    36    1
    33    36    37    1
    34    37    38    1
    35    37    39    1
    36    37    40    1
    37    40    41   ar
    38    41    42   ar
    39    42    43   ar
    40    43    44    1
    41    43    45   ar
    42    45    46   ar
    43    10    11    1
    44     4    12    1
    45    22    17   ar
    46    12     1    1
    47    28    23   ar
    48    11     7    1
    49    46    40   ar
    50    33    34    1
@<TRIPOS>MOLECULE
*****
 46 50 0 0 0
SMALL
GASTEIGER

@<TRIPOS>ATOM
      1 C           3.6348    1.5470   33.1395 C.3     1  UNL1        0.0972
      2 C           4.5349    2.2709   32.1825 C.3     1  UNL1        0.0431
      3 C           3.9245    2.1826   30.8151 C.3     1  UNL1        0.0968
      4 N           2.6472    1.4042   30.9271 N.am    1  UNL1       -0.2623
      5 C           1.7129    1.0761   29.8004 C.2     1  UNL1        0.3073
      6 O           0.4664    0.2853   30.0658 O.2     1  UNL1       -0.2523
      7 N           2.0253    1.5390   28.4082 N.am    1  UNL1       -0.2626
      8 C           3.2276    2.3337   27.9922 C.3     1  UNL1        0.0964
      9 C           3.1356    2.5743   26.5144 C.3     1  UNL1        0.0390
     10 C           1.8764    1.9283   26.0172 C.3     1  UNL1        0.0759
     11 C           1.1902    1.2884   27.1876 C.3     1  UNL1        0.1106
     12 C           2.4682    1.0114   32.3636 C.3     1  UNL1        0.1147
     13 C           3.3354    2.4162   35.5696 C.3     1  UNL1        0.1152
     14 N           3.8616    1.3869   34.6136 N.am    1  UNL1       -0.2742
     15 C           4.6145    0.1976   35.1318 C.2     1  UNL1        0.2491
     16 O           4.8413    0.0375   36.6059 O.2     1  UNL1       -0.2699
     17 C           5.1407   -0.8317   34.1759 C.ar    1  UNL1        0.0536
     18 C           4.2907   -2.0086   33.7983 C.ar    1  UNL1        0.0045
     19 C           4.8169   -3.0378   32.8424 C.ar    1  UNL1        0.0001
     20 C           6.1931   -2.8902   32.2641 C.ar    1  UNL1        0.0000
     21 C           7.0430   -1.7134   32.6417 C.ar    1  UNL1        0.0001
     22 C           6.5168   -0.6842   33.5976 C.ar    1  UNL1        0.0045
     23 C           6.7193   -3.9195   31.3082 C.ar    1  UNL1       -0.0000
     24 C           7.3839   -5.1584   31.8311 C.ar    1  UNL1       -0.0001
     25 C           7.9101   -6.1877   30.8752 C.ar    1  UNL1        0.0039
     26 C           7.7716   -5.9781   29.3964 C.ar    1  UNL1        0.0714
     27 C           7.1069   -4.7391   28.8735 C.ar    1  UNL1        0.0039
     28 C           6.5808   -3.7099   29.8294 C.ar    1  UNL1       -0.0001
     29 C           8.2978   -7.0073   28.4405 C.3     1  UNL1        0.4186
     30 F           8.8239   -8.0365   27.4845 F       1  UNL1       -0.1659
     31 F           7.5362   -6.3586   27.3228 F       1  UNL1       -0.1659
     32 F           9.0594   -7.6560   29.5581 F       1  UNL1       -0.1659
     33 N           1.3891    1.9231   24.5986 N.3     1  UNL1       -0.2971
     34 H           0.7500    1.1331   24.5096 H       1  UNL1        0.1233
     35 C           0.6756    3.1215   24.0463 C.3     1  UNL1        0.0689
     36 C          -0.7039    3.4608   24.5277 C.3     1  UNL1        0.0211
     37 C          -1.8447    3.5177   23.5554 C.3     1  UNL1        0.0203
     38 C          -0.8745    3.4530   22.4133 C.3     1  UNL1        0.0044
     39 C          -2.8148    3.5824   24.6976 C.3     1  UNL1        0.0044
     40 C          -2.9856    3.5746   22.5831 C.ar    1  UNL1       -0.0227
     41 C          -4.3970    3.4473   23.0747 C.ar    1  UNL1       -0.0034
     42 C          -5.5378    3.5042   22.1024 C.ar    1  UNL1        0.0111
     43 C          -5.2671    3.6883   20.6386 C.ar    1  UNL1        0.0577
     44 CL         -6.4078    3.7452   19.6662 Cl      1  UNL1       -0.0822
     45 C          -3.8556    3.8156   20.1470 C.ar    1  UNL1        0.0111
     46 C          -2.7148    3.7587   21.1193 C.ar    1  UNL1       -0.0034
@<TRIPOS>BOND
     1    13    14    1
     2    14    15   am
     3    15    16    2
     4    15    17    1
     5    17    18   ar
     6    18    19   ar
     7    19    20   ar
     8    20    23    1
     9    23    24   ar
    10    24    25   ar
    11    25    26   ar
    12    26    29    1
    13    29    30    1
    14    29    31    1
    15    29    32    1
    16    26    27   ar
    17    27    28   ar
    18    20    21   ar
    19    21    22   ar
    20     1    14    1
    21     1     2    1
    22     2     3    1
    23     3     4    1
    24     4     5   am
    25     5     6    2
    26     5     7   am
    27     7     8    1
    28     8     9    1
    29     9    10    1
    30    10    33    1
    31    33    35    1
    32    35    36    1
    33    36    37    1
    34    37    38    1
    35    37    39    1
    36    37    40    1
    37    40    41   ar
    38    41    42   ar
    39    42    43   ar
    40    43    44    1
    41    43    45   ar
    42    45    46   ar
    43    10    11    1
    44     4    12    1
    45    22    17   ar
    46    12     1    1
    47    28    23   ar
    48    11     7    1
    49    46    40   ar
    50    33    34    1
