@<TRIPOS>MOLECULE
*****
 26 29 0 0 0
SMALL
GASTEIGER

@<TRIPOS>ATOM
      1 O           8.2299   -2.5564   30.7971 O.2     1  UNL1       -0.2698
      2 C           7.0626   -3.0658   31.5895 C.2     1  UNL1        0.2510
      3 N           6.5832   -4.4742   31.3977 N.am    1  UNL1       -0.2803
      4 H           5.8171   -4.8085   31.9178 H       1  UNL1        0.1552
      5 C           7.2711   -5.3731   30.4135 C.ar    1  UNL1        0.0520
      6 C           8.4655   -6.1753   30.8378 C.ar    1  UNL1        0.0148
      7 C           9.1534   -7.0741   29.8536 C.ar    1  UNL1        0.0028
      8 C           8.6470   -7.1709   28.4450 C.ar    1  UNL1        0.0178
      9 C           9.3350   -8.0698   27.4608 C.ar    1  UNL1        0.0031
     10 C           8.8286   -8.1665   26.0522 C.ar    1  UNL1        0.0207
     11 C           7.6343   -7.3643   25.6278 C.ar    1  UNL1        0.0988
     12 N           6.9463   -6.4655   26.6120 N.ar    1  UNL1       -0.2438
     13 C           7.4527   -6.3687   28.0206 C.ar    1  UNL1        0.0825
     14 C           6.7648   -5.4698   29.0049 C.ar    1  UNL1        0.0338
     15 C           6.3747   -2.1669   32.5738 C.ar    1  UNL1        0.0728
     16 C           4.9945   -2.5008   33.0572 C.ar    1  UNL1        0.0076
     17 C           4.3067   -1.6019   34.0414 C.ar    1  UNL1        0.0193
     18 C           4.9989   -0.3690   34.5423 C.ar    1  UNL1        0.0813
     19 N           6.3791   -0.0351   34.0588 N.ar    1  UNL1       -0.2437
     20 C           7.0670   -0.9341   33.0746 C.ar    1  UNL1        0.1033
     21 C           4.3111    0.5299   35.5265 C.ar    1  UNL1        0.0177
     22 C           3.4806    1.6799   35.0388 C.ar    1  UNL1        0.0015
     23 C           2.7927    2.5788   36.0230 C.ar    1  UNL1        0.0000
     24 C           2.9353    2.3277   37.4950 C.ar    1  UNL1        0.0000
     25 C           3.7657    1.1777   37.9827 C.ar    1  UNL1        0.0000
     26 C           4.4536    0.2788   36.9984 C.ar    1  UNL1        0.0015
@<TRIPOS>BOND
     1     1     2    2
     2     2     3   am
     3     3     5    1
     4     5     6   ar
     5     6     7   ar
     6     7     8   ar
     7     8     9   ar
     8     9    10   ar
     9    10    11   ar
    10    11    12   ar
    11    12    13   ar
    12    13    14   ar
    13     2    15    1
    14    15    16   ar
    15    16    17   ar
    16    17    18   ar
    17    18    21    1
    18    21    22   ar
    19    22    23   ar
    20    23    24   ar
    21    24    25   ar
    22    25    26   ar
    23    18    19   ar
    24    19    20   ar
    25    14     5   ar
    26    20    15   ar
    27    13     8   ar
    28    26    21   ar
    29     3     4    1
@<TRIPOS>MOLECULE
*****
 26 29 0 0 0
SMALL
GASTEIGER

@<TRIPOS>ATOM
      1 O           1.0419    3.1392   20.6332 O.2     1  UNL1       -0.2698
      2 C          -0.1788    2.2883   20.8230 C.2     1  UNL1        0.2510
      3 N          -0.1684    0.8537   20.3850 N.am    1  UNL1       -0.2803
      4 H          -0.9696    0.2952   20.5095 H       1  UNL1        0.1552
      5 C           1.0626    0.2700   19.7573 C.ar    1  UNL1        0.0520
      6 C           1.5587    0.8004   18.4449 C.ar    1  UNL1        0.0148
      7 C           2.7897    0.2168   17.8172 C.ar    1  UNL1        0.0028
      8 C           3.5246   -0.8974   18.5019 C.ar    1  UNL1        0.0178
      9 C           4.7555   -1.4810   17.8742 C.ar    1  UNL1        0.0031
     10 C           5.4903   -2.5951   18.5589 C.ar    1  UNL1        0.0207
     11 C           4.9942   -3.1255   19.8713 C.ar    1  UNL1        0.0988
     12 N           3.7632   -2.5419   20.4990 N.ar    1  UNL1       -0.2438
     13 C           3.0284   -1.4278   19.8143 C.ar    1  UNL1        0.0825
     14 C           1.7974   -0.8441   20.4420 C.ar    1  UNL1        0.0338
     15 C          -1.4097    2.8720   21.4506 C.ar    1  UNL1        0.0728
     16 C          -1.3996    3.2637   22.8985 C.ar    1  UNL1        0.0076
     17 C          -2.6305    3.8474   23.5262 C.ar    1  UNL1        0.0193
     18 C          -3.8717    4.0394   22.7060 C.ar    1  UNL1        0.0813
     19 N          -3.8818    3.6477   21.2581 N.ar    1  UNL1       -0.2437
     20 C          -2.6508    3.0639   20.6304 C.ar    1  UNL1        0.1033
     21 C          -5.1026    4.6231   23.3337 C.ar    1  UNL1        0.0177
     22 C          -6.4604    4.1888   22.8671 C.ar    1  UNL1        0.0015
     23 C          -7.6914    4.7725   23.4948 C.ar    1  UNL1        0.0000
     24 C          -7.5646    5.7906   24.5891 C.ar    1  UNL1        0.0000
     25 C          -6.2067    6.2249   25.0556 C.ar    1  UNL1        0.0000
     26 C          -4.9758    5.6412   24.4279 C.ar    1  UNL1        0.0015
@<TRIPOS>BOND
     1     1     2    2
     2     2     3   am
     3     3     5    1
     4     5     6   ar
     5     6     7   ar
     6     7     8   ar
     7     8     9   ar
     8     9    10   ar
     9    10    11   ar
    10    11    12   ar
    11    12    13   ar
    12    13    14   ar
    13     2    15    1
    14    15    16   ar
    15    16    17   ar
    16    17    18   ar
    17    18    21    1
    18    21    22   ar
    19    22    23   ar
    20    23    24   ar
    21    24    25   ar
    22    25    26   ar
    23    18    19   ar
    24    19    20   ar
    25    14     5   ar
    26    20    15   ar
    27    13     8   ar
    28    26    21   ar
    29     3     4    1
@<TRIPOS>MOLECULE
*****
 26 29 0 0 0
SMALL
GASTEIGER

@<TRIPOS>ATOM
      1 O           4.4236   -0.0601   22.5799 O.2     1  UNL1       -0.2698
      2 C           4.4085   -1.4182   21.9430 C.2     1  UNL1        0.2510
      3 N           3.5656   -1.6671   20.7274 N.am    1  UNL1       -0.2803
      4 H           3.5556   -2.5583   20.3094 H       1  UNL1        0.1552
      5 C           2.7378   -0.5579   20.1488 C.ar    1  UNL1        0.0520
      6 C           3.0689   -0.0027   18.7952 C.ar    1  UNL1        0.0148
      7 C           2.2413    1.1064   18.2166 C.ar    1  UNL1        0.0028
      8 C           1.0824    1.6603   18.9915 C.ar    1  UNL1        0.0178
      9 C           0.2547    2.7694   18.4129 C.ar    1  UNL1        0.0031
     10 C          -0.9040    3.3232   19.1878 C.ar    1  UNL1        0.0207
     11 C          -1.2351    2.7679   20.5413 C.ar    1  UNL1        0.0988
     12 N          -0.4074    1.6588   21.1199 N.ar    1  UNL1       -0.2438
     13 C           0.7513    1.1050   20.3451 C.ar    1  UNL1        0.0825
     14 C           1.5791   -0.0041   20.9237 C.ar    1  UNL1        0.0338
     15 C           5.2362   -2.5272   22.5216 C.ar    1  UNL1        0.0728
     16 C           5.3850   -2.6546   24.0088 C.ar    1  UNL1        0.0076
     17 C           6.2128   -3.7636   24.5874 C.ar    1  UNL1        0.0193
     18 C           6.8917   -4.7454   23.6789 C.ar    1  UNL1        0.0813
     19 N           6.7428   -4.6180   22.1917 N.ar    1  UNL1       -0.2437
     20 C           5.9150   -3.5089   21.6131 C.ar    1  UNL1        0.1033
     21 C           7.7194   -5.8544   24.2575 C.ar    1  UNL1        0.0177
     22 C           7.5588   -6.2365   25.6991 C.ar    1  UNL1        0.0015
     23 C           8.3865   -7.3456   26.2777 C.ar    1  UNL1        0.0000
     24 C           9.3749   -8.0726   25.4147 C.ar    1  UNL1        0.0000
     25 C           9.5355   -7.6904   23.9732 C.ar    1  UNL1        0.0000
     26 C           8.7077   -6.5813   23.3945 C.ar    1  UNL1        0.0015
@<TRIPOS>BOND
     1     1     2    2
     2     2     3   am
     3     3     5    1
     4     5     6   ar
     5     6     7   ar
     6     7     8   ar
     7     8     9   ar
     8     9    10   ar
     9    10    11   ar
    10    11    12   ar
    11    12    13   ar
    12    13    14   ar
    13     2    15    1
    14    15    16   ar
    15    16    17   ar
    16    17    18   ar
    17    18    21    1
    18    21    22   ar
    19    22    23   ar
    20    23    24   ar
    21    24    25   ar
    22    25    26   ar
    23    18    19   ar
    24    19    20   ar
    25    14     5   ar
    26    20    15   ar
    27    13     8   ar
    28    26    21   ar
    29     3     4    1
@<TRIPOS>MOLECULE
*****
 26 29 0 0 0
SMALL
GASTEIGER

@<TRIPOS>ATOM
      1 O           3.7957    1.5982   26.8112 O.2     1  UNL1       -0.2698
      2 C           3.1391    0.2786   26.5325 C.2     1  UNL1        0.2510
      3 N           2.2642   -0.3580   27.5713 N.am    1  UNL1       -0.2803
      4 H           1.8332   -1.2241   27.3884 H       1  UNL1        0.1552
      5 C           2.0458    0.3251   28.8889 C.ar    1  UNL1        0.0520
      6 C           0.9140    1.2959   29.0518 C.ar    1  UNL1        0.0148
      7 C           0.6956    1.9789   30.3693 C.ar    1  UNL1        0.0028
      8 C           1.6090    1.6911   31.5239 C.ar    1  UNL1        0.0178
      9 C           1.3906    2.3742   32.8413 C.ar    1  UNL1        0.0031
     10 C           2.3040    2.0863   33.9958 C.ar    1  UNL1        0.0207
     11 C           3.4358    1.1155   33.8328 C.ar    1  UNL1        0.0988
     12 N           3.6542    0.4325   32.5154 N.ar    1  UNL1       -0.2438
     13 C           2.7408    0.7203   31.3609 C.ar    1  UNL1        0.0825
     14 C           2.9592    0.0373   30.0433 C.ar    1  UNL1        0.0338
     15 C           3.3575   -0.4044   25.2150 C.ar    1  UNL1        0.0728
     16 C           2.6225    0.0666   23.9951 C.ar    1  UNL1        0.0076
     17 C           2.8409   -0.6164   22.6776 C.ar    1  UNL1        0.0193
     18 C           3.7943   -1.7704   22.5800 C.ar    1  UNL1        0.0813
     19 N           4.5293   -2.2413   23.7998 N.ar    1  UNL1       -0.2437
     20 C           4.3109   -1.5583   25.1174 C.ar    1  UNL1        0.1033
     21 C           4.0127   -2.4533   21.2625 C.ar    1  UNL1        0.0177
     22 C           3.7064   -1.7316   19.9837 C.ar    1  UNL1        0.0015
     23 C           3.9248   -2.4146   18.6662 C.ar    1  UNL1        0.0000
     24 C           4.4496   -3.8193   18.6275 C.ar    1  UNL1        0.0000
     25 C           4.7559   -4.5410   19.9062 C.ar    1  UNL1        0.0000
     26 C           4.5375   -3.8580   21.2238 C.ar    1  UNL1        0.0015
@<TRIPOS>BOND
     1     1     2    2
     2     2     3   am
     3     3     5    1
     4     5     6   ar
     5     6     7   ar
     6     7     8   ar
     7     8     9   ar
     8     9    10   ar
     9    10    11   ar
    10    11    12   ar
    11    12    13   ar
    12    13    14   ar
    13     2    15    1
    14    15    16   ar
    15    16    17   ar
    16    17    18   ar
    17    18    21    1
    18    21    22   ar
    19    22    23   ar
    20    23    24   ar
    21    24    25   ar
    22    25    26   ar
    23    18    19   ar
    24    19    20   ar
    25    14     5   ar
    26    20    15   ar
    27    13     8   ar
    28    26    21   ar
    29     3     4    1
@<TRIPOS>MOLECULE
*****
 26 29 0 0 0
SMALL
GASTEIGER

@<TRIPOS>ATOM
      1 O          -0.9697    4.2901   21.0594 O.2     1  UNL1       -0.2698
      2 C          -1.3092    2.9119   20.5742 C.2     1  UNL1        0.2510
      3 N          -2.7433    2.4822   20.4796 N.am    1  UNL1       -0.2803
      4 H          -2.9661    1.5777   20.1612 H       1  UNL1        0.1552
      5 C          -3.8378    3.4307   20.8703 C.ar    1  UNL1        0.0520
      6 C          -4.3118    4.4702   19.8982 C.ar    1  UNL1        0.0148
      7 C          -5.4062    5.4186   20.2888 C.ar    1  UNL1        0.0028
      8 C          -6.0267    5.3277   21.6515 C.ar    1  UNL1        0.0178
      9 C          -7.1211    6.2762   22.0421 C.ar    1  UNL1        0.0031
     10 C          -7.7415    6.1852   23.4047 C.ar    1  UNL1        0.0207
     11 C          -7.2674    5.1458   24.3767 C.ar    1  UNL1        0.0988
     12 N          -6.1730    4.1973   23.9862 N.ar    1  UNL1       -0.2438
     13 C          -5.5526    4.2883   22.6235 C.ar    1  UNL1        0.0825
     14 C          -4.4581    3.3398   22.2329 C.ar    1  UNL1        0.0338
     15 C          -0.2148    1.9635   20.1836 C.ar    1  UNL1        0.0728
     16 C           0.1460    0.8216   21.0869 C.ar    1  UNL1        0.0076
     17 C           1.2405   -0.1268   20.6963 C.ar    1  UNL1        0.0193
     18 C           1.9742    0.0666   19.4023 C.ar    1  UNL1        0.0813
     19 N           1.6134    1.2085   18.4990 N.ar    1  UNL1       -0.2437
     20 C           0.5189    2.1569   18.8897 C.ar    1  UNL1        0.1033
     21 C           3.0687   -0.8818   19.0117 C.ar    1  UNL1        0.0177
     22 C           4.0154   -0.5200   17.9059 C.ar    1  UNL1        0.0015
     23 C           5.1098   -1.4685   17.5153 C.ar    1  UNL1        0.0000
     24 C           5.2576   -2.7787   18.2305 C.ar    1  UNL1        0.0000
     25 C           4.3109   -3.1404   19.3364 C.ar    1  UNL1        0.0000
     26 C           3.2164   -2.1919   19.7270 C.ar    1  UNL1        0.0015
@<TRIPOS>BOND
     1     1     2    2
     2     2     3   am
     3     3     5    1
     4     5     6   ar
     5     6     7   ar
     6     7     8   ar
     7     8     9   ar
     8     9    10   ar
     9    10    11   ar
    10    11    12   ar
    11    12    13   ar
    12    13    14   ar
    13     2    15    1
    14    15    16   ar
    15    16    17   ar
    16    17    18   ar
    17    18    21    1
    18    21    22   ar
    19    22    23   ar
    20    23    24   ar
    21    24    25   ar
    22    25    26   ar
    23    18    19   ar
    24    19    20   ar
    25    14     5   ar
    26    20    15   ar
    27    13     8   ar
    28    26    21   ar
    29     3     4    1
@<TRIPOS>MOLECULE
*****
 26 29 0 0 0
SMALL
GASTEIGER

@<TRIPOS>ATOM
      1 O           4.3377    1.2346   27.0344 O.2     1  UNL1       -0.2698
      2 C           3.4814    0.0568   26.6744 C.2     1  UNL1        0.2510
      3 N           2.4889   -0.4790   27.6633 N.am    1  UNL1       -0.2803
      4 H           1.9268   -1.2520   27.4270 H       1  UNL1        0.1552
      5 C           2.3527    0.1630   29.0121 C.ar    1  UNL1        0.0520
      6 C           2.9720   -0.4827   30.2161 C.ar    1  UNL1        0.0148
      7 C           2.8359    0.1592   31.5649 C.ar    1  UNL1        0.0028
      8 C           2.0804    1.4470   31.7098 C.ar    1  UNL1        0.0178
      9 C           1.9442    2.0889   33.0586 C.ar    1  UNL1        0.0031
     10 C           1.1887    3.3766   33.2035 C.ar    1  UNL1        0.0207
     11 C           0.5694    4.0223   31.9996 C.ar    1  UNL1        0.0988
     12 N           0.7055    3.3804   30.6508 N.ar    1  UNL1       -0.2438
     13 C           1.4610    2.0927   30.5059 C.ar    1  UNL1        0.0825
     14 C           1.5972    1.4507   29.1570 C.ar    1  UNL1        0.0338
     15 C           3.6176   -0.5851   25.3256 C.ar    1  UNL1        0.0728
     16 C           2.7784   -0.1056   24.1786 C.ar    1  UNL1        0.0076
     17 C           2.9146   -0.7475   22.8298 C.ar    1  UNL1        0.0193
     18 C           3.8900   -1.8691   22.6280 C.ar    1  UNL1        0.0813
     19 N           4.7292   -2.3487   23.7750 N.ar    1  UNL1       -0.2437
     20 C           4.5930   -1.7066   25.1239 C.ar    1  UNL1        0.1033
     21 C           4.0262   -2.5111   21.2792 C.ar    1  UNL1        0.0177
     22 C           3.7859   -1.7050   20.0372 C.ar    1  UNL1        0.0015
     23 C           3.9222   -2.3469   18.6884 C.ar    1  UNL1        0.0000
     24 C           4.2987   -3.7950   18.5815 C.ar    1  UNL1        0.0000
     25 C           4.5390   -4.6011   19.8235 C.ar    1  UNL1        0.0000
     26 C           4.4027   -3.9591   21.1724 C.ar    1  UNL1        0.0015
@<TRIPOS>BOND
     1     1     2    2
     2     2     3   am
     3     3     5    1
     4     5     6   ar
     5     6     7   ar
     6     7     8   ar
     7     8     9   ar
     8     9    10   ar
     9    10    11   ar
    10    11    12   ar
    11    12    13   ar
    12    13    14   ar
    13     2    15    1
    14    15    16   ar
    15    16    17   ar
    16    17    18   ar
    17    18    21    1
    18    21    22   ar
    19    22    23   ar
    20    23    24   ar
    21    24    25   ar
    22    25    26   ar
    23    18    19   ar
    24    19    20   ar
    25    14     5   ar
    26    20    15   ar
    27    13     8   ar
    28    26    21   ar
    29     3     4    1
@<TRIPOS>MOLECULE
*****
 26 29 0 0 0
SMALL
GASTEIGER

@<TRIPOS>ATOM
      1 O           2.6295    1.0574   23.1988 O.2     1  UNL1       -0.2698
      2 C           1.3275    1.3832   22.5289 C.2     1  UNL1        0.2510
      3 N           1.1060    1.0024   21.0950 N.am    1  UNL1       -0.2803
      4 H           0.2515    1.2162   20.6553 H       1  UNL1        0.1552
      5 C           2.1864    0.2959   20.3311 C.ar    1  UNL1        0.0520
      6 C           3.1099    1.0760   19.4430 C.ar    1  UNL1        0.0148
      7 C           4.1903    0.3695   18.6791 C.ar    1  UNL1        0.0028
      8 C           4.3473   -1.1171   18.8033 C.ar    1  UNL1        0.0178
      9 C           5.4277   -1.8236   18.0394 C.ar    1  UNL1        0.0031
     10 C           5.5846   -3.3101   18.1636 C.ar    1  UNL1        0.0207
     11 C           4.6612   -4.0902   19.0516 C.ar    1  UNL1        0.0988
     12 N           3.5808   -3.3838   19.8155 N.ar    1  UNL1       -0.2438
     13 C           3.4238   -1.8972   19.6914 C.ar    1  UNL1        0.0825
     14 C           2.3434   -1.1907   20.4553 C.ar    1  UNL1        0.0338
     15 C           0.2471    2.0897   23.2928 C.ar    1  UNL1        0.0728
     16 C          -0.0047    1.7427   24.7302 C.ar    1  UNL1        0.0076
     17 C          -1.0851    2.4492   25.4941 C.ar    1  UNL1        0.0193
     18 C          -1.9137    3.5028   24.8206 C.ar    1  UNL1        0.0813
     19 N          -1.6618    3.8498   23.3832 N.ar    1  UNL1       -0.2437
     20 C          -0.5814    3.1432   22.6193 C.ar    1  UNL1        0.1033
     21 C          -2.9940    4.2093   25.5845 C.ar    1  UNL1        0.0177
     22 C          -2.6360    5.1194   26.7218 C.ar    1  UNL1        0.0015
     23 C          -3.7163    5.8260   27.4857 C.ar    1  UNL1        0.0000
     24 C          -5.1548    5.6223   27.1124 C.ar    1  UNL1        0.0000
     25 C          -5.5129    4.7121   25.9751 C.ar    1  UNL1        0.0000
     26 C          -4.4324    4.0056   25.2112 C.ar    1  UNL1        0.0015
@<TRIPOS>BOND
     1     1     2    2
     2     2     3   am
     3     3     5    1
     4     5     6   ar
     5     6     7   ar
     6     7     8   ar
     7     8     9   ar
     8     9    10   ar
     9    10    11   ar
    10    11    12   ar
    11    12    13   ar
    12    13    14   ar
    13     2    15    1
    14    15    16   ar
    15    16    17   ar
    16    17    18   ar
    17    18    21    1
    18    21    22   ar
    19    22    23   ar
    20    23    24   ar
    21    24    25   ar
    22    25    26   ar
    23    18    19   ar
    24    19    20   ar
    25    14     5   ar
    26    20    15   ar
    27    13     8   ar
    28    26    21   ar
    29     3     4    1
@<TRIPOS>MOLECULE
*****
 26 29 0 0 0
SMALL
GASTEIGER

@<TRIPOS>ATOM
      1 O           6.1505   -0.4324   25.1886 O.2     1  UNL1       -0.2698
      2 C           5.0594   -1.0670   25.9990 C.2     1  UNL1        0.2510
      3 N           3.9361   -1.7857   25.3121 N.am    1  UNL1       -0.2803
      4 H           3.2200   -2.2023   25.8440 H       1  UNL1        0.1552
      5 C           3.9040   -1.8697   23.8147 C.ar    1  UNL1        0.0520
      6 C           3.1862   -0.8194   23.0199 C.ar    1  UNL1        0.0148
      7 C           3.1541   -0.9033   21.5226 C.ar    1  UNL1        0.0028
      8 C           3.8397   -2.0376   20.8201 C.ar    1  UNL1        0.0178
      9 C           3.8075   -2.1215   19.3228 C.ar    1  UNL1        0.0031
     10 C           4.4931   -3.2557   18.6204 C.ar    1  UNL1        0.0207
     11 C           5.2109   -4.3060   19.4152 C.ar    1  UNL1        0.0988
     12 N           5.2430   -4.2221   20.9125 N.ar    1  UNL1       -0.2438
     13 C           4.5574   -3.0879   21.6149 C.ar    1  UNL1        0.0825
     14 C           4.5896   -3.0039   23.1123 C.ar    1  UNL1        0.0338
     15 C           5.0915   -0.9830   27.4963 C.ar    1  UNL1        0.0728
     16 C           3.8701   -0.5460   28.2494 C.ar    1  UNL1        0.0076
     17 C           3.9023   -0.4620   29.7466 C.ar    1  UNL1        0.0193
     18 C           5.1559   -0.8150   30.4909 C.ar    1  UNL1        0.0813
     19 N           6.3773   -1.2520   29.7378 N.ar    1  UNL1       -0.2437
     20 C           6.3451   -1.3360   28.2404 C.ar    1  UNL1        0.1033
     21 C           5.1881   -0.7310   31.9882 C.ar    1  UNL1        0.0177
     22 C           6.0312    0.3100   32.6630 C.ar    1  UNL1        0.0015
     23 C           6.0634    0.3940   34.1603 C.ar    1  UNL1        0.0000
     24 C           5.2524   -0.5631   34.9828 C.ar    1  UNL1        0.0000
     25 C           4.4093   -1.6041   34.3079 C.ar    1  UNL1        0.0000
     26 C           4.3771   -1.6880   32.8106 C.ar    1  UNL1        0.0015
@<TRIPOS>BOND
     1     1     2    2
     2     2     3   am
     3     3     5    1
     4     5     6   ar
     5     6     7   ar
     6     7     8   ar
     7     8     9   ar
     8     9    10   ar
     9    10    11   ar
    10    11    12   ar
    11    12    13   ar
    12    13    14   ar
    13     2    15    1
    14    15    16   ar
    15    16    17   ar
    16    17    18   ar
    17    18    21    1
    18    21    22   ar
    19    22    23   ar
    20    23    24   ar
    21    24    25   ar
    22    25    26   ar
    23    18    19   ar
    24    19    20   ar
    25    14     5   ar
    26    20    15   ar
    27    13     8   ar
    28    26    21   ar
    29     3     4    1
@<TRIPOS>MOLECULE
*****
 26 29 0 0 0
SMALL
GASTEIGER

@<TRIPOS>ATOM
      1 O         -12.9481    7.2198   25.7778 O.2     1  UNL1       -0.2698
      2 C         -12.6382    5.8152   25.3520 C.2     1  UNL1        0.2510
      3 N         -13.7068    4.7637   25.4010 N.am    1  UNL1       -0.2803
      4 H         -13.5035    3.8418   25.1215 H       1  UNL1        0.1552
      5 C         -15.0853    5.1167   25.8757 C.ar    1  UNL1        0.0520
      6 C         -16.1808    5.3633   24.8812 C.ar    1  UNL1        0.0148
      7 C         -17.5592    5.7164   25.3559 C.ar    1  UNL1        0.0028
      8 C         -17.8421    5.8228   26.8252 C.ar    1  UNL1        0.0178
      9 C         -19.2205    6.1759   27.2998 C.ar    1  UNL1        0.0031
     10 C         -19.5034    6.2823   28.7690 C.ar    1  UNL1        0.0207
     11 C         -18.4079    6.0357   29.7636 C.ar    1  UNL1        0.0988
     12 N         -17.0295    5.6827   29.2889 N.ar    1  UNL1       -0.2438
     13 C         -16.7466    5.5762   27.8197 C.ar    1  UNL1        0.0825
     14 C         -15.3682    5.2232   27.3449 C.ar    1  UNL1        0.0338
     15 C         -11.2599    5.4622   24.8773 C.ar    1  UNL1        0.0728
     16 C         -10.2318    6.5387   24.6921 C.ar    1  UNL1        0.0076
     17 C          -8.8534    6.1857   24.2174 C.ar    1  UNL1        0.0193
     18 C          -8.5030    4.7561   23.9278 C.ar    1  UNL1        0.0813
     19 N          -9.5311    3.6797   24.1130 N.ar    1  UNL1       -0.2437
     20 C         -10.9095    4.0327   24.5878 C.ar    1  UNL1        0.1033
     21 C          -7.1246    4.4031   23.4531 C.ar    1  UNL1        0.0177
     22 C          -6.8095    4.4190   21.9867 C.ar    1  UNL1        0.0015
     23 C          -5.4311    4.0660   21.5120 C.ar    1  UNL1        0.0000
     24 C          -4.3678    3.6971   22.5037 C.ar    1  UNL1        0.0000
     25 C          -4.6830    3.6813   23.9701 C.ar    1  UNL1        0.0000
     26 C          -6.0615    4.0343   24.4448 C.ar    1  UNL1        0.0015
@<TRIPOS>BOND
     1     1     2    2
     2     2     3   am
     3     3     5    1
     4     5     6   ar
     5     6     7   ar
     6     7     8   ar
     7     8     9   ar
     8     9    10   ar
     9    10    11   ar
    10    11    12   ar
    11    12    13   ar
    12    13    14   ar
    13     2    15    1
    14    15    16   ar
    15    16    17   ar
    16    17    18   ar
    17    18    21    1
    18    21    22   ar
    19    22    23   ar
    20    23    24   ar
    21    24    25   ar
    22    25    26   ar
    23    18    19   ar
    24    19    20   ar
    25    14     5   ar
    26    20    15   ar
    27    13     8   ar
    28    26    21   ar
    29     3     4    1
