@<TRIPOS>MOLECULE
*****
 32 34 0 0 0
SMALL
GASTEIGER

@<TRIPOS>ATOM
      1 C          -5.7045  -17.4264   22.9922 C.ar    1  UNL1        0.0942
      2 C          -5.9460  -16.2778   23.9261 C.ar    1  UNL1        0.1078
      3 N          -7.3487  -15.8729   24.2702 N.ar    1  UNL1       -0.2119
      4 C          -8.5101  -16.6168   23.6802 C.ar    1  UNL1        0.2206
      5 N          -8.2687  -17.7654   22.7464 N.ar    1  UNL1       -0.2094
      6 C          -6.8660  -18.1703   22.4023 C.ar    1  UNL1        0.1613
      7 O          -3.2069  -16.8063   22.6358 O.2     1  UNL1       -0.2700
      8 C          -4.3018  -17.8313   22.6481 C.2     1  UNL1        0.2489
      9 N          -3.9941  -19.2615   22.3164 N.am    1  UNL1       -0.2985
     10 H          -4.7128  -19.9343   22.3244 H       1  UNL1        0.1498
     11 C          -2.5914  -19.6665   21.9723 C.3     1  UNL1        0.1165
     12 C          -1.7816  -18.8336   21.0234 C.3     1  UNL1        0.1063
     13 O          -0.9249  -18.7373   22.2508 O.3     1  UNL1       -0.3851
     14 C          -2.9195  -19.2192   20.1254 C.3     1  UNL1        0.0286
     15 C          -2.9501  -18.7384   18.7049 C.3     1  UNL1        0.0025
     16 C          -1.8427  -17.8720   18.1824 C.3     1  UNL1        0.0002
     17 C          -0.7047  -17.4864   19.0803 C.3     1  UNL1        0.0025
     18 C          -0.6742  -17.9672   20.5008 C.3     1  UNL1        0.0286
     19 H          -1.3337  -19.2425   22.9709 H       1  UNL1        0.2103
     20 C          -6.6245  -19.3190   21.4685 C.3     1  UNL1        0.4351
     21 F          -6.3830  -20.4677   20.5345 F       1  UNL1       -0.1644
     22 F          -6.4114  -18.3557   20.3387 F       1  UNL1       -0.1644
     23 F          -6.8376  -20.2824   22.5983 F       1  UNL1       -0.1644
     24 N          -9.9129  -16.2119   24.0243 N.pl3   1  UNL1       -0.2825
     25 H         -10.0886  -15.6917   24.8415 H       1  UNL1        0.1551
     26 C         -11.0477  -16.5994   23.1235 C.ar    1  UNL1        0.0513
     27 C         -12.0910  -17.5642   23.6039 C.ar    1  UNL1        0.0147
     28 C         -13.2259  -17.9517   22.7029 C.ar    1  UNL1        0.0021
     29 C         -13.3177  -17.3745   21.3215 C.ar    1  UNL1        0.0115
     30 C         -12.2744  -16.4097   20.8410 C.ar    1  UNL1        0.0589
     31 CL        -12.3661  -15.8324   19.4596 Cl      1  UNL1       -0.0822
     32 C         -11.1395  -16.0222   21.7420 C.ar    1  UNL1        0.0261
@<TRIPOS>BOND
     1     7     8    2
     2     8     9   am
     3     9    11    1
     4    11    12    1
     5    12    13    1
     6    12    14    1
     7    14    15    1
     8    15    16    1
     9    16    17    1
    10    17    18    1
    11     8     1    1
    12     1     2   ar
    13     2     3   ar
    14     3     4   ar
    15     4    24    1
    16    24    26    1
    17    26    27   ar
    18    27    28   ar
    19    28    29   ar
    20    29    30   ar
    21    30    31    1
    22    30    32   ar
    23     4     5   ar
    24     5     6   ar
    25     6    20    1
    26    20    21    1
    27    20    22    1
    28    20    23    1
    29    18    12    1
    30     6     1   ar
    31    32    26   ar
    32     9    10    1
    33    13    19    1
    34    24    25    1
@<TRIPOS>MOLECULE
*****
 32 34 0 0 0
SMALL
GASTEIGER

@<TRIPOS>ATOM
      1 C           6.8162   -2.4947   19.3720 C.ar    1  UNL1        0.0942
      2 C           8.2766   -2.3235   19.6684 C.ar    1  UNL1        0.1078
      3 N           9.0066   -3.3621   20.4675 N.ar    1  UNL1       -0.2119
      4 C           8.2760   -4.5719   20.9702 C.ar    1  UNL1        0.2206
      5 N           6.8157   -4.7431   20.6738 N.ar    1  UNL1       -0.2094
      6 C           6.0857   -3.7046   19.8747 C.ar    1  UNL1        0.1613
      7 O           6.3908   -1.2807   17.1147 O.2     1  UNL1       -0.2700
      8 C           6.0863   -1.4562   18.5729 C.2     1  UNL1        0.2489
      9 N           5.0517   -0.5930   19.2322 N.am    1  UNL1       -0.2985
     10 H           4.8518   -0.7081   20.1893 H       1  UNL1        0.1498
     11 C           4.3217    0.4456   18.4331 C.3     1  UNL1        0.1165
     12 C           2.9621    0.9073   18.8672 C.3     1  UNL1        0.1063
     13 O           3.4480    2.1448   18.1725 O.3     1  UNL1       -0.3851
     14 C           2.9485   -0.4905   19.4111 C.3     1  UNL1        0.0286
     15 C           1.7440   -0.9968   20.1478 C.3     1  UNL1        0.0025
     16 C           0.5531   -0.1053   20.3406 C.3     1  UNL1        0.0002
     17 C           0.5668    1.2925   19.7967 C.3     1  UNL1        0.0025
     18 C           1.7713    1.7988   19.0600 C.3     1  UNL1        0.0286
     19 H           4.3422    1.9927   17.8288 H       1  UNL1        0.2103
     20 C           4.6253   -3.8758   19.5783 C.3     1  UNL1        0.4351
     21 F           3.1649   -4.0470   19.2817 F       1  UNL1       -0.1644
     22 F           4.9668   -4.5134   18.2642 F       1  UNL1       -0.1644
     23 F           4.2838   -3.2381   20.8924 F       1  UNL1       -0.1644
     24 N           9.0060   -5.6105   21.7693 N.pl3   1  UNL1       -0.2825
     25 H           9.8019   -6.0514   21.3933 H       1  UNL1        0.1551
     26 C           8.5234   -5.9774   23.1413 C.ar    1  UNL1        0.0513
     27 C           8.6906   -7.3804   23.6450 C.ar    1  UNL1        0.0147
     28 C           8.2079   -7.7472   25.0170 C.ar    1  UNL1        0.0021
     29 C           7.5580   -6.7111   25.8854 C.ar    1  UNL1        0.0115
     30 C           7.3908   -5.3081   25.3817 C.ar    1  UNL1        0.0589
     31 CL          6.7408   -4.2720   26.2500 Cl      1  UNL1       -0.0822
     32 C           7.8734   -4.9413   24.0097 C.ar    1  UNL1        0.0261
@<TRIPOS>BOND
     1     7     8    2
     2     8     9   am
     3     9    11    1
     4    11    12    1
     5    12    13    1
     6    12    14    1
     7    14    15    1
     8    15    16    1
     9    16    17    1
    10    17    18    1
    11     8     1    1
    12     1     2   ar
    13     2     3   ar
    14     3     4   ar
    15     4    24    1
    16    24    26    1
    17    26    27   ar
    18    27    28   ar
    19    28    29   ar
    20    29    30   ar
    21    30    31    1
    22    30    32   ar
    23     4     5   ar
    24     5     6   ar
    25     6    20    1
    26    20    21    1
    27    20    22    1
    28    20    23    1
    29    18    12    1
    30     6     1   ar
    31    32    26   ar
    32     9    10    1
    33    13    19    1
    34    24    25    1
@<TRIPOS>MOLECULE
*****
 32 34 0 0 0
SMALL
GASTEIGER

@<TRIPOS>ATOM
      1 C           5.8277   -2.4859   19.3439 C.ar    1  UNL1        0.0942
      2 C           7.1787   -1.8914   19.6109 C.ar    1  UNL1        0.1078
      3 N           8.2129   -2.6832   20.3549 N.ar    1  UNL1       -0.2119
      4 C           7.8960   -4.0697   20.8318 C.ar    1  UNL1        0.2206
      5 N           6.5451   -4.6642   20.5648 N.ar    1  UNL1       -0.2094
      6 C           5.5109   -3.8724   19.8209 C.ar    1  UNL1        0.1613
      7 O           4.8374   -1.6231   17.1023 O.2     1  UNL1       -0.2700
      8 C           4.7936   -1.6941   18.5999 C.2     1  UNL1        0.2489
      9 N           3.7154   -0.9734   19.3537 N.am    1  UNL1       -0.2985
     10 H           3.6866   -1.0200   20.3367 H       1  UNL1        0.1498
     11 C           2.6812   -0.1816   18.6098 C.3     1  UNL1        0.1165
     12 C           1.5333    0.4368   19.3514 C.3     1  UNL1        0.1063
     13 O           1.4955   -0.9499   19.9221 O.3     1  UNL1       -0.3851
     14 C           1.9697    1.6087   18.5232 C.3     1  UNL1        0.0286
     15 C           1.2451    2.9173   18.6348 C.3     1  UNL1        0.0025
     16 C           0.0841    3.0539   19.5746 C.3     1  UNL1        0.0002
     17 C          -0.3524    1.8820   20.4029 C.3     1  UNL1        0.0025
     18 C           0.3722    0.5734   20.2913 C.3     1  UNL1        0.0286
     19 H           2.2021   -1.4825   19.5247 H       1  UNL1        0.2103
     20 C           4.1599   -4.4669   19.5538 C.3     1  UNL1        0.4351
     21 F           2.8089   -5.0614   19.2868 F       1  UNL1       -0.1644
     22 F           3.6473   -3.8770   20.8341 F       1  UNL1       -0.1644
     23 F           4.6726   -5.0569   18.2735 F       1  UNL1       -0.1644
     24 N           8.9302   -4.8615   21.5759 N.pl3   1  UNL1       -0.2825
     25 H           9.8464   -4.9299   21.2219 H       1  UNL1        0.1551
     26 C           8.5687   -5.5489   22.8590 C.ar    1  UNL1        0.0513
     27 C           8.9344   -6.9887   23.0675 C.ar    1  UNL1        0.0147
     28 C           8.5729   -7.6761   24.3507 C.ar    1  UNL1        0.0021
     29 C           7.8455   -6.9239   25.4255 C.ar    1  UNL1        0.0115
     30 C           7.4798   -5.4841   25.2170 C.ar    1  UNL1        0.0589
     31 CL          6.7525   -4.7319   26.2917 Cl      1  UNL1       -0.0822
     32 C           7.8414   -4.7967   23.9338 C.ar    1  UNL1        0.0261
@<TRIPOS>BOND
     1     7     8    2
     2     8     9   am
     3     9    11    1
     4    11    12    1
     5    12    13    1
     6    12    14    1
     7    14    15    1
     8    15    16    1
     9    16    17    1
    10    17    18    1
    11     8     1    1
    12     1     2   ar
    13     2     3   ar
    14     3     4   ar
    15     4    24    1
    16    24    26    1
    17    26    27   ar
    18    27    28   ar
    19    28    29   ar
    20    29    30   ar
    21    30    31    1
    22    30    32   ar
    23     4     5   ar
    24     5     6   ar
    25     6    20    1
    26    20    21    1
    27    20    22    1
    28    20    23    1
    29    18    12    1
    30     6     1   ar
    31    32    26   ar
    32     9    10    1
    33    13    19    1
    34    24    25    1
@<TRIPOS>MOLECULE
*****
 32 34 0 0 0
SMALL
GASTEIGER

@<TRIPOS>ATOM
      1 C           5.0232   -2.4533   20.6585 C.ar    1  UNL1        0.0942
      2 C           4.6091   -1.2095   21.3876 C.ar    1  UNL1        0.1078
      3 N           3.2344   -0.6443   21.1859 N.ar    1  UNL1       -0.2119
      4 C           2.2737   -1.3229   20.2550 C.ar    1  UNL1        0.2206
      5 N           2.6877   -2.5666   19.5259 N.ar    1  UNL1       -0.2094
      6 C           4.0624   -3.1318   19.7276 C.ar    1  UNL1        0.1613
      7 O           7.5128   -2.6272   19.9363 O.2     1  UNL1       -0.2700
      8 C           6.3978   -3.0185   20.8602 C.2     1  UNL1        0.2489
      9 N           6.6576   -3.9752   21.9860 N.am    1  UNL1       -0.2985
     10 H           5.9258   -4.2320   22.5925 H       1  UNL1        0.1498
     11 C           8.0322   -4.5405   22.1878 C.3     1  UNL1        0.1165
     12 C           8.2227   -5.7669   23.0302 C.3     1  UNL1        0.1063
     13 O           8.8173   -6.2433   21.7381 O.3     1  UNL1       -0.3851
     14 C           7.5620   -4.8645   24.0297 C.3     1  UNL1        0.0286
     15 C           7.2982   -5.3541   25.4228 C.3     1  UNL1        0.0025
     16 C           7.6953   -6.7460   25.8163 C.3     1  UNL1        0.0002
     17 C           8.3560   -7.6484   24.8168 C.3     1  UNL1        0.0025
     18 C           8.6198   -7.1588   23.4237 C.3     1  UNL1        0.0286
     19 H           8.7636   -5.5355   21.0770 H       1  UNL1        0.2103
     20 C           4.4764   -4.3756   18.9985 C.3     1  UNL1        0.4351
     21 F           4.8905   -5.6193   18.2693 F       1  UNL1       -0.1644
     22 F           5.1802   -3.5392   17.9713 F       1  UNL1       -0.1644
     23 F           3.7726   -5.2121   20.0256 F       1  UNL1       -0.1644
     24 N           0.8990   -0.7576   20.0532 N.pl3   1  UNL1       -0.2825
     25 H           0.1163   -1.3549   20.0533 H       1  UNL1        0.1551
     26 C           0.7167    0.7174   19.8514 C.ar    1  UNL1        0.0513
     27 C           1.0300    1.3369   18.5217 C.ar    1  UNL1        0.0147
     28 C           0.8477    2.8120   18.3200 C.ar    1  UNL1        0.0021
     29 C           0.3522    3.6678   19.4478 C.ar    1  UNL1        0.0115
     30 C           0.0389    3.0483   20.7776 C.ar    1  UNL1        0.0589
     31 CL         -0.4567    3.9039   21.9055 Cl      1  UNL1       -0.0822
     32 C           0.2212    1.5731   20.9793 C.ar    1  UNL1        0.0261
@<TRIPOS>BOND
     1     7     8    2
     2     8     9   am
     3     9    11    1
     4    11    12    1
     5    12    13    1
     6    12    14    1
     7    14    15    1
     8    15    16    1
     9    16    17    1
    10    17    18    1
    11     8     1    1
    12     1     2   ar
    13     2     3   ar
    14     3     4   ar
    15     4    24    1
    16    24    26    1
    17    26    27   ar
    18    27    28   ar
    19    28    29   ar
    20    29    30   ar
    21    30    31    1
    22    30    32   ar
    23     4     5   ar
    24     5     6   ar
    25     6    20    1
    26    20    21    1
    27    20    22    1
    28    20    23    1
    29    18    12    1
    30     6     1   ar
    31    32    26   ar
    32     9    10    1
    33    13    19    1
    34    24    25    1
@<TRIPOS>MOLECULE
*****
 32 34 0 0 0
SMALL
GASTEIGER

@<TRIPOS>ATOM
      1 C           0.2475    2.2214   28.4233 C.ar    1  UNL1        0.0942
      2 C           0.9220    3.4643   28.9235 C.ar    1  UNL1        0.1078
      3 N           1.1497    3.6543   30.3939 N.ar    1  UNL1       -0.2119
      4 C           0.7027    2.6012   31.3642 C.ar    1  UNL1        0.2206
      5 N           0.0282    1.3584   30.8641 N.ar    1  UNL1       -0.2094
      6 C          -0.1995    1.1684   29.3937 C.ar    1  UNL1        0.1613
      7 O          -1.2928    2.4211   26.3406 O.2     1  UNL1       -0.2700
      8 C           0.0199    2.0314   26.9530 C.2     1  UNL1        0.2489
      9 N           1.1051    1.4518   26.0948 N.am    1  UNL1       -0.2985
     10 H           1.9667    1.1960   26.4967 H       1  UNL1        0.1498
     11 C           0.8776    1.2618   24.6244 C.3     1  UNL1        0.1165
     12 C           1.7922    0.3753   23.8323 C.3     1  UNL1        0.1063
     13 O           2.3105    0.1148   25.2155 O.3     1  UNL1       -0.3851
     14 C           0.9562    0.9436   22.7241 C.3     1  UNL1        0.0286
     15 C           1.2149    0.5350   21.3042 C.3     1  UNL1        0.0025
     16 C           2.3097   -0.4420   20.9925 C.3     1  UNL1        0.0002
     17 C           3.1456   -1.0103   22.1007 C.3     1  UNL1        0.0025
     18 C           2.8869   -0.6017   23.5206 C.3     1  UNL1        0.0286
     19 H           1.8003    0.6355   25.8554 H       1  UNL1        0.2103
     20 C          -0.8740   -0.0745   28.8935 C.3     1  UNL1        0.4351
     21 F          -1.5486   -1.3174   28.3933 F       1  UNL1       -0.1644
     22 F          -2.2110    0.5858   29.0560 F       1  UNL1       -0.1644
     23 F           0.4630   -0.7348   28.7310 F       1  UNL1       -0.1644
     24 N           0.9303    2.7912   32.8346 N.pl3   1  UNL1       -0.2825
     25 H           0.3184    3.3573   33.3584 H       1  UNL1        0.1551
     26 C           2.0902    2.1188   33.5071 C.ar    1  UNL1        0.0513
     27 C           2.4584    2.4874   34.9137 C.ar    1  UNL1        0.0147
     28 C           3.6184    1.8149   35.5861 C.ar    1  UNL1        0.0021
     29 C           4.4103    0.7738   34.8520 C.ar    1  UNL1        0.0115
     30 C           4.0420    0.4051   33.4454 C.ar    1  UNL1        0.0589
     31 CL          4.8338   -0.6361   32.7112 Cl      1  UNL1       -0.0822
     32 C           2.8821    1.0776   32.7730 C.ar    1  UNL1        0.0261
@<TRIPOS>BOND
     1     7     8    2
     2     8     9   am
     3     9    11    1
     4    11    12    1
     5    12    13    1
     6    12    14    1
     7    14    15    1
     8    15    16    1
     9    16    17    1
    10    17    18    1
    11     8     1    1
    12     1     2   ar
    13     2     3   ar
    14     3     4   ar
    15     4    24    1
    16    24    26    1
    17    26    27   ar
    18    27    28   ar
    19    28    29   ar
    20    29    30   ar
    21    30    31    1
    22    30    32   ar
    23     4     5   ar
    24     5     6   ar
    25     6    20    1
    26    20    21    1
    27    20    22    1
    28    20    23    1
    29    18    12    1
    30     6     1   ar
    31    32    26   ar
    32     9    10    1
    33    13    19    1
    34    24    25    1
@<TRIPOS>MOLECULE
*****
 32 34 0 0 0
SMALL
GASTEIGER

@<TRIPOS>ATOM
      1 C           2.0825   -0.4206   20.3005 C.ar    1  UNL1        0.0942
      2 C           0.6538   -0.4822   20.7531 C.ar    1  UNL1        0.1078
      3 N          -0.2334    0.7177   20.6016 N.ar    1  UNL1       -0.2119
      4 C           0.3081    1.9793   19.9973 C.ar    1  UNL1        0.2206
      5 N           1.7368    2.0409   19.5446 N.ar    1  UNL1       -0.2094
      6 C           2.6240    0.8410   19.6962 C.ar    1  UNL1        0.1613
      7 O           3.5770   -1.9407   21.7857 O.2     1  UNL1       -0.2700
      8 C           2.9698   -1.6205   20.4520 C.2     1  UNL1        0.2489
      9 N           3.2498   -2.5003   19.2697 N.am    1  UNL1       -0.2985
     10 H           2.8512   -2.2901   18.3944 H       1  UNL1        0.1498
     11 C           4.1370   -3.7002   19.4212 C.3     1  UNL1        0.1165
     12 C           5.5785   -3.5246   19.7970 C.3     1  UNL1        0.1063
     13 O           5.1091   -4.3625   20.9492 O.3     1  UNL1       -0.3851
     14 C           5.5473   -2.7476   18.5143 C.3     1  UNL1        0.0286
     15 C           6.7945   -2.0861   18.0077 C.3     1  UNL1        0.0025
     16 C           8.0730   -2.2015   18.7838 C.3     1  UNL1        0.0002
     17 C           8.1042   -2.9785   20.0664 C.3     1  UNL1        0.0025
     18 C           6.8569   -3.6400   20.5731 C.3     1  UNL1        0.0286
     19 H           4.1660   -4.5618   20.8410 H       1  UNL1        0.2103
     20 C           4.0527    0.9026   19.2435 C.3     1  UNL1        0.4351
     21 F           5.4815    0.9642   18.7907 F       1  UNL1       -0.1644
     22 F           3.6383    0.4515   17.8743 F       1  UNL1       -0.1644
     23 F           4.4672    1.3538   20.6127 F       1  UNL1       -0.1644
     24 N          -0.5792    3.1792   19.8457 N.pl3   1  UNL1       -0.2825
     25 H          -0.3634    3.8698   19.1780 H       1  UNL1        0.1551
     26 C          -1.7951    3.3270   20.7114 C.ar    1  UNL1        0.0513
     27 C          -3.1633    3.2683   20.0993 C.ar    1  UNL1        0.0147
     28 C          -4.3792    3.4162   20.9651 C.ar    1  UNL1        0.0021
     29 C          -4.2271    3.6227   22.4430 C.ar    1  UNL1        0.0115
     30 C          -2.8589    3.6814   23.0551 C.ar    1  UNL1        0.0589
     31 CL         -2.7066    3.8879   24.5330 Cl      1  UNL1       -0.0822
     32 C          -1.6430    3.5336   22.1893 C.ar    1  UNL1        0.0261
@<TRIPOS>BOND
     1     7     8    2
     2     8     9   am
     3     9    11    1
     4    11    12    1
     5    12    13    1
     6    12    14    1
     7    14    15    1
     8    15    16    1
     9    16    17    1
    10    17    18    1
    11     8     1    1
    12     1     2   ar
    13     2     3   ar
    14     3     4   ar
    15     4    24    1
    16    24    26    1
    17    26    27   ar
    18    27    28   ar
    19    28    29   ar
    20    29    30   ar
    21    30    31    1
    22    30    32   ar
    23     4     5   ar
    24     5     6   ar
    25     6    20    1
    26    20    21    1
    27    20    22    1
    28    20    23    1
    29    18    12    1
    30     6     1   ar
    31    32    26   ar
    32     9    10    1
    33    13    19    1
    34    24    25    1
@<TRIPOS>MOLECULE
*****
 32 34 0 0 0
SMALL
GASTEIGER

@<TRIPOS>ATOM
      1 C           5.1644   -1.4495   25.8900 C.ar    1  UNL1        0.0942
      2 C           6.1115   -2.5925   26.1051 C.ar    1  UNL1        0.1078
      3 N           6.7153   -3.2982   24.9272 N.ar    1  UNL1       -0.2119
      4 C           6.3719   -2.8606   23.5341 C.ar    1  UNL1        0.2206
      5 N           5.4248   -1.7176   23.3190 N.ar    1  UNL1       -0.2094
      6 C           4.8210   -1.0120   24.4969 C.ar    1  UNL1        0.1613
      7 O           5.3482    0.3013   27.8008 O.2     1  UNL1       -0.2700
      8 C           4.5606   -0.7439   27.0680 C.2     1  UNL1        0.2489
      9 N           3.1689   -1.0836   27.5131 N.am    1  UNL1       -0.2985
     10 H           2.6520   -1.7696   27.0321 H       1  UNL1        0.1498
     11 C           2.5651   -0.3780   28.6910 C.3     1  UNL1        0.1165
     12 C           1.1265    0.0455   28.6550 C.3     1  UNL1        0.1063
     13 O           1.1260   -0.7724   29.9125 O.3     1  UNL1       -0.3851
     14 C           1.6267    0.7162   27.4101 C.3     1  UNL1        0.0286
     15 C           0.6880    1.5264   26.5660 C.3     1  UNL1        0.0025
     16 C          -0.7507    1.6658   26.9668 C.3     1  UNL1        0.0002
     17 C          -1.2508    0.9950   28.2117 C.3     1  UNL1        0.0025
     18 C          -0.3122    0.1848   29.0558 C.3     1  UNL1        0.0286
     19 H           2.0165   -1.1229   30.0706 H       1  UNL1        0.2103
     20 C           3.8738    0.1310   24.2818 C.3     1  UNL1        0.4351
     21 F           2.9267    1.2742   24.0668 F       1  UNL1       -0.1644
     22 F           5.0259    1.0911   24.3111 F       1  UNL1       -0.1644
     23 F           2.7217   -0.8291   24.2525 F       1  UNL1       -0.1644
     24 N           6.9757   -3.5663   22.3561 N.pl3   1  UNL1       -0.2825
     25 H           7.7637   -4.1435   22.4790 H       1  UNL1        0.1551
     26 C           6.3790   -3.3925   20.9910 C.ar    1  UNL1        0.0513
     27 C           7.1178   -2.6140   19.9430 C.ar    1  UNL1        0.0147
     28 C           6.5210   -2.4402   18.5779 C.ar    1  UNL1        0.0021
     29 C           5.1855   -3.0448   18.2606 C.ar    1  UNL1        0.0115
     30 C           4.4467   -3.8233   19.3086 C.ar    1  UNL1        0.0589
     31 CL          3.1111   -4.4279   18.9913 Cl      1  UNL1       -0.0822
     32 C           5.0435   -3.9971   20.6737 C.ar    1  UNL1        0.0261
@<TRIPOS>BOND
     1     7     8    2
     2     8     9   am
     3     9    11    1
     4    11    12    1
     5    12    13    1
     6    12    14    1
     7    14    15    1
     8    15    16    1
     9    16    17    1
    10    17    18    1
    11     8     1    1
    12     1     2   ar
    13     2     3   ar
    14     3     4   ar
    15     4    24    1
    16    24    26    1
    17    26    27   ar
    18    27    28   ar
    19    28    29   ar
    20    29    30   ar
    21    30    31    1
    22    30    32   ar
    23     4     5   ar
    24     5     6   ar
    25     6    20    1
    26    20    21    1
    27    20    22    1
    28    20    23    1
    29    18    12    1
    30     6     1   ar
    31    32    26   ar
    32     9    10    1
    33    13    19    1
    34    24    25    1
@<TRIPOS>MOLECULE
*****
 32 34 0 0 0
SMALL
GASTEIGER

@<TRIPOS>ATOM
      1 C          -6.5602  -16.7588   23.7925 C.ar    1  UNL1        0.0942
      2 C          -7.2224  -16.1620   24.9988 C.ar    1  UNL1        0.1078
      3 N          -8.5665  -16.6605   25.4402 N.ar    1  UNL1       -0.2119
      4 C          -9.2484  -17.7559   24.6752 C.ar    1  UNL1        0.2206
      5 N          -8.5863  -18.3526   23.4689 N.ar    1  UNL1       -0.2094
      6 C          -7.2422  -17.8542   23.0275 C.ar    1  UNL1        0.1613
      7 O          -5.0278  -14.8114   23.0119 O.2     1  UNL1       -0.2700
      8 C          -5.2161  -16.2603   23.3511 C.2     1  UNL1        0.2489
      9 N          -4.0603  -17.2109   23.2488 N.am    1  UNL1       -0.2985
     10 H          -4.1839  -18.1619   23.4714 H       1  UNL1        0.1498
     11 C          -2.7161  -16.7125   22.8074 C.3     1  UNL1        0.1165
     12 C          -2.2392  -16.9784   21.4103 C.3     1  UNL1        0.1063
     13 O          -1.8431  -15.5386   21.5511 O.3     1  UNL1       -0.3851
     14 C          -2.8010  -18.3259   21.7546 C.3     1  UNL1        0.0286
     15 C          -2.7483  -19.4392   20.7508 C.3     1  UNL1        0.0025
     16 C          -2.1338  -19.2051   19.4026 C.3     1  UNL1        0.0002
     17 C          -1.5721  -17.8576   19.0583 C.3     1  UNL1        0.0025
     18 C          -1.6248  -16.7443   20.0621 C.3     1  UNL1        0.0286
     19 H          -2.0955  -15.2184   22.4313 H       1  UNL1        0.2103
     20 C          -6.5800  -18.4509   21.8211 C.3     1  UNL1        0.4351
     21 F          -5.9177  -19.0477   20.6148 F       1  UNL1       -0.1644
     22 F          -5.8227  -19.3971   22.7049 F       1  UNL1       -0.1644
     23 F          -7.3373  -17.5046   20.9373 F       1  UNL1       -0.1644
     24 N         -10.5926  -18.2544   25.1166 N.pl3   1  UNL1       -0.2825
     25 H         -10.7057  -18.6315   26.0190 H       1  UNL1        0.1551
     26 C         -11.7643  -18.1784   24.1833 C.ar    1  UNL1        0.0513
     27 C         -11.5517  -17.8333   22.7391 C.ar    1  UNL1        0.0147
     28 C         -12.7235  -17.7573   21.8058 C.ar    1  UNL1        0.0021
     29 C         -14.1079  -18.0263   22.3166 C.ar    1  UNL1        0.0115
     30 C         -14.3205  -18.3714   23.7608 C.ar    1  UNL1        0.0589
     31 CL        -15.7050  -18.6405   24.2717 Cl      1  UNL1       -0.0822
     32 C         -13.1488  -18.4474   24.6941 C.ar    1  UNL1        0.0261
@<TRIPOS>BOND
     1     7     8    2
     2     8     9   am
     3     9    11    1
     4    11    12    1
     5    12    13    1
     6    12    14    1
     7    14    15    1
     8    15    16    1
     9    16    17    1
    10    17    18    1
    11     8     1    1
    12     1     2   ar
    13     2     3   ar
    14     3     4   ar
    15     4    24    1
    16    24    26    1
    17    26    27   ar
    18    27    28   ar
    19    28    29   ar
    20    29    30   ar
    21    30    31    1
    22    30    32   ar
    23     4     5   ar
    24     5     6   ar
    25     6    20    1
    26    20    21    1
    27    20    22    1
    28    20    23    1
    29    18    12    1
    30     6     1   ar
    31    32    26   ar
    32     9    10    1
    33    13    19    1
    34    24    25    1
@<TRIPOS>MOLECULE
*****
 32 34 0 0 0
SMALL
GASTEIGER

@<TRIPOS>ATOM
      1 C           0.4858    2.2426   29.1523 C.ar    1  UNL1        0.0942
      2 C           0.8842    3.6463   28.8044 C.ar    1  UNL1        0.1078
      3 N           0.2704    4.3280   27.6177 N.ar    1  UNL1       -0.2119
      4 C          -0.7421    3.6061   26.7788 C.ar    1  UNL1        0.2206
      5 N          -1.1406    2.2025   27.1266 N.ar    1  UNL1       -0.2094
      6 C          -0.5267    1.5207   28.3132 C.ar    1  UNL1        0.1613
      7 O           0.4169    1.6182   31.6732 O.2     1  UNL1       -0.2700
      8 C           1.0997    1.5609   30.3389 C.2     1  UNL1        0.2489
      9 N           2.3966    0.8217   30.1913 N.am    1  UNL1       -0.2985
     10 H           2.8448    0.7840   29.3155 H       1  UNL1        0.1498
     11 C           3.0106    0.1398   31.3779 C.3     1  UNL1        0.1165
     12 C           4.1789   -0.7822   31.1917 C.3     1  UNL1        0.1063
     13 O           4.1787   -0.0901   29.8610 O.3     1  UNL1       -0.3851
     14 C           3.7735   -1.1541   32.5872 C.3     1  UNL1        0.0286
     15 C           4.5363   -2.2077   33.3342 C.3     1  UNL1        0.0025
     16 C           5.7046   -2.8893   32.6857 C.3     1  UNL1        0.0002
     17 C           6.1101   -2.5174   31.2903 C.3     1  UNL1        0.0025
     18 C           5.3472   -1.4639   30.5433 C.3     1  UNL1        0.0286
     19 H           3.4553    0.5555   29.8325 H       1  UNL1        0.2103
     20 C          -0.9251    0.1171   28.6611 C.3     1  UNL1        0.4351
     21 F          -1.3237   -1.2866   29.0089 F       1  UNL1       -0.1644
     22 F          -2.1781    0.6323   29.3049 F       1  UNL1       -0.1644
     23 F           0.3278   -0.3982   28.0172 F       1  UNL1       -0.1644
     24 N          -1.3560    4.2879   25.5920 N.pl3   1  UNL1       -0.2825
     25 H          -0.7820    4.7440   24.9350 H       1  UNL1        0.1551
     26 C          -2.8443    4.2749   25.4065 C.ar    1  UNL1        0.0513
     27 C          -3.4488    3.5459   24.2431 C.ar    1  UNL1        0.0147
     28 C          -4.9372    3.5329   24.0576 C.ar    1  UNL1        0.0021
     29 C          -5.8213    4.2488   25.0353 C.ar    1  UNL1        0.0115
     30 C          -5.2168    4.9778   26.1986 C.ar    1  UNL1        0.0589
     31 CL         -6.1007    5.6938   27.1764 Cl      1  UNL1       -0.0822
     32 C          -3.7284    4.9908   26.3841 C.ar    1  UNL1        0.0261
@<TRIPOS>BOND
     1     7     8    2
     2     8     9   am
     3     9    11    1
     4    11    12    1
     5    12    13    1
     6    12    14    1
     7    14    15    1
     8    15    16    1
     9    16    17    1
    10    17    18    1
    11     8     1    1
    12     1     2   ar
    13     2     3   ar
    14     3     4   ar
    15     4    24    1
    16    24    26    1
    17    26    27   ar
    18    27    28   ar
    19    28    29   ar
    20    29    30   ar
    21    30    31    1
    22    30    32   ar
    23     4     5   ar
    24     5     6   ar
    25     6    20    1
    26    20    21    1
    27    20    22    1
    28    20    23    1
    29    18    12    1
    30     6     1   ar
    31    32    26   ar
    32     9    10    1
    33    13    19    1
    34    24    25    1
