@<TRIPOS>MOLECULE
*****
 29 32 0 0 0
SMALL
GASTEIGER

@<TRIPOS>ATOM
      1 N           8.4840   -4.2512   22.2743 N.ar    1  UNL1       -0.2782
      2 C           8.9402   -5.6402   21.9391 C.ar    1  UNL1        0.1808
      3 N           8.6993   -6.7623   22.9049 N.ar    1  UNL1       -0.2252
      4 C           8.0022   -6.4954   24.2060 C.ar    1  UNL1        0.0878
      5 C           7.7612   -7.6175   25.1718 C.ar    1  UNL1        0.0224
      6 C           7.0642   -7.3505   26.4728 C.ar    1  UNL1        0.0390
      7 C           6.6080   -5.9615   26.8081 C.ar    1  UNL1        0.1455
      8 C           6.8489   -4.8394   25.8423 C.ar    1  UNL1        0.0437
      9 C           7.5460   -5.1063   24.5412 C.ar    1  UNL1        0.0769
     10 C           7.7869   -3.9842   23.5754 C.ar    1  UNL1        0.2635
     11 O           7.3307   -2.5951   23.9106 O.2     1  UNL1       -0.2669
     12 C           8.7249   -3.1290   21.3085 C.3     1  UNL1        0.1119
     13 N           5.2756   -2.8881   19.3606 N.3     1  UNL1       -0.2739
     14 C           5.7207   -2.2615   18.0725 C.3     1  UNL1        0.0720
     15 C           7.1671   -1.9241   17.8630 C.3     1  UNL1        0.0174
     16 C           8.1686   -2.2133   18.9417 C.3     1  UNL1        0.0048
     17 C           7.7235   -2.8399   20.2298 C.3     1  UNL1        0.0388
     18 C           6.2771   -3.1773   20.4393 C.3     1  UNL1        0.0739
     19 C           2.8605   -2.1548   19.9769 C.3     1  UNL1        0.0173
     20 C           3.8292   -3.2256   19.5701 C.3     1  UNL1        0.0576
     21 C           3.3513   -4.6336   19.3729 C.3     1  UNL1        0.0173
     22 O           5.9108   -5.6945   28.1092 O.3     1  UNL1       -0.4535
     23 C           6.6545   -5.0468   29.2394 C.ar    1  UNL1        0.1454
     24 C           7.3302   -5.8946   30.2760 C.ar    1  UNL1        0.0398
     25 C           8.0739   -5.2468   31.4063 C.ar    1  UNL1        0.0328
     26 C           8.1418   -3.7513   31.4999 C.ar    1  UNL1        0.1403
     27 F           8.8854   -3.1036   32.6301 F       1  UNL1       -0.2042
     28 C           7.4660   -2.9035   30.4633 C.ar    1  UNL1        0.0328
     29 C           6.7223   -3.5512   29.3330 C.ar    1  UNL1        0.0398
@<TRIPOS>BOND
     1    19    20    1
     2    20    21    1
     3    20    13    1
     4    13    14    1
     5    14    15    1
     6    15    16    1
     7    16    17    1
     8    17    12    1
     9    12     1    1
    10     1     2   ar
    11     2     3   ar
    12     3     4   ar
    13     4     5   ar
    14     5     6   ar
    15     6     7   ar
    16     7    22    1
    17    22    23    1
    18    23    24   ar
    19    24    25   ar
    20    25    26   ar
    21    26    27    1
    22    26    28   ar
    23    28    29   ar
    24     7     8   ar
    25     8     9   ar
    26     9    10   ar
    27    10    11    2
    28    17    18    1
    29    18    13    1
    30    10     1   ar
    31     9     4   ar
    32    29    23   ar
@<TRIPOS>MOLECULE
*****
 29 32 0 0 0
SMALL
GASTEIGER

@<TRIPOS>ATOM
      1 N           7.4015   -4.0226   22.2895 N.ar    1  UNL1       -0.2782
      2 C           8.3470   -4.8781   21.4994 C.ar    1  UNL1        0.1808
      3 N           8.9746   -6.0843   22.1326 N.ar    1  UNL1       -0.2252
      4 C           8.6568   -6.4351   23.5560 C.ar    1  UNL1        0.0878
      5 C           9.2845   -7.6413   24.1892 C.ar    1  UNL1        0.0224
      6 C           8.9667   -7.9921   25.6126 C.ar    1  UNL1        0.0390
      7 C           8.0213   -7.1366   26.4027 C.ar    1  UNL1        0.1455
      8 C           7.3936   -5.9304   25.7695 C.ar    1  UNL1        0.0437
      9 C           7.7114   -5.5796   24.3461 C.ar    1  UNL1        0.0769
     10 C           7.0837   -4.3734   23.7128 C.ar    1  UNL1        0.2635
     11 O           6.1383   -3.5179   24.5029 O.2     1  UNL1       -0.2669
     12 C           6.7738   -2.8164   21.6561 C.3     1  UNL1        0.1119
     13 N           3.4267   -1.9526   19.7067 N.3     1  UNL1       -0.2739
     14 C           3.1178   -3.2768   19.0733 C.3     1  UNL1        0.0720
     15 C           4.0276   -4.4475   19.3008 C.3     1  UNL1        0.0174
     16 C           5.2463   -4.2940   20.1618 C.3     1  UNL1        0.0048
     17 C           5.5552   -2.9698   20.7952 C.3     1  UNL1        0.0388
     18 C           4.6454   -1.7992   20.5676 C.3     1  UNL1        0.0739
     19 C           2.8422    0.2252   18.4162 C.3     1  UNL1        0.0173
     20 C           2.5169   -0.7820   19.4792 C.3     1  UNL1        0.0576
     21 C           1.2818   -0.6185   20.3145 C.3     1  UNL1        0.0173
     22 O           7.7035   -7.4874   27.8261 O.3     1  UNL1       -0.4535
     23 C           7.9428   -6.4858   28.9167 C.ar    1  UNL1        0.1454
     24 C           6.8320   -5.5808   29.3609 C.ar    1  UNL1        0.0398
     25 C           7.0714   -4.5792   30.4516 C.ar    1  UNL1        0.0328
     26 C           8.4214   -4.4826   31.0981 C.ar    1  UNL1        0.1403
     27 F           8.6607   -3.4810   32.1887 F       1  UNL1       -0.2042
     28 C           9.5322   -5.3876   30.6539 C.ar    1  UNL1        0.0328
     29 C           9.2929   -6.3892   29.5633 C.ar    1  UNL1        0.0398
@<TRIPOS>BOND
     1    19    20    1
     2    20    21    1
     3    20    13    1
     4    13    14    1
     5    14    15    1
     6    15    16    1
     7    16    17    1
     8    17    12    1
     9    12     1    1
    10     1     2   ar
    11     2     3   ar
    12     3     4   ar
    13     4     5   ar
    14     5     6   ar
    15     6     7   ar
    16     7    22    1
    17    22    23    1
    18    23    24   ar
    19    24    25   ar
    20    25    26   ar
    21    26    27    1
    22    26    28   ar
    23    28    29   ar
    24     7     8   ar
    25     8     9   ar
    26     9    10   ar
    27    10    11    2
    28    17    18    1
    29    18    13    1
    30    10     1   ar
    31     9     4   ar
    32    29    23   ar
@<TRIPOS>MOLECULE
*****
 29 32 0 0 0
SMALL
GASTEIGER

@<TRIPOS>ATOM
      1 N          -8.8237  -19.7279   19.6310 N.ar    1  UNL1       -0.2782
      2 C          -8.1822  -20.9209   18.9865 C.ar    1  UNL1        0.1808
      3 N          -6.7482  -21.2502   19.2780 N.ar    1  UNL1       -0.2252
      4 C          -5.9556  -20.3866   20.2140 C.ar    1  UNL1        0.0878
      5 C          -4.5215  -20.7159   20.5054 C.ar    1  UNL1        0.0224
      6 C          -3.7290  -19.8523   21.4413 C.ar    1  UNL1        0.0390
      7 C          -4.3705  -18.6593   22.0858 C.ar    1  UNL1        0.1455
      8 C          -5.8045  -18.3300   21.7943 C.ar    1  UNL1        0.0437
      9 C          -6.5971  -19.1936   20.8584 C.ar    1  UNL1        0.0769
     10 C          -8.0312  -18.8643   20.5669 C.ar    1  UNL1        0.2635
     11 O          -8.6727  -17.6713   21.2113 O.2     1  UNL1       -0.2669
     12 C         -10.2579  -19.3986   19.3395 C.3     1  UNL1        0.1119
     13 N         -12.1395  -17.9366   22.5130 N.3     1  UNL1       -0.2739
     14 C         -12.5062  -16.5682   22.0197 C.3     1  UNL1        0.0720
     15 C         -12.1235  -16.1434   20.6330 C.3     1  UNL1        0.0174
     16 C         -11.3740  -17.0869   19.7396 C.3     1  UNL1        0.0048
     17 C         -11.0073  -18.4552   20.2329 C.3     1  UNL1        0.0388
     18 C         -11.3900  -18.8800   21.6196 C.3     1  UNL1        0.0739
     19 C         -13.9281  -18.1632   24.3837 C.3     1  UNL1        0.0173
     20 C         -12.5222  -18.3614   23.8998 C.3     1  UNL1        0.0576
     21 C         -11.4991  -18.9843   24.8026 C.3     1  UNL1        0.0173
     22 O          -3.5779  -17.7957   23.0218 O.3     1  UNL1       -0.4535
     23 C          -4.2760  -17.0199   24.0991 C.ar    1  UNL1        0.1454
     24 C          -4.0819  -17.3942   25.5386 C.ar    1  UNL1        0.0398
     25 C          -4.7800  -16.6183   26.6160 C.ar    1  UNL1        0.0328
     26 C          -5.6723  -15.4682   26.2538 C.ar    1  UNL1        0.1403
     27 F          -6.3704  -14.6924   27.3312 F       1  UNL1       -0.2042
     28 C          -5.8664  -15.0940   24.8143 C.ar    1  UNL1        0.0328
     29 C          -5.1683  -15.8698   23.7370 C.ar    1  UNL1        0.0398
@<TRIPOS>BOND
     1    19    20    1
     2    20    21    1
     3    20    13    1
     4    13    14    1
     5    14    15    1
     6    15    16    1
     7    16    17    1
     8    17    12    1
     9    12     1    1
    10     1     2   ar
    11     2     3   ar
    12     3     4   ar
    13     4     5   ar
    14     5     6   ar
    15     6     7   ar
    16     7    22    1
    17    22    23    1
    18    23    24   ar
    19    24    25   ar
    20    25    26   ar
    21    26    27    1
    22    26    28   ar
    23    28    29   ar
    24     7     8   ar
    25     8     9   ar
    26     9    10   ar
    27    10    11    2
    28    17    18    1
    29    18    13    1
    30    10     1   ar
    31     9     4   ar
    32    29    23   ar
@<TRIPOS>MOLECULE
*****
 29 32 0 0 0
SMALL
GASTEIGER

@<TRIPOS>ATOM
      1 N          -9.8123  -19.1417   19.4984 N.ar    1  UNL1       -0.2782
      2 C          -9.6550  -20.4195   18.7287 C.ar    1  UNL1        0.1808
      3 N          -8.3725  -21.1927   18.8128 N.ar    1  UNL1       -0.2252
      4 C          -7.2470  -20.6880   19.6666 C.ar    1  UNL1        0.0878
      5 C          -5.9644  -21.4612   19.7506 C.ar    1  UNL1        0.0224
      6 C          -4.8391  -20.9565   20.6043 C.ar    1  UNL1        0.0390
      7 C          -4.9964  -19.6787   21.3740 C.ar    1  UNL1        0.1455
      8 C          -6.2790  -18.9055   21.2899 C.ar    1  UNL1        0.0437
      9 C          -7.4043  -19.4102   20.4362 C.ar    1  UNL1        0.0769
     10 C          -8.6870  -18.6370   20.3521 C.ar    1  UNL1        0.2635
     11 O          -8.8442  -17.3592   21.1218 O.2     1  UNL1       -0.2669
     12 C         -11.0950  -18.3685   19.4143 C.3     1  UNL1        0.1119
     13 N         -12.3416  -17.7886   23.1371 N.3     1  UNL1       -0.2739
     14 C         -12.7472  -16.3456   23.0787 C.3     1  UNL1        0.0720
     15 C         -12.6021  -15.5770   21.7988 C.3     1  UNL1        0.0174
     16 C         -12.0513  -16.2513   20.5773 C.3     1  UNL1        0.0048
     17 C         -11.6457  -17.6942   20.6358 C.3     1  UNL1        0.0388
     18 C         -11.7909  -18.4629   21.9157 C.3     1  UNL1        0.0739
     19 C         -11.3217  -19.3258   24.9666 C.3     1  UNL1        0.0173
     20 C         -12.4868  -18.5573   24.4170 C.3     1  UNL1        0.0576
     21 C         -13.7969  -18.5573   25.1473 C.3     1  UNL1        0.0173
     22 O          -3.8709  -19.1740   22.2277 O.3     1  UNL1       -0.4535
     23 C          -2.7091  -18.4665   21.5957 C.ar    1  UNL1        0.1454
     24 C          -2.4609  -17.0176   21.8940 C.ar    1  UNL1        0.0398
     25 C          -1.2990  -16.3100   21.2620 C.ar    1  UNL1        0.0328
     26 C          -0.3854  -17.0514   20.3316 C.ar    1  UNL1        0.1403
     27 F           0.7764  -16.3439   19.6996 F       1  UNL1       -0.2042
     28 C          -0.6336  -18.5003   20.0333 C.ar    1  UNL1        0.0328
     29 C          -1.7954  -19.2079   20.6653 C.ar    1  UNL1        0.0398
@<TRIPOS>BOND
     1    19    20    1
     2    20    21    1
     3    20    13    1
     4    13    14    1
     5    14    15    1
     6    15    16    1
     7    16    17    1
     8    17    12    1
     9    12     1    1
    10     1     2   ar
    11     2     3   ar
    12     3     4   ar
    13     4     5   ar
    14     5     6   ar
    15     6     7   ar
    16     7    22    1
    17    22    23    1
    18    23    24   ar
    19    24    25   ar
    20    25    26   ar
    21    26    27    1
    22    26    28   ar
    23    28    29   ar
    24     7     8   ar
    25     8     9   ar
    26     9    10   ar
    27    10    11    2
    28    17    18    1
    29    18    13    1
    30    10     1   ar
    31     9     4   ar
    32    29    23   ar
@<TRIPOS>MOLECULE
*****
 29 32 0 0 0
SMALL
GASTEIGER

@<TRIPOS>ATOM
      1 N           4.9852   -0.7641   26.0130 N.ar    1  UNL1       -0.2782
      2 C           5.8886   -1.9360   26.2589 C.ar    1  UNL1        0.1808
      3 N           6.0873   -2.9675   25.1882 N.ar    1  UNL1       -0.2252
      4 C           5.3825   -2.8271   23.8715 C.ar    1  UNL1        0.0878
      5 C           5.5812   -3.8586   22.8007 C.ar    1  UNL1        0.0224
      6 C           4.8765   -3.7182   21.4841 C.ar    1  UNL1        0.0390
      7 C           3.9730   -2.5463   21.2382 C.ar    1  UNL1        0.1455
      8 C           3.7743   -1.5148   22.3089 C.ar    1  UNL1        0.0437
      9 C           4.4791   -1.6552   23.6256 C.ar    1  UNL1        0.0769
     10 C           4.2804   -0.6237   24.6964 C.ar    1  UNL1        0.2635
     11 O           3.3770    0.5482   24.4505 O.2     1  UNL1       -0.2669
     12 C           4.7865    0.2674   27.0838 C.3     1  UNL1        0.1119
     13 N           1.1781    0.1665   28.7328 N.3     1  UNL1       -0.2739
     14 C           1.5175   -0.2544   30.1320 C.3     1  UNL1        0.0720
     15 C           2.9466   -0.5013   30.5151 C.3     1  UNL1        0.0174
     16 C           4.0362   -0.3274   29.4990 C.3     1  UNL1        0.0048
     17 C           3.6968    0.0935   28.0999 C.3     1  UNL1        0.0388
     18 C           2.2678    0.3404   27.7167 C.3     1  UNL1        0.0739
     19 C          -1.3212   -0.5407   28.7905 C.3     1  UNL1        0.0173
     20 C          -0.2510    0.4134   28.3496 C.3     1  UNL1        0.0576
     21 C          -0.6098    1.6144   27.5257 C.3     1  UNL1        0.0173
     22 O           3.2682   -2.4059   19.9215 O.3     1  UNL1       -0.4535
     23 C           2.6027   -1.1108   19.5614 C.ar    1  UNL1        0.1454
     24 C           3.3012   -0.1327   18.6640 C.ar    1  UNL1        0.0398
     25 C           2.6355    1.1625   18.3039 C.ar    1  UNL1        0.0328
     26 C           1.2714    1.4794   18.8412 C.ar    1  UNL1        0.1403
     27 F           0.6059    2.7745   18.4811 F       1  UNL1       -0.2042
     28 C           0.5729    0.5013   19.7386 C.ar    1  UNL1        0.0328
     29 C           1.2385   -0.7938   20.0987 C.ar    1  UNL1        0.0398
@<TRIPOS>BOND
     1    19    20    1
     2    20    21    1
     3    20    13    1
     4    13    14    1
     5    14    15    1
     6    15    16    1
     7    16    17    1
     8    17    12    1
     9    12     1    1
    10     1     2   ar
    11     2     3   ar
    12     3     4   ar
    13     4     5   ar
    14     5     6   ar
    15     6     7   ar
    16     7    22    1
    17    22    23    1
    18    23    24   ar
    19    24    25   ar
    20    25    26   ar
    21    26    27    1
    22    26    28   ar
    23    28    29   ar
    24     7     8   ar
    25     8     9   ar
    26     9    10   ar
    27    10    11    2
    28    17    18    1
    29    18    13    1
    30    10     1   ar
    31     9     4   ar
    32    29    23   ar
@<TRIPOS>MOLECULE
*****
 29 32 0 0 0
SMALL
GASTEIGER

@<TRIPOS>ATOM
      1 N           0.5923    2.7525   24.2498 N.ar    1  UNL1       -0.2782
      2 C          -0.7107    2.9182   23.5254 C.ar    1  UNL1        0.1808
      3 N          -0.8135    2.5535   22.0741 N.ar    1  UNL1       -0.2252
      4 C           0.3866    2.0230   21.3471 C.ar    1  UNL1        0.0878
      5 C           0.2837    1.6583   19.8958 C.ar    1  UNL1        0.0224
      6 C           1.4838    1.1278   19.1690 C.ar    1  UNL1        0.0390
      7 C           2.7868    0.9621   19.8934 C.ar    1  UNL1        0.1455
      8 C           2.8897    1.3268   21.3447 C.ar    1  UNL1        0.0437
      9 C           1.6896    1.8573   22.0716 C.ar    1  UNL1        0.0769
     10 C           1.7924    2.2220   23.5230 C.ar    1  UNL1        0.2635
     11 O           3.0954    2.0563   24.2474 O.2     1  UNL1       -0.2669
     12 C           0.6951    3.1173   25.7012 C.3     1  UNL1        0.1119
     13 N           1.3672    0.2674   28.3800 N.3     1  UNL1       -0.2739
     14 C          -0.0273   -0.0031   28.8621 C.3     1  UNL1        0.0720
     15 C          -1.1810    0.7666   28.2905 C.3     1  UNL1        0.0174
     16 C          -0.9401    1.8067   27.2368 C.3     1  UNL1        0.0048
     17 C           0.4543    2.0772   26.7548 C.3     1  UNL1        0.0388
     18 C           1.6080    1.3075   27.3264 C.3     1  UNL1        0.0739
     19 C           2.6319   -0.6958   30.4350 C.3     1  UNL1        0.0173
     20 C           2.5208   -0.5023   28.9516 C.3     1  UNL1        0.0576
     21 C           3.5633   -1.0785   28.0400 C.3     1  UNL1        0.0173
     22 O           3.9869    0.4316   19.1665 O.3     1  UNL1       -0.4535
     23 C           4.1857   -1.0486   19.0272 C.ar    1  UNL1        0.1454
     24 C           5.3635   -1.5787   18.2645 C.ar    1  UNL1        0.0398
     25 C           5.5622   -3.0590   18.1252 C.ar    1  UNL1        0.0328
     26 C           4.5831   -4.0091   18.7485 C.ar    1  UNL1        0.1403
     27 F           4.7818   -5.4893   18.6091 F       1  UNL1       -0.2042
     28 C           3.4052   -3.4790   19.5111 C.ar    1  UNL1        0.0328
     29 C           3.2065   -1.9988   19.6504 C.ar    1  UNL1        0.0398
@<TRIPOS>BOND
     1    19    20    1
     2    20    21    1
     3    20    13    1
     4    13    14    1
     5    14    15    1
     6    15    16    1
     7    16    17    1
     8    17    12    1
     9    12     1    1
    10     1     2   ar
    11     2     3   ar
    12     3     4   ar
    13     4     5   ar
    14     5     6   ar
    15     6     7   ar
    16     7    22    1
    17    22    23    1
    18    23    24   ar
    19    24    25   ar
    20    25    26   ar
    21    26    27    1
    22    26    28   ar
    23    28    29   ar
    24     7     8   ar
    25     8     9   ar
    26     9    10   ar
    27    10    11    2
    28    17    18    1
    29    18    13    1
    30    10     1   ar
    31     9     4   ar
    32    29    23   ar
@<TRIPOS>MOLECULE
*****
 29 32 0 0 0
SMALL
GASTEIGER

@<TRIPOS>ATOM
      1 N           4.8786   -1.0894   18.8050 N.ar    1  UNL1       -0.2782
      2 C           5.8545    0.0360   18.9815 C.ar    1  UNL1        0.1808
      3 N           7.1482   -0.1995   19.7032 N.ar    1  UNL1       -0.2252
      4 C           7.4661   -1.5603   20.2484 C.ar    1  UNL1        0.0878
      5 C           8.7598   -1.7958   20.9700 C.ar    1  UNL1        0.0224
      6 C           9.0776   -3.1565   21.5152 C.ar    1  UNL1        0.0390
      7 C           8.1016   -4.2819   21.3387 C.ar    1  UNL1        0.1455
      8 C           6.8079   -4.0464   20.6171 C.ar    1  UNL1        0.0437
      9 C           6.4901   -2.6857   20.0719 C.ar    1  UNL1        0.0769
     10 C           5.1963   -2.4502   19.3502 C.ar    1  UNL1        0.2635
     11 O           4.2204   -3.5755   19.1737 O.2     1  UNL1       -0.2669
     12 C           3.5848   -0.8539   18.0834 C.3     1  UNL1        0.1119
     13 N           0.9469    1.9612   19.0142 N.3     1  UNL1       -0.2739
     14 C           0.2173    1.3025   20.1473 C.3     1  UNL1        0.0720
     15 C           0.6102   -0.0750   20.5923 C.3     1  UNL1        0.0174
     16 C           1.7327   -0.7938   19.9043 C.3     1  UNL1        0.0048
     17 C           2.4623   -0.1351   18.7713 C.3     1  UNL1        0.0388
     18 C           2.0694    1.2424   18.3263 C.3     1  UNL1        0.0739
     19 C           1.2756    4.5366   19.1118 C.3     1  UNL1        0.0173
     20 C           0.5540    3.3387   18.5692 C.3     1  UNL1        0.0576
     21 C          -0.5605    3.5184   17.5815 C.3     1  UNL1        0.0173
     22 O           8.4194   -5.6427   21.8839 O.3     1  UNL1       -0.4535
     23 C           8.1209   -5.9645   23.3182 C.ar    1  UNL1        0.1454
     24 C           8.4900   -7.3062   23.8784 C.ar    1  UNL1        0.0398
     25 C           8.1914   -7.6279   25.3128 C.ar    1  UNL1        0.0328
     26 C           7.5237   -6.6081   26.1869 C.ar    1  UNL1        0.1403
     27 F           7.2252   -6.9299   27.6212 F       1  UNL1       -0.2042
     28 C           7.1546   -5.2665   25.6267 C.ar    1  UNL1        0.0328
     29 C           7.4532   -4.9447   24.1924 C.ar    1  UNL1        0.0398
@<TRIPOS>BOND
     1    19    20    1
     2    20    21    1
     3    20    13    1
     4    13    14    1
     5    14    15    1
     6    15    16    1
     7    16    17    1
     8    17    12    1
     9    12     1    1
    10     1     2   ar
    11     2     3   ar
    12     3     4   ar
    13     4     5   ar
    14     5     6   ar
    15     6     7   ar
    16     7    22    1
    17    22    23    1
    18    23    24   ar
    19    24    25   ar
    20    25    26   ar
    21    26    27    1
    22    26    28   ar
    23    28    29   ar
    24     7     8   ar
    25     8     9   ar
    26     9    10   ar
    27    10    11    2
    28    17    18    1
    29    18    13    1
    30    10     1   ar
    31     9     4   ar
    32    29    23   ar
@<TRIPOS>MOLECULE
*****
 29 32 0 0 0
SMALL
GASTEIGER

@<TRIPOS>ATOM
      1 N           0.7153    2.9780   20.4758 N.ar    1  UNL1       -0.2782
      2 C           1.2761    3.5040   19.1879 C.ar    1  UNL1        0.1808
      3 N           2.1233    2.6195   18.3220 N.ar    1  UNL1       -0.2252
      4 C           2.4096    1.2087   18.7439 C.ar    1  UNL1        0.0878
      5 C           3.2567    0.3242   17.8780 C.ar    1  UNL1        0.0224
      6 C           3.5430   -1.0865   18.3000 C.ar    1  UNL1        0.0390
      7 C           2.9821   -1.6125   19.5879 C.ar    1  UNL1        0.1455
      8 C           2.1350   -0.7280   20.4538 C.ar    1  UNL1        0.0437
      9 C           1.8487    0.6827   20.0318 C.ar    1  UNL1        0.0769
     10 C           1.0015    1.5673   20.8978 C.ar    1  UNL1        0.2635
     11 O           0.4407    1.0413   22.1857 O.2     1  UNL1       -0.2669
     12 C          -0.1319    3.8626   21.3417 C.3     1  UNL1        0.1119
     13 N          -3.8748    3.5642   20.0566 N.3     1  UNL1       -0.2739
     14 C          -4.6061    3.3816   21.3536 C.3     1  UNL1        0.0720
     15 C          -3.8460    3.3593   22.6465 C.3     1  UNL1        0.0174
     16 C          -2.3545    3.5197   22.6425 C.3     1  UNL1        0.0048
     17 C          -1.6233    3.7023   21.3456 C.3     1  UNL1        0.0388
     18 C          -2.3834    3.7246   20.0527 C.3     1  UNL1        0.0739
     19 C          -6.1044    3.2853   18.7523 C.3     1  UNL1        0.0173
     20 C          -4.6350    3.5865   18.7637 C.3     1  UNL1        0.0576
     21 C          -3.9257    3.9100   17.4822 C.3     1  UNL1        0.0173
     22 O           3.2684   -3.0232   20.0099 O.3     1  UNL1       -0.4535
     23 C           4.5106   -3.3351   20.7906 C.ar    1  UNL1        0.1454
     24 C           5.8063   -3.5756   20.0741 C.ar    1  UNL1        0.0398
     25 C           7.0485   -3.8875   20.8550 C.ar    1  UNL1        0.0328
     26 C           6.9950   -3.9588   22.3523 C.ar    1  UNL1        0.1403
     27 F           8.2372   -4.2706   23.1331 F       1  UNL1       -0.2042
     28 C           5.6994   -3.7182   23.0688 C.ar    1  UNL1        0.0328
     29 C           4.4572   -3.4063   22.2881 C.ar    1  UNL1        0.0398
@<TRIPOS>BOND
     1    19    20    1
     2    20    21    1
     3    20    13    1
     4    13    14    1
     5    14    15    1
     6    15    16    1
     7    16    17    1
     8    17    12    1
     9    12     1    1
    10     1     2   ar
    11     2     3   ar
    12     3     4   ar
    13     4     5   ar
    14     5     6   ar
    15     6     7   ar
    16     7    22    1
    17    22    23    1
    18    23    24   ar
    19    24    25   ar
    20    25    26   ar
    21    26    27    1
    22    26    28   ar
    23    28    29   ar
    24     7     8   ar
    25     8     9   ar
    26     9    10   ar
    27    10    11    2
    28    17    18    1
    29    18    13    1
    30    10     1   ar
    31     9     4   ar
    32    29    23   ar
@<TRIPOS>MOLECULE
*****
 29 32 0 0 0
SMALL
GASTEIGER

@<TRIPOS>ATOM
      1 N           1.5465    1.8013   19.7711 N.ar    1  UNL1       -0.2782
      2 C           2.2348    3.1323   19.7036 C.ar    1  UNL1        0.1808
      3 N           2.1645    4.0731   20.8698 N.ar    1  UNL1       -0.2252
      4 C           1.4058    3.6828   22.1036 C.ar    1  UNL1        0.0878
      5 C           1.3354    4.6236   23.2697 C.ar    1  UNL1        0.0224
      6 C           0.5768    4.2333   24.5034 C.ar    1  UNL1        0.0390
      7 C          -0.1115    2.9023   24.5710 C.ar    1  UNL1        0.1455
      8 C          -0.0412    1.9615   23.4048 C.ar    1  UNL1        0.0437
      9 C           0.7175    2.3518   22.1711 C.ar    1  UNL1        0.0769
     10 C           0.7878    1.4110   21.0048 C.ar    1  UNL1        0.2635
     11 O           0.0995    0.0800   21.0724 O.2     1  UNL1       -0.2669
     12 C           1.6169    0.8605   18.6049 C.3     1  UNL1        0.1119
     13 N           3.9802   -2.2786   19.1620 N.3     1  UNL1       -0.2739
     14 C           5.0922   -1.9698   18.2037 C.3     1  UNL1        0.0720
     15 C           5.0457   -0.7176   17.3792 C.3     1  UNL1        0.0174
     16 C           3.8872    0.2258   17.5130 C.3     1  UNL1        0.0048
     17 C           2.7753   -0.0829   18.4712 C.3     1  UNL1        0.0388
     18 C           2.8218   -1.3351   19.2957 C.3     1  UNL1        0.0739
     19 C           3.5146   -4.8216   19.4194 C.3     1  UNL1        0.0173
     20 C           4.0267   -3.5308   19.9865 C.3     1  UNL1        0.0576
     21 C           4.5853   -3.4922   21.3781 C.3     1  UNL1        0.0173
     22 O          -0.8702    2.5120   25.8047 O.3     1  UNL1       -0.4535
     23 C          -0.2093    1.6726   26.8575 C.ar    1  UNL1        0.1454
     24 C           1.2747    1.4568   26.8224 C.ar    1  UNL1        0.0398
     25 C           1.9357    0.6173   27.8752 C.ar    1  UNL1        0.0328
     26 C           1.1127   -0.0063   28.9632 C.ar    1  UNL1        0.1403
     27 F           1.7737   -0.8458   30.0160 F       1  UNL1       -0.2042
     28 C          -0.3713    0.2095   28.9984 C.ar    1  UNL1        0.0328
     29 C          -1.0323    1.0489   27.9456 C.ar    1  UNL1        0.0398
@<TRIPOS>BOND
     1    19    20    1
     2    20    21    1
     3    20    13    1
     4    13    14    1
     5    14    15    1
     6    15    16    1
     7    16    17    1
     8    17    12    1
     9    12     1    1
    10     1     2   ar
    11     2     3   ar
    12     3     4   ar
    13     4     5   ar
    14     5     6   ar
    15     6     7   ar
    16     7    22    1
    17    22    23    1
    18    23    24   ar
    19    24    25   ar
    20    25    26   ar
    21    26    27    1
    22    26    28   ar
    23    28    29   ar
    24     7     8   ar
    25     8     9   ar
    26     9    10   ar
    27    10    11    2
    28    17    18    1
    29    18    13    1
    30    10     1   ar
    31     9     4   ar
    32    29    23   ar
