@<TRIPOS>MOLECULE
*****
 35 39 0 0 0
SMALL
GASTEIGER

@<TRIPOS>ATOM
      1 C           7.4710   -4.4832   22.9316 C.ar    1  UNL1        0.0503
      2 C           8.2747   -5.7386   22.7649 C.ar    1  UNL1        0.0143
      3 C           8.4042   -6.7033   23.9063 C.ar    1  UNL1       -0.0029
      4 C           7.7301   -6.4125   25.2143 C.ar    1  UNL1       -0.0208
      5 C           6.9263   -5.1571   25.3810 C.ar    1  UNL1       -0.0029
      6 C           6.7968   -4.1924   24.2396 C.ar    1  UNL1        0.0143
      7 C           6.0889   -3.4966   20.9652 C.2     1  UNL1        0.2313
      8 O           4.9660   -4.4395   21.2815 O.2     1  UNL1       -0.2744
      9 N           7.3414   -3.5185   21.7903 N.am    1  UNL1       -0.2836
     10 H           8.0784   -2.8996   21.5828 H       1  UNL1        0.1549
     11 C           1.4060    0.2032   19.0099 C.3     1  UNL1        0.0594
     12 C           2.7828   -0.3901   18.9613 C.ar    1  UNL1        0.0879
     13 N           3.3404   -1.4035   19.9164 N.ar    1  UNL1       -0.2469
     14 C           4.7460   -1.7138   19.4945 C.ar    1  UNL1        0.0695
     15 C           5.0571   -0.8922   18.2786 C.ar    1  UNL1        0.0224
     16 S           3.8438   -0.0741   17.9492 S.2     1  UNL1       -0.0755
     17 C           6.4627   -1.2026   17.8567 C.3     1  UNL1        0.0351
     18 C           7.0202   -2.2160   18.8118 C.3     1  UNL1        0.0204
     19 C           5.9594   -2.5319   19.8239 C.3     1  UNL1        0.1173
     20 C           7.8596   -7.3772   26.3556 C.3     1  UNL1        0.0420
     21 C           8.0801   -6.8660   27.7484 C.3     1  UNL1        0.0585
     22 C           9.3969   -6.7949   28.4634 C.3     1  UNL1        0.0175
     23 C           9.1531   -6.2210   29.8277 C.3     1  UNL1        0.0199
     24 C           7.6858   -5.9375   29.9559 C.3     1  UNL1        0.0856
     25 N           7.0226   -6.3360   28.6709 N.3     1  UNL1       -0.2971
     26 H           6.5699   -5.5252   28.2489 H       1  UNL1        0.1233
     27 C           7.0017   -5.3572   31.1581 C.3     1  UNL1        0.1484
     28 O           6.5720   -6.2530   32.2819 O.3     1  UNL1       -0.3786
     29 H           6.8098   -7.1700   32.0733 H       1  UNL1        0.2108
     30 C           6.7473   -3.8810   31.2366 C.ar    1  UNL1        0.0247
     31 C           6.0810   -3.2980   32.4474 C.ar    1  UNL1        0.0012
     32 C           5.8266   -1.8219   32.5259 C.ar    1  UNL1        0.0204
     33 C           6.2385   -0.9286   31.3935 C.ar    1  UNL1        0.0989
     34 N           6.9048   -1.5115   30.1826 N.ar    1  UNL1       -0.2426
     35 C           7.1592   -2.9877   30.1042 C.ar    1  UNL1        0.0969
@<TRIPOS>BOND
     1    11    12    1
     2    12    13   ar
     3    13    14   ar
     4    14    15   ar
     5    15    16   ar
     6    15    17    1
     7    17    18    1
     8    18    19    1
     9    19     7    1
    10     7     8    2
    11     7     9   am
    12     9     1    1
    13     1     2   ar
    14     2     3   ar
    15     3     4   ar
    16     4    20    1
    17    21    20    1
    18    21    22    1
    19    22    23    1
    20    24    23    1
    21    24    27    1
    22    27    28    1
    23    27    30    1
    24    30    31   ar
    25    31    32   ar
    26    32    33   ar
    27    33    34   ar
    28    34    35   ar
    29    24    25    1
    30     4     5   ar
    31     5     6   ar
    32    16    12   ar
    33     6     1   ar
    34    19    14    1
    35    25    21    1
    36    35    30   ar
    37     9    10    1
    38    28    29    1
    39    25    26    1
@<TRIPOS>MOLECULE
*****
 35 39 0 0 0
SMALL
GASTEIGER

@<TRIPOS>ATOM
      1 C           7.3657   -3.9713   25.1327 C.ar    1  UNL1        0.0503
      2 C           6.1539   -3.4621   24.4100 C.ar    1  UNL1        0.0143
      3 C           6.0996   -3.5088   22.9117 C.ar    1  UNL1       -0.0029
      4 C           7.2570   -4.0645   22.1361 C.ar    1  UNL1       -0.0208
      5 C           8.4688   -4.5736   22.8587 C.ar    1  UNL1       -0.0029
      6 C           8.5232   -4.5270   24.3571 C.ar    1  UNL1        0.0143
      7 C           6.9645   -5.1061   27.4351 C.2     1  UNL1        0.2313
      8 O           6.4544   -6.3341   26.7410 O.2     1  UNL1       -0.2744
      9 N           7.4201   -3.9247   26.6310 N.am    1  UNL1       -0.2836
     10 H           7.7549   -3.1187   27.0866 H       1  UNL1        0.1549
     11 C           5.5145   -0.6592   31.6261 C.3     1  UNL1        0.0594
     12 C           5.9950   -2.0105   31.1866 C.ar    1  UNL1        0.0879
     13 N           6.1049   -2.4892   29.7693 N.ar    1  UNL1       -0.2469
     14 C           6.6278   -3.8949   29.7940 C.ar    1  UNL1        0.0695
     15 C           6.8411   -4.2849   31.2266 C.ar    1  UNL1        0.0224
     16 S           6.4500   -3.1203   32.0873 S.2     1  UNL1       -0.0755
     17 C           7.3640   -5.6906   31.2514 C.3     1  UNL1        0.0351
     18 C           7.4739   -6.1692   29.8341 C.3     1  UNL1        0.0204
     19 C           7.0189   -5.0595   28.9334 C.3     1  UNL1        0.1173
     20 C           7.2026   -4.1110   20.6378 C.3     1  UNL1        0.0420
     21 C           5.9486   -3.7085   19.9199 C.3     1  UNL1        0.0585
     22 C           4.7229   -4.5551   19.7443 C.3     1  UNL1        0.0175
     23 C           3.7168   -3.7585   18.9675 C.3     1  UNL1        0.0199
     24 C           4.3208   -2.4196   18.6631 C.3     1  UNL1        0.0856
     25 N           5.7001   -2.3887   19.2517 N.3     1  UNL1       -0.2971
     26 H           5.7674   -1.6359   19.9366 H       1  UNL1        0.1233
     27 C           3.6612   -1.3071   17.9034 C.3     1  UNL1        0.1484
     28 O           3.8447   -1.2010   16.4184 O.3     1  UNL1       -0.3786
     29 H           4.4132   -1.9241   16.1105 H       1  UNL1        0.2108
     30 C           2.8181   -0.3005   18.6287 C.ar    1  UNL1        0.0247
     31 C           1.9498   -0.7342   19.7724 C.ar    1  UNL1        0.0012
     32 C           1.1068    0.2723   20.4977 C.ar    1  UNL1        0.0204
     33 C           1.1319    1.7126   20.0793 C.ar    1  UNL1        0.0989
     34 N           2.0001    2.1462   18.9356 N.ar    1  UNL1       -0.2426
     35 C           2.8432    1.1397   18.2103 C.ar    1  UNL1        0.0969
@<TRIPOS>BOND
     1    11    12    1
     2    12    13   ar
     3    13    14   ar
     4    14    15   ar
     5    15    16   ar
     6    15    17    1
     7    17    18    1
     8    18    19    1
     9    19     7    1
    10     7     8    2
    11     7     9   am
    12     9     1    1
    13     1     2   ar
    14     2     3   ar
    15     3     4   ar
    16     4    20    1
    17    21    20    1
    18    21    22    1
    19    22    23    1
    20    24    23    1
    21    24    27    1
    22    27    28    1
    23    27    30    1
    24    30    31   ar
    25    31    32   ar
    26    32    33   ar
    27    33    34   ar
    28    34    35   ar
    29    24    25    1
    30     4     5   ar
    31     5     6   ar
    32    16    12   ar
    33     6     1   ar
    34    19    14    1
    35    25    21    1
    36    35    30   ar
    37     9    10    1
    38    28    29    1
    39    25    26    1
@<TRIPOS>MOLECULE
*****
 35 39 0 0 0
SMALL
GASTEIGER

@<TRIPOS>ATOM
      1 C           7.3059   -4.3879   25.7060 C.ar    1  UNL1        0.0503
      2 C           8.0526   -3.3150   26.4418 C.ar    1  UNL1        0.0143
      3 C           8.3025   -3.4504   27.9147 C.ar    1  UNL1       -0.0029
      4 C           7.8058   -4.6587   28.6517 C.ar    1  UNL1       -0.0208
      5 C           7.0591   -5.7316   27.9160 C.ar    1  UNL1       -0.0029
      6 C           6.8092   -5.5962   26.4431 C.ar    1  UNL1        0.0143
      7 C           5.9787   -3.3344   23.7366 C.2     1  UNL1        0.2313
      8 O           5.1514   -2.5518   24.7128 O.2     1  UNL1       -0.2744
      9 N           7.0560   -4.2525   24.2332 N.am    1  UNL1       -0.2836
     10 H           7.5990   -4.7662   23.5925 H       1  UNL1        0.1549
     11 C           1.4455   -0.5338   20.4128 C.3     1  UNL1        0.0594
     12 C           2.7069   -1.3240   20.5981 C.ar    1  UNL1        0.0879
     13 N           3.3294   -1.6959   21.9112 N.ar    1  UNL1       -0.2469
     14 C           4.5745   -2.4828   21.6276 C.ar    1  UNL1        0.0695
     15 C           4.7216   -2.5972   20.1392 C.ar    1  UNL1        0.0224
     16 S           3.5673   -1.8810   19.5030 S.2     1  UNL1       -0.0755
     17 C           5.9667   -3.3841   19.8555 C.3     1  UNL1        0.0351
     18 C           6.5891   -3.7560   21.1686 C.3     1  UNL1        0.0204
     19 C           5.7288   -3.1991   22.2637 C.3     1  UNL1        0.1173
     20 C           8.0557   -4.7941   30.1246 C.3     1  UNL1        0.0420
     21 C           7.4208   -3.8322   31.0846 C.3     1  UNL1        0.0585
     22 C           8.0378   -2.5667   31.6021 C.3     1  UNL1        0.0175
     23 C           7.0558   -1.9193   32.5330 C.3     1  UNL1        0.0199
     24 C           5.8319   -2.7846   32.5907 C.3     1  UNL1        0.0856
     25 N           6.0575   -3.9669   31.6956 N.3     1  UNL1       -0.2971
     26 H           5.3495   -3.9853   30.9615 H       1  UNL1        0.1233
     27 C           4.5990   -2.5150   33.4013 C.3     1  UNL1        0.1484
     28 O           3.6503   -3.6329   33.7180 O.3     1  UNL1       -0.3786
     29 H           3.9799   -4.4572   33.3271 H       1  UNL1        0.2108
     30 C           4.3147   -1.1275   33.8953 C.ar    1  UNL1        0.0247
     31 C           4.7398   -0.7208   35.2751 C.ar    1  UNL1        0.0012
     32 C           4.4555    0.6667   35.7690 C.ar    1  UNL1        0.0204
     33 C           3.7462    1.6476   34.8832 C.ar    1  UNL1        0.0989
     34 N           3.3212    1.2409   33.5034 N.ar    1  UNL1       -0.2426
     35 C           3.6054   -0.1466   33.0095 C.ar    1  UNL1        0.0969
@<TRIPOS>BOND
     1    11    12    1
     2    12    13   ar
     3    13    14   ar
     4    14    15   ar
     5    15    16   ar
     6    15    17    1
     7    17    18    1
     8    18    19    1
     9    19     7    1
    10     7     8    2
    11     7     9   am
    12     9     1    1
    13     1     2   ar
    14     2     3   ar
    15     3     4   ar
    16     4    20    1
    17    21    20    1
    18    21    22    1
    19    22    23    1
    20    24    23    1
    21    24    27    1
    22    27    28    1
    23    27    30    1
    24    30    31   ar
    25    31    32   ar
    26    32    33   ar
    27    33    34   ar
    28    34    35   ar
    29    24    25    1
    30     4     5   ar
    31     5     6   ar
    32    16    12   ar
    33     6     1   ar
    34    19    14    1
    35    25    21    1
    36    35    30   ar
    37     9    10    1
    38    28    29    1
    39    25    26    1
@<TRIPOS>MOLECULE
*****
 35 39 0 0 0
SMALL
GASTEIGER

@<TRIPOS>ATOM
      1 C           0.5329    2.2002   18.8567 C.ar    1  UNL1        0.0503
      2 C           0.0688    3.1775   17.8178 C.ar    1  UNL1        0.0143
      3 C          -1.0101    4.1663   18.1471 C.ar    1  UNL1       -0.0029
      4 C          -1.6249    4.1777   19.5153 C.ar    1  UNL1       -0.0208
      5 C          -1.1608    3.2003   20.5542 C.ar    1  UNL1       -0.0029
      6 C          -0.0818    2.2116   20.2249 C.ar    1  UNL1        0.0143
      7 C           3.0485    1.6426   18.5237 C.2     1  UNL1        0.2313
      8 O           3.4063    3.0625   18.8492 O.2     1  UNL1       -0.2744
      9 N           1.6118    1.2115   18.5275 N.am    1  UNL1       -0.2836
     10 H           1.3770    0.2796   18.3138 H       1  UNL1        0.1549
     11 C           3.5848   -4.5505   19.4178 C.3     1  UNL1        0.0594
     12 C           4.0373   -3.1984   18.9520 C.ar    1  UNL1        0.0879
     13 N           3.2667   -1.9180   19.0806 N.ar    1  UNL1       -0.2469
     14 C           4.0930   -0.8176   18.4838 C.ar    1  UNL1        0.0695
     15 C           5.3744   -1.4179   17.9862 C.ar    1  UNL1        0.0224
     16 S           5.3400   -2.8893   18.2756 S.2     1  UNL1       -0.0755
     17 C           6.2008   -0.3174   17.3894 C.3     1  UNL1        0.0351
     18 C           5.4301    0.9629   17.5181 C.3     1  UNL1        0.0204
     19 C           4.1274    0.6539   18.1945 C.3     1  UNL1        0.1173
     20 C          -2.7038    5.1664   19.8445 C.3     1  UNL1        0.0420
     21 C          -4.0176    4.6894   20.3889 C.3     1  UNL1        0.0585
     22 C          -5.0728    3.9485   19.6223 C.3     1  UNL1        0.0175
     23 C          -6.2142    3.6707   20.5551 C.3     1  UNL1        0.0199
     24 C          -5.8644    4.2398   21.8981 C.3     1  UNL1        0.0856
     25 N          -4.5068    4.8694   21.7954 N.3     1  UNL1       -0.2971
     26 H          -3.8650    4.4162   22.4458 H       1  UNL1        0.1233
     27 C          -6.7217    4.1884   23.1279 C.3     1  UNL1        0.1484
     28 O          -8.1820    3.8660   23.0112 O.3     1  UNL1       -0.3786
     29 H          -8.4073    3.7192   22.0792 H       1  UNL1        0.2108
     30 C          -6.1187    4.4594   24.4743 C.ar    1  UNL1        0.0247
     31 C          -6.6053    5.6170   25.2948 C.ar    1  UNL1        0.0012
     32 C          -6.0023    5.8880   26.6412 C.ar    1  UNL1        0.0204
     33 C          -4.9128    5.0014   27.1673 C.ar    1  UNL1        0.0989
     34 N          -4.4262    3.8437   26.3469 N.ar    1  UNL1       -0.2426
     35 C          -5.0292    3.5728   25.0004 C.ar    1  UNL1        0.0969
@<TRIPOS>BOND
     1    11    12    1
     2    12    13   ar
     3    13    14   ar
     4    14    15   ar
     5    15    16   ar
     6    15    17    1
     7    17    18    1
     8    18    19    1
     9    19     7    1
    10     7     8    2
    11     7     9   am
    12     9     1    1
    13     1     2   ar
    14     2     3   ar
    15     3     4   ar
    16     4    20    1
    17    21    20    1
    18    21    22    1
    19    22    23    1
    20    24    23    1
    21    24    27    1
    22    27    28    1
    23    27    30    1
    24    30    31   ar
    25    31    32   ar
    26    32    33   ar
    27    33    34   ar
    28    34    35   ar
    29    24    25    1
    30     4     5   ar
    31     5     6   ar
    32    16    12   ar
    33     6     1   ar
    34    19    14    1
    35    25    21    1
    36    35    30   ar
    37     9    10    1
    38    28    29    1
    39    25    26    1
@<TRIPOS>MOLECULE
*****
 35 39 0 0 0
SMALL
GASTEIGER

@<TRIPOS>ATOM
      1 C           6.4480   -3.1837   25.6069 C.ar    1  UNL1        0.0503
      2 C           6.7660   -2.0563   26.5439 C.ar    1  UNL1        0.0143
      3 C           7.2830   -2.3491   27.9212 C.ar    1  UNL1       -0.0029
      4 C           7.4820   -3.7691   28.3616 C.ar    1  UNL1       -0.0208
      5 C           7.1641   -4.8964   27.4246 C.ar    1  UNL1       -0.0029
      6 C           6.6471   -4.6037   26.0472 C.ar    1  UNL1        0.0143
      7 C           4.6470   -2.1355   24.0552 C.2     1  UNL1        0.2313
      8 O           3.8800   -1.6725   25.2583 O.2     1  UNL1       -0.2744
      9 N           5.9310   -2.8910   24.2295 N.am    1  UNL1       -0.2836
     10 H           6.4344   -3.1949   23.4399 H       1  UNL1        0.1549
     11 C           4.7092   -5.3947   18.6873 C.3     1  UNL1        0.0594
     12 C           4.3935   -4.2169   19.5608 C.ar    1  UNL1        0.0879
     13 N           4.7306   -4.0831   21.0163 N.ar    1  UNL1       -0.2469
     14 C           4.2306   -2.7496   21.4873 C.ar    1  UNL1        0.0695
     15 C           3.5844   -2.0593   20.3229 C.ar    1  UNL1        0.0224
     16 S           3.6851   -2.9661   19.1323 S.2     1  UNL1       -0.0755
     17 C           3.0844   -0.7258   20.7939 C.3     1  UNL1        0.0351
     18 C           3.4216   -0.5921   22.2493 C.3     1  UNL1        0.0204
     19 C           4.1300   -1.8428   22.6779 C.3     1  UNL1        0.1173
     20 C           7.9990   -4.0617   29.7389 C.3     1  UNL1        0.0420
     21 C           7.4310   -3.3368   30.9229 C.3     1  UNL1        0.0585
     22 C           8.1666   -2.3659   31.7983 C.3     1  UNL1        0.0175
     23 C           7.2179   -1.8846   32.8559 C.3     1  UNL1        0.0199
     24 C           5.8960   -2.5581   32.6341 C.3     1  UNL1        0.0856
     25 N           6.0278   -3.4556   31.4395 N.3     1  UNL1       -0.2971
     26 H           5.3675   -3.1691   30.7168 H       1  UNL1        0.1233
     27 C           4.6596   -2.3675   33.4617 C.3     1  UNL1        0.1484
     28 O           3.7406   -3.5257   33.7148 O.3     1  UNL1       -0.3786
     29 H           4.0895   -4.3172   33.2759 H       1  UNL1        0.2108
     30 C           4.3422   -1.0187   34.0361 C.ar    1  UNL1        0.0247
     31 C           3.6351    0.0055   33.1988 C.ar    1  UNL1        0.0012
     32 C           3.3177    1.3543   33.7732 C.ar    1  UNL1        0.0204
     33 C           3.7072    1.6789   35.1849 C.ar    1  UNL1        0.0989
     34 N           4.4143    0.6547   36.0221 N.ar    1  UNL1       -0.2426
     35 C           4.7317   -0.6941   35.4477 C.ar    1  UNL1        0.0969
@<TRIPOS>BOND
     1    11    12    1
     2    12    13   ar
     3    13    14   ar
     4    14    15   ar
     5    15    16   ar
     6    15    17    1
     7    17    18    1
     8    18    19    1
     9    19     7    1
    10     7     8    2
    11     7     9   am
    12     9     1    1
    13     1     2   ar
    14     2     3   ar
    15     3     4   ar
    16     4    20    1
    17    21    20    1
    18    21    22    1
    19    22    23    1
    20    24    23    1
    21    24    27    1
    22    27    28    1
    23    27    30    1
    24    30    31   ar
    25    31    32   ar
    26    32    33   ar
    27    33    34   ar
    28    34    35   ar
    29    24    25    1
    30     4     5   ar
    31     5     6   ar
    32    16    12   ar
    33     6     1   ar
    34    19    14    1
    35    25    21    1
    36    35    30   ar
    37     9    10    1
    38    28    29    1
    39    25    26    1
@<TRIPOS>MOLECULE
*****
 35 39 0 0 0
SMALL
GASTEIGER

@<TRIPOS>ATOM
      1 C          -0.4059    2.5996   20.9032 C.ar    1  UNL1        0.0503
      2 C          -0.0790    1.1803   20.5446 C.ar    1  UNL1        0.0143
      3 C           1.2097    0.8609   19.8466 C.ar    1  UNL1       -0.0029
      4 C           2.1715    1.9608   19.5071 C.ar    1  UNL1       -0.0208
      5 C           1.8446    3.3801   19.8656 C.ar    1  UNL1       -0.0029
      6 C           0.5558    3.6995   20.5637 C.ar    1  UNL1        0.0143
      7 C          -2.8762    3.3993   20.8118 C.2     1  UNL1        0.2313
      8 O          -2.7691    3.5600   19.3243 O.2     1  UNL1       -0.2744
      9 N          -1.6946    2.9191   21.6013 N.am    1  UNL1       -0.2836
     10 H          -1.7649    2.8136   22.5776 H       1  UNL1        0.1549
     11 C          -4.3679    4.2345   26.8549 C.3     1  UNL1        0.0594
     12 C          -4.6446    4.1589   25.3826 C.ar    1  UNL1        0.0879
     13 N          -3.6384    3.8626   24.3104 N.ar    1  UNL1       -0.2469
     14 C          -4.3481    3.8869   22.9891 C.ar    1  UNL1        0.0695
     15 C          -5.7930    4.1982   23.2448 C.ar    1  UNL1        0.0224
     16 S          -5.9762    4.3663   24.7240 S.2     1  UNL1       -0.0755
     17 C          -6.5027    4.2226   21.9235 C.3     1  UNL1        0.0351
     18 C          -5.4964    3.9262   20.8514 C.3     1  UNL1        0.0204
     19 C          -4.1648    3.7188   21.5099 C.3     1  UNL1        0.1173
     20 C           3.4601    1.6413   18.8090 C.3     1  UNL1        0.0420
     21 C           3.7892    0.2214   18.4547 C.3     1  UNL1        0.0585
     22 C           3.8658   -0.3464   17.0685 C.3     1  UNL1        0.0175
     23 C           4.2235   -1.7988   17.1815 C.3     1  UNL1        0.0199
     24 C           4.3679   -2.1286   18.6377 C.3     1  UNL1        0.0856
     25 N           4.0995   -0.8801   19.4246 N.3     1  UNL1       -0.2971
     26 H           4.9221   -0.6346   19.9755 H       1  UNL1        0.1233
     27 C           4.7190   -3.4712   19.2069 C.3     1  UNL1        0.1484
     28 O           4.4156   -4.7179   18.4300 O.3     1  UNL1       -0.3786
     29 H           3.9962   -4.4803   17.5883 H       1  UNL1        0.2108
     30 C           5.3736   -3.5671   20.5532 C.ar    1  UNL1        0.0247
     31 C           4.5403   -3.5017   21.7987 C.ar    1  UNL1        0.0012
     32 C           5.1949   -3.5976   23.1449 C.ar    1  UNL1        0.0204
     33 C           6.6828   -3.7589   23.2457 C.ar    1  UNL1        0.0989
     34 N           7.5161   -3.8243   22.0001 N.ar    1  UNL1       -0.2426
     35 C           6.8615   -3.7284   20.6539 C.ar    1  UNL1        0.0969
@<TRIPOS>BOND
     1    11    12    1
     2    12    13   ar
     3    13    14   ar
     4    14    15   ar
     5    15    16   ar
     6    15    17    1
     7    17    18    1
     8    18    19    1
     9    19     7    1
    10     7     8    2
    11     7     9   am
    12     9     1    1
    13     1     2   ar
    14     2     3   ar
    15     3     4   ar
    16     4    20    1
    17    21    20    1
    18    21    22    1
    19    22    23    1
    20    24    23    1
    21    24    27    1
    22    27    28    1
    23    27    30    1
    24    30    31   ar
    25    31    32   ar
    26    32    33   ar
    27    33    34   ar
    28    34    35   ar
    29    24    25    1
    30     4     5   ar
    31     5     6   ar
    32    16    12   ar
    33     6     1   ar
    34    19    14    1
    35    25    21    1
    36    35    30   ar
    37     9    10    1
    38    28    29    1
    39    25    26    1
@<TRIPOS>MOLECULE
*****
 35 39 0 0 0
SMALL
GASTEIGER

@<TRIPOS>ATOM
      1 C           8.0856   -4.4965   26.4935 C.ar    1  UNL1        0.0503
      2 C           7.4454   -5.5848   25.6838 C.ar    1  UNL1        0.0143
      3 C           7.6966   -5.6677   24.2073 C.ar    1  UNL1       -0.0029
      4 C           8.5879   -4.6623   23.5404 C.ar    1  UNL1       -0.0208
      5 C           9.2281   -3.5739   24.3501 C.ar    1  UNL1       -0.0029
      6 C           8.9769   -3.4910   25.8267 C.ar    1  UNL1        0.0143
      7 C           6.7790   -3.4892   28.5005 C.2     1  UNL1        0.2313
      8 O           5.9745   -2.6479   27.5545 O.2     1  UNL1       -0.2744
      9 N           7.8345   -4.4135   27.9700 N.am    1  UNL1       -0.2836
     10 H           8.3626   -4.9657   28.5909 H       1  UNL1        0.1549
     11 C           3.4348    0.4688   32.0491 C.3     1  UNL1        0.0594
     12 C           4.3271   -0.7101   31.7962 C.ar    1  UNL1        0.0879
     13 N           4.8306   -1.1638   30.4581 N.ar    1  UNL1       -0.2469
     14 C           5.6873   -2.3765   30.6719 C.ar    1  UNL1        0.0695
     15 C           5.7132   -2.6723   32.1422 C.ar    1  UNL1        0.0224
     16 S           4.8725   -1.6424   32.8371 S.2     1  UNL1       -0.0755
     17 C           6.5698   -3.8849   32.3560 C.3     1  UNL1        0.0351
     18 C           7.0733   -4.3385   31.0179 C.3     1  UNL1        0.0204
     19 C           6.5279   -3.4063   29.9770 C.3     1  UNL1        0.1173
     20 C           8.8390   -4.7452   22.0639 C.3     1  UNL1        0.0420
     21 C           7.9497   -4.0051   21.1092 C.3     1  UNL1        0.0585
     22 C           8.2507   -2.6824   20.4692 C.3     1  UNL1        0.0175
     23 C           7.0904   -2.3176   19.5913 C.3     1  UNL1        0.0199
     24 C           6.0724   -3.4149   19.6887 C.3     1  UNL1        0.0856
     25 N           6.6035   -4.4579   20.6269 N.3     1  UNL1       -0.2971
     26 H           6.6923   -5.3492   20.1390 H       1  UNL1        0.1233
     27 C           4.7546   -3.4611   18.9736 C.3     1  UNL1        0.1484
     28 O           4.2787   -4.7446   18.3604 O.3     1  UNL1       -0.3786
     29 H           4.9363   -5.4406   18.5158 H       1  UNL1        0.2108
     30 C           3.9129   -2.2238   18.8717 C.ar    1  UNL1        0.0247
     31 C           2.9605   -1.8715   19.9758 C.ar    1  UNL1        0.0012
     32 C           2.1187   -0.6342   19.8739 C.ar    1  UNL1        0.0204
     33 C           2.2292    0.2509   18.6680 C.ar    1  UNL1        0.0989
     34 N           3.1816   -0.1013   17.5639 N.ar    1  UNL1       -0.2426
     35 C           4.0234   -1.3386   17.6658 C.ar    1  UNL1        0.0969
@<TRIPOS>BOND
     1    11    12    1
     2    12    13   ar
     3    13    14   ar
     4    14    15   ar
     5    15    16   ar
     6    15    17    1
     7    17    18    1
     8    18    19    1
     9    19     7    1
    10     7     8    2
    11     7     9   am
    12     9     1    1
    13     1     2   ar
    14     2     3   ar
    15     3     4   ar
    16     4    20    1
    17    21    20    1
    18    21    22    1
    19    22    23    1
    20    24    23    1
    21    24    27    1
    22    27    28    1
    23    27    30    1
    24    30    31   ar
    25    31    32   ar
    26    32    33   ar
    27    33    34   ar
    28    34    35   ar
    29    24    25    1
    30     4     5   ar
    31     5     6   ar
    32    16    12   ar
    33     6     1   ar
    34    19    14    1
    35    25    21    1
    36    35    30   ar
    37     9    10    1
    38    28    29    1
    39    25    26    1
@<TRIPOS>MOLECULE
*****
 35 39 0 0 0
SMALL
GASTEIGER

@<TRIPOS>ATOM
      1 C          -0.6341    2.6410   27.1766 C.ar    1  UNL1        0.0503
      2 C           0.2808    3.6140   27.8594 C.ar    1  UNL1        0.0143
      3 C           0.9272    3.2479   29.1626 C.ar    1  UNL1       -0.0029
      4 C           0.6587    1.9088   29.7829 C.ar    1  UNL1       -0.0208
      5 C          -0.2561    0.9358   29.1001 C.ar    1  UNL1       -0.0029
      6 C          -0.9025    1.3019   27.7969 C.ar    1  UNL1        0.0143
      7 C          -2.7089    3.4640   25.8471 C.2     1  UNL1        0.2313
      8 O          -3.4910    3.5549   27.1239 O.2     1  UNL1       -0.2744
      9 N          -1.2805    3.0070   25.8735 N.am    1  UNL1       -0.2836
     10 H          -0.7672    2.9473   25.0355 H       1  UNL1        0.1549
     11 C          -0.7590    3.1828   19.8838 C.3     1  UNL1        0.0594
     12 C          -1.7339    3.4799   20.9844 C.ar    1  UNL1        0.0879
     13 N          -1.5009    3.2650   22.4505 N.ar    1  UNL1       -0.2469
     14 C          -2.7360    3.6962   23.1844 C.ar    1  UNL1        0.0695
     15 C          -3.7325    4.1776   22.1717 C.ar    1  UNL1        0.0224
     16 S          -3.1131    4.0439   20.8121 S.2     1  UNL1       -0.0755
     17 C          -4.9676    4.6088   22.9056 C.3     1  UNL1        0.0351
     18 C          -4.7345    4.3940   24.3716 C.3     1  UNL1        0.0204
     19 C          -3.3554    3.8300   24.5440 C.3     1  UNL1        0.1173
     20 C           1.3052    1.5428   31.0861 C.3     1  UNL1        0.0420
     21 C           2.4386    0.5606   31.1113 C.3     1  UNL1        0.0585
     22 C           3.4656    0.3717   30.0345 C.3     1  UNL1        0.0175
     23 C           4.4057   -0.7108   30.4755 C.3     1  UNL1        0.0199
     24 C           3.9596   -1.1910   31.8247 C.3     1  UNL1        0.0856
     25 N           2.7439   -0.4053   32.2176 N.3     1  UNL1       -0.2971
     26 H           2.9258    0.1048   33.0820 H       1  UNL1        0.1233
     27 C           4.6144   -2.2679   32.6381 C.3     1  UNL1        0.1484
     28 O           3.7949   -3.0997   33.5796 O.3     1  UNL1       -0.3786
     29 H           2.8688   -2.8137   33.5413 H       1  UNL1        0.2108
     30 C           6.0887   -2.5129   32.5100 C.ar    1  UNL1        0.0247
     31 C           6.5865   -3.7460   31.8160 C.ar    1  UNL1        0.0012
     32 C           8.0608   -3.9911   31.6879 C.ar    1  UNL1        0.0204
     33 C           9.0373   -3.0031   32.2537 C.ar    1  UNL1        0.0989
     34 N           8.5395   -1.7699   32.9476 N.ar    1  UNL1       -0.2426
     35 C           7.0652   -1.5249   33.0758 C.ar    1  UNL1        0.0969
@<TRIPOS>BOND
     1    11    12    1
     2    12    13   ar
     3    13    14   ar
     4    14    15   ar
     5    15    16   ar
     6    15    17    1
     7    17    18    1
     8    18    19    1
     9    19     7    1
    10     7     8    2
    11     7     9   am
    12     9     1    1
    13     1     2   ar
    14     2     3   ar
    15     3     4   ar
    16     4    20    1
    17    21    20    1
    18    21    22    1
    19    22    23    1
    20    24    23    1
    21    24    27    1
    22    27    28    1
    23    27    30    1
    24    30    31   ar
    25    31    32   ar
    26    32    33   ar
    27    33    34   ar
    28    34    35   ar
    29    24    25    1
    30     4     5   ar
    31     5     6   ar
    32    16    12   ar
    33     6     1   ar
    34    19    14    1
    35    25    21    1
    36    35    30   ar
    37     9    10    1
    38    28    29    1
    39    25    26    1
@<TRIPOS>MOLECULE
*****
 35 39 0 0 0
SMALL
GASTEIGER

@<TRIPOS>ATOM
      1 C           6.0517   -2.3205   27.2580 C.ar    1  UNL1        0.0503
      2 C           6.1179   -1.6130   25.9370 C.ar    1  UNL1        0.0143
      3 C           6.5742   -2.3507   24.7132 C.ar    1  UNL1       -0.0029
      4 C           6.9643   -3.7958   24.8104 C.ar    1  UNL1       -0.0208
      5 C           6.8981   -4.5033   26.1314 C.ar    1  UNL1       -0.0029
      6 C           6.4418   -3.7656   27.3552 C.ar    1  UNL1        0.0143
      7 C           4.1491   -1.2191   28.6425 C.2     1  UNL1        0.2313
      8 O           3.1591   -1.5928   27.5794 O.2     1  UNL1       -0.2744
      9 N           5.5954   -1.5829   28.4818 N.am    1  UNL1       -0.2836
     10 H           6.2452   -1.3376   29.1796 H       1  UNL1        0.1549
     11 C           6.6984   -0.3743   34.3196 C.3     1  UNL1        0.0594
     12 C           5.6468   -0.2131   33.2622 C.ar    1  UNL1        0.0879
     13 N           5.6932   -0.7881   31.8776 N.ar    1  UNL1       -0.2469
     14 C           4.4391   -0.3790   31.1634 C.ar    1  UNL1        0.0695
     15 C           3.6177    0.4490   32.1067 C.ar    1  UNL1        0.0224
     16 S           4.3640    0.5515   33.4038 S.2     1  UNL1       -0.0755
     17 C           2.3637    0.8581   31.3925 C.3     1  UNL1        0.0351
     18 C           2.4101    0.2831   30.0080 C.3     1  UNL1        0.0204
     19 C           3.6928   -0.4815   29.8663 C.3     1  UNL1        0.1173
     20 C           7.4207   -4.5334   23.5865 C.3     1  UNL1        0.0420
     21 C           7.0505   -4.0270   22.2240 C.3     1  UNL1        0.0585
     22 C           7.9281   -3.2178   21.3158 C.3     1  UNL1        0.0175
     23 C           7.1577   -2.9315   20.0609 C.3     1  UNL1        0.0199
     24 C           5.8040   -3.5638   20.1937 C.3     1  UNL1        0.0856
     25 N           5.7377   -4.2408   21.5305 N.3     1  UNL1       -0.2971
     26 H           5.5711   -5.2393   21.4050 H       1  UNL1        0.1233
     27 C           4.7088   -3.5257   19.1694 C.3     1  UNL1        0.1484
     28 O           4.4206   -4.7379   18.3342 O.3     1  UNL1       -0.3786
     29 H           5.0280   -5.4527   18.5813 H       1  UNL1        0.2108
     30 C           3.9019   -2.2754   18.9803 C.ar    1  UNL1        0.0247
     31 C           2.9157   -1.8535   20.0289 C.ar    1  UNL1        0.0012
     32 C           2.1089   -0.6033   19.8398 C.ar    1  UNL1        0.0204
     33 C           2.2881    0.2251   18.6022 C.ar    1  UNL1        0.0989
     34 N           3.2743   -0.1968   17.5537 N.ar    1  UNL1       -0.2426
     35 C           4.0812   -1.4470   17.7428 C.ar    1  UNL1        0.0969
@<TRIPOS>BOND
     1    11    12    1
     2    12    13   ar
     3    13    14   ar
     4    14    15   ar
     5    15    16   ar
     6    15    17    1
     7    17    18    1
     8    18    19    1
     9    19     7    1
    10     7     8    2
    11     7     9   am
    12     9     1    1
    13     1     2   ar
    14     2     3   ar
    15     3     4   ar
    16     4    20    1
    17    21    20    1
    18    21    22    1
    19    22    23    1
    20    24    23    1
    21    24    27    1
    22    27    28    1
    23    27    30    1
    24    30    31   ar
    25    31    32   ar
    26    32    33   ar
    27    33    34   ar
    28    34    35   ar
    29    24    25    1
    30     4     5   ar
    31     5     6   ar
    32    16    12   ar
    33     6     1   ar
    34    19    14    1
    35    25    21    1
    36    35    30   ar
    37     9    10    1
    38    28    29    1
    39    25    26    1
