@<TRIPOS>MOLECULE
*****
 39 42 0 0 0
SMALL
GASTEIGER

@<TRIPOS>ATOM
      1 C           6.8510   -3.4168   30.1986 C.ar    1  UNL1        0.0611
      2 C           7.0114   -4.3419   31.3683 C.ar    1  UNL1        0.1037
      3 N           7.1743   -5.7356   30.8381 N.ar    1  UNL1       -0.2269
      4 C           7.1145   -5.6718   29.3406 C.ar    1  UNL1        0.1407
      5 N           7.2162   -6.7335   28.2859 N.ar    1  UNL1       -0.3374
      6 C           7.1181   -6.3621   26.8360 C.ar    1  UNL1        0.0735
      7 C           6.9183   -4.9289   26.4407 C.ar    1  UNL1        0.0186
      8 C           6.8166   -3.8672   27.4954 C.ar    1  UNL1        0.0047
      9 C           6.9147   -4.2387   28.9454 C.ar    1  UNL1        0.0386
     10 H           7.3474   -7.6741   28.5454 H       1  UNL1        0.1674
     11 C           6.8202   -4.5575   24.9907 C.ar    1  UNL1        0.0207
     12 C           5.9735   -3.3929   24.5704 C.ar    1  UNL1        0.0045
     13 C           5.8754   -3.0215   23.1204 C.ar    1  UNL1        0.0345
     14 C           6.6241   -3.8148   22.0907 C.ar    1  UNL1        0.1342
     15 N           7.4709   -4.9794   22.5111 N.ar    1  UNL1       -0.2290
     16 C           7.5689   -5.3508   23.9610 C.ar    1  UNL1        0.1003
     17 N           6.5260   -3.4434   20.6408 N.am    1  UNL1       -0.2693
     18 C           5.3423   -3.8846   19.8320 C.2     1  UNL1        0.2277
     19 C           5.2442   -3.5133   18.3820 C.3     1  UNL1        0.0950
     20 O           4.2566   -4.6971   20.4732 O.2     1  UNL1       -0.2747
     21 H           7.2386   -2.9102   20.2199 H       1  UNL1        0.1563
     22 C           6.6603   -1.9307   30.2695 C.2     1  UNL1        0.2015
     23 O           7.8441   -1.0164   30.1571 O.2     1  UNL1       -0.2864
     24 C           3.0158   -0.5911   29.4486 C.ar    1  UNL1        0.0920
     25 C           2.5367   -0.2150   30.8194 C.ar    1  UNL1        0.0204
     26 C           3.4320   -0.4108   32.0068 C.ar    1  UNL1        0.0312
     27 C           4.8066   -0.9826   31.8236 C.ar    1  UNL1        0.1454
     28 F           5.7019   -1.1784   33.0110 F       1  UNL1       -0.2040
     29 C           5.2857   -1.3587   30.4528 C.ar    1  UNL1        0.0951
     30 C           4.3903   -1.1630   29.2654 C.ar    1  UNL1        0.1598
     31 F           4.8696   -1.5391   27.8946 F       1  UNL1       -0.2026
     32 N           2.1205   -0.3954   28.2612 N.pl3   1  UNL1       -0.2166
     33 H           2.1785   -1.0100   27.4943 H       1  UNL1        0.1734
     34 S           1.1367    0.7368   28.2422 S.O2    1  UNL1        0.0540
     35 O           2.2396    1.6891   27.8861 O.2     1  UNL1       -0.1545
     36 O           0.0339   -0.2154   28.5984 O.2     1  UNL1       -0.1545
     37 C           0.1529    1.8690   28.2233 C.3     1  UNL1        0.1724
     38 C          -0.6017    1.8479   25.7372 C.3     1  UNL1        0.0019
     39 C          -0.9413    1.8947   27.1975 C.3     1  UNL1        0.0273
@<TRIPOS>BOND
     1    38    39    1
     2    39    37    1
     3    37    34    1
     4    34    35    2
     5    34    36    2
     6    34    32    1
     7    32    24    1
     8    24    25   ar
     9    25    26   ar
    10    26    27   ar
    11    27    28    1
    12    27    29   ar
    13    29    22    1
    14    22    23    2
    15    22     1    1
    16     1     2   ar
    17     2     3   ar
    18     3     4   ar
    19     4     5   ar
    20     5     6   ar
    21     6     7   ar
    22     7    11    1
    23    11    12   ar
    24    12    13   ar
    25    13    14   ar
    26    14    17    1
    27    17    18   am
    28    18    19    1
    29    18    20    2
    30    14    15   ar
    31    15    16   ar
    32     7     8   ar
    33     8     9   ar
    34    29    30   ar
    35    30    31    1
    36    30    24   ar
    37     9     1   ar
    38     9     4    1
    39    16    11   ar
    40    32    33    1
    41     5    10    1
    42    17    21    1
@<TRIPOS>MOLECULE
*****
 39 42 0 0 0
SMALL
GASTEIGER

@<TRIPOS>ATOM
      1 C           1.1474    0.9781   22.5823 C.ar    1  UNL1        0.0611
      2 C           0.3081    1.9676   23.3350 C.ar    1  UNL1        0.1037
      3 N           0.7131    1.9157   24.7784 N.ar    1  UNL1       -0.2269
      4 C           1.8026    0.8942   24.9178 C.ar    1  UNL1        0.1407
      5 N           2.5850    0.4169   26.1052 N.ar    1  UNL1       -0.3374
      6 C           3.6357   -0.6400   25.9354 C.ar    1  UNL1        0.0735
      7 C           3.9042   -1.2195   24.5781 C.ar    1  UNL1        0.0186
      8 C           3.1218   -0.7421   23.3907 C.ar    1  UNL1        0.0047
      9 C           2.0710    0.3147   23.5605 C.ar    1  UNL1        0.0386
     10 H           2.4088    0.7972   26.9960 H       1  UNL1        0.1674
     11 C           4.9550   -2.2764   24.4083 C.ar    1  UNL1        0.0207
     12 C           4.9477   -3.1526   23.1909 C.ar    1  UNL1        0.0045
     13 C           5.9985   -4.2095   23.0211 C.ar    1  UNL1        0.0345
     14 C           7.0567   -4.3901   24.0688 C.ar    1  UNL1        0.1342
     15 N           7.0639   -3.5139   25.2863 N.ar    1  UNL1       -0.2290
     16 C           6.0131   -2.4571   25.4561 C.ar    1  UNL1        0.1003
     17 N           8.1075   -5.4470   23.8991 N.am    1  UNL1       -0.2693
     18 C           8.1115   -6.6511   24.7936 C.2     1  UNL1        0.2277
     19 C           9.1623   -7.7080   24.6239 C.3     1  UNL1        0.0950
     20 O           7.0647   -6.7983   25.8578 O.2     1  UNL1       -0.2747
     21 H           8.7945   -5.3503   23.2006 H       1  UNL1        0.1563
     22 C           1.0756    0.7006   21.1100 C.2     1  UNL1        0.2015
     23 O          -0.2324    0.3226   20.4808 O.2     1  UNL1       -0.2864
     24 C           4.1735   -0.3388   18.8576 C.ar    1  UNL1        0.0920
     25 C           4.7850    1.0025   18.5801 C.ar    1  UNL1        0.0204
     26 C           4.1600    2.2432   19.1459 C.ar    1  UNL1        0.0312
     27 C           2.9236    2.1426   19.9892 C.ar    1  UNL1        0.1454
     28 F           2.2986    3.3833   20.5550 F       1  UNL1       -0.2040
     29 C           2.3121    0.8013   20.2666 C.ar    1  UNL1        0.0951
     30 C           2.9371   -0.4394   19.7008 C.ar    1  UNL1        0.1598
     31 F           2.3256   -1.7807   19.9783 F       1  UNL1       -0.2026
     32 N           4.7984   -1.5795   18.2917 N.pl3   1  UNL1       -0.2166
     33 H           4.2705   -2.1774   17.7147 H       1  UNL1        0.1734
     34 S           6.2278   -1.9092   18.6052 S.O2    1  UNL1        0.0540
     35 O           6.6106   -1.5958   17.1891 O.2     1  UNL1       -0.1545
     36 O           5.8450   -2.2225   20.0212 O.2     1  UNL1       -0.1545
     37 C           7.6571   -2.2388   18.9187 C.3     1  UNL1        0.1724
     38 C           8.8821   -3.8142   20.5824 C.3     1  UNL1        0.0019
     39 C           8.0555   -2.5900   20.3216 C.3     1  UNL1        0.0273
@<TRIPOS>BOND
     1    38    39    1
     2    39    37    1
     3    37    34    1
     4    34    35    2
     5    34    36    2
     6    34    32    1
     7    32    24    1
     8    24    25   ar
     9    25    26   ar
    10    26    27   ar
    11    27    28    1
    12    27    29   ar
    13    29    22    1
    14    22    23    2
    15    22     1    1
    16     1     2   ar
    17     2     3   ar
    18     3     4   ar
    19     4     5   ar
    20     5     6   ar
    21     6     7   ar
    22     7    11    1
    23    11    12   ar
    24    12    13   ar
    25    13    14   ar
    26    14    17    1
    27    17    18   am
    28    18    19    1
    29    18    20    2
    30    14    15   ar
    31    15    16   ar
    32     7     8   ar
    33     8     9   ar
    34    29    30   ar
    35    30    31    1
    36    30    24   ar
    37     9     1   ar
    38     9     4    1
    39    16    11   ar
    40    32    33    1
    41     5    10    1
    42    17    21    1
@<TRIPOS>MOLECULE
*****
 39 42 0 0 0
SMALL
GASTEIGER

@<TRIPOS>ATOM
      1 C           5.1989   -2.2782   19.0773 C.ar    1  UNL1        0.0611
      2 C           5.5130   -1.4611   17.8593 C.ar    1  UNL1        0.1037
      3 N           6.9990   -1.4848   17.6559 N.ar    1  UNL1       -0.2269
      4 C           7.6032   -2.3166   18.7481 C.ar    1  UNL1        0.1407
      5 N           9.0227   -2.6908   19.0563 N.ar    1  UNL1       -0.3374
      6 C           9.3296   -3.5554   20.2429 C.ar    1  UNL1        0.0735
      7 C           8.2170   -4.0458   21.1214 C.ar    1  UNL1        0.0186
      8 C           6.7976   -3.6716   20.8133 C.ar    1  UNL1        0.0047
      9 C           6.4906   -2.8070   19.6266 C.ar    1  UNL1        0.0386
     10 H           9.7528   -2.3690   18.4797 H       1  UNL1        0.1674
     11 C           8.5241   -4.9105   22.3081 C.ar    1  UNL1        0.0207
     12 C           8.7718   -6.3782   22.1227 C.ar    1  UNL1        0.0045
     13 C           9.0788   -7.2428   23.3094 C.ar    1  UNL1        0.0345
     14 C           9.1380   -6.6397   24.6815 C.ar    1  UNL1        0.1342
     15 N           8.8903   -5.1719   24.8669 N.ar    1  UNL1       -0.2290
     16 C           8.5833   -4.3073   23.6803 C.ar    1  UNL1        0.1003
     17 N           9.4450   -7.5043   25.8682 N.am    1  UNL1       -0.2693
     18 C           8.3482   -8.2817   26.5335 C.2     1  UNL1        0.2277
     19 C           8.6552   -9.1463   27.7202 C.3     1  UNL1        0.0950
     20 O           6.9445   -8.1945   26.0121 O.2     1  UNL1       -0.2747
     21 H          10.3664   -7.5615   26.2104 H       1  UNL1        0.1563
     22 C           3.8328   -2.5236   19.6461 C.2     1  UNL1        0.2015
     23 O           3.1257   -3.8169   19.3681 O.2     1  UNL1       -0.2864
     24 C           2.6469   -0.4776   22.8333 C.ar    1  UNL1        0.0920
     25 C           1.8555    0.6205   22.1869 C.ar    1  UNL1        0.0204
     26 C           1.7232    0.6706   20.6936 C.ar    1  UNL1        0.0312
     27 C           2.3822   -0.3774   19.8467 C.ar    1  UNL1        0.1454
     28 F           2.2499   -0.3273   18.3534 F       1  UNL1       -0.2040
     29 C           3.1736   -1.4755   20.4931 C.ar    1  UNL1        0.0951
     30 C           3.3059   -1.5256   21.9864 C.ar    1  UNL1        0.1598
     31 F           4.0974   -2.6238   22.6327 F       1  UNL1       -0.2026
     32 N           2.7792   -0.5277   24.3266 N.pl3   1  UNL1       -0.2166
     33 H           1.9806   -0.6574   24.8875 H       1  UNL1        0.1734
     34 S           4.1283   -0.3801   24.9654 S.O2    1  UNL1        0.0540
     35 O           4.0069   -1.7600   25.5408 O.2     1  UNL1       -0.1545
     36 O           4.2498    0.9998   24.3900 O.2     1  UNL1       -0.1545
     37 C           5.4775   -0.2324   25.6041 C.3     1  UNL1        0.1724
     38 C           7.0435   -0.9516   23.6597 C.3     1  UNL1        0.0019
     39 C           6.6378   -1.0392   25.1011 C.3     1  UNL1        0.0273
@<TRIPOS>BOND
     1    38    39    1
     2    39    37    1
     3    37    34    1
     4    34    35    2
     5    34    36    2
     6    34    32    1
     7    32    24    1
     8    24    25   ar
     9    25    26   ar
    10    26    27   ar
    11    27    28    1
    12    27    29   ar
    13    29    22    1
    14    22    23    2
    15    22     1    1
    16     1     2   ar
    17     2     3   ar
    18     3     4   ar
    19     4     5   ar
    20     5     6   ar
    21     6     7   ar
    22     7    11    1
    23    11    12   ar
    24    12    13   ar
    25    13    14   ar
    26    14    17    1
    27    17    18   am
    28    18    19    1
    29    18    20    2
    30    14    15   ar
    31    15    16   ar
    32     7     8   ar
    33     8     9   ar
    34    29    30   ar
    35    30    31    1
    36    30    24   ar
    37     9     1   ar
    38     9     4    1
    39    16    11   ar
    40    32    33    1
    41     5    10    1
    42    17    21    1
@<TRIPOS>MOLECULE
*****
 39 42 0 0 0
SMALL
GASTEIGER

@<TRIPOS>ATOM
      1 C           5.0560   -3.4296   22.5115 C.ar    1  UNL1        0.0611
      2 C           6.0887   -4.1288   23.3449 C.ar    1  UNL1        0.1037
      3 N           6.1693   -3.4269   24.6681 N.ar    1  UNL1       -0.2269
      4 C           5.1865   -2.2939   24.6525 C.ar    1  UNL1        0.1407
      5 N           4.8292   -1.2609   25.6797 N.ar    1  UNL1       -0.3374
      6 C           3.7838   -0.2296   25.3741 C.ar    1  UNL1        0.0735
      7 C           3.0957   -0.2312   24.0412 C.ar    1  UNL1        0.0186
      8 C           3.4530   -1.2642   23.0140 C.ar    1  UNL1        0.0047
      9 C           4.4984   -2.2955   23.3196 C.ar    1  UNL1        0.0386
     10 H           5.2808   -1.2598   26.5545 H       1  UNL1        0.1674
     11 C           2.0502    0.8002   23.7356 C.ar    1  UNL1        0.0207
     12 C           0.8557    0.9455   24.6310 C.ar    1  UNL1        0.0045
     13 C          -0.1898    1.9769   24.3254 C.ar    1  UNL1        0.0345
     14 C          -0.0405    2.8630   23.1243 C.ar    1  UNL1        0.1342
     15 N           1.1541    2.7176   22.2289 N.ar    1  UNL1       -0.2290
     16 C           2.1995    1.6863   22.5345 C.ar    1  UNL1        0.1003
     17 N          -1.0859    3.8943   22.8187 N.am    1  UNL1       -0.2693
     18 C          -2.0092    3.7035   21.6521 C.2     1  UNL1        0.2277
     19 C          -3.0546    4.7349   21.3464 C.3     1  UNL1        0.0950
     20 O          -1.8871    2.4813   20.7911 O.2     1  UNL1       -0.2747
     21 H          -1.1660    4.6965   23.3838 H       1  UNL1        0.1563
     22 C           4.6518   -3.7994   21.1152 C.2     1  UNL1        0.2015
     23 O           3.8844   -5.0640   20.8665 O.2     1  UNL1       -0.2864
     24 C           4.3259   -1.1647   18.1651 C.ar    1  UNL1        0.0920
     25 C           5.7416   -1.1151   17.6718 C.ar    1  UNL1        0.0204
     26 C           6.7940   -1.9602   18.3262 C.ar    1  UNL1        0.0312
     27 C           6.4308   -2.8550   19.4739 C.ar    1  UNL1        0.1454
     28 F           7.4832   -3.7001   20.1284 F       1  UNL1       -0.2040
     29 C           5.0151   -2.9046   19.9673 C.ar    1  UNL1        0.0951
     30 C           3.9627   -2.0595   19.3129 C.ar    1  UNL1        0.1598
     31 F           2.5471   -2.1092   19.8064 F       1  UNL1       -0.2026
     32 N           3.2735   -0.3196   17.5107 N.pl3   1  UNL1       -0.2166
     33 H           2.9113   -0.5772   16.6323 H       1  UNL1        0.1734
     34 S           2.7730    0.9179   18.1948 S.O2    1  UNL1        0.0540
     35 O           4.1447    1.5191   18.1107 O.2     1  UNL1       -0.1545
     36 O           1.4014    0.3167   18.2789 O.2     1  UNL1       -0.1545
     37 C           2.2724    2.1554   18.8788 C.3     1  UNL1        0.1724
     38 C           0.5850    4.1303   18.8261 C.3     1  UNL1        0.0019
     39 C           0.9085    2.6905   18.5573 C.3     1  UNL1        0.0273
@<TRIPOS>BOND
     1    38    39    1
     2    39    37    1
     3    37    34    1
     4    34    35    2
     5    34    36    2
     6    34    32    1
     7    32    24    1
     8    24    25   ar
     9    25    26   ar
    10    26    27   ar
    11    27    28    1
    12    27    29   ar
    13    29    22    1
    14    22    23    2
    15    22     1    1
    16     1     2   ar
    17     2     3   ar
    18     3     4   ar
    19     4     5   ar
    20     5     6   ar
    21     6     7   ar
    22     7    11    1
    23    11    12   ar
    24    12    13   ar
    25    13    14   ar
    26    14    17    1
    27    17    18   am
    28    18    19    1
    29    18    20    2
    30    14    15   ar
    31    15    16   ar
    32     7     8   ar
    33     8     9   ar
    34    29    30   ar
    35    30    31    1
    36    30    24   ar
    37     9     1   ar
    38     9     4    1
    39    16    11   ar
    40    32    33    1
    41     5    10    1
    42    17    21    1
@<TRIPOS>MOLECULE
*****
 39 42 0 0 0
SMALL
GASTEIGER

@<TRIPOS>ATOM
      1 C           5.2187   -2.2974   19.0741 C.ar    1  UNL1        0.0611
      2 C           5.5380   -1.5040   17.8418 C.ar    1  UNL1        0.1037
      3 N           7.0214   -1.5589   17.6267 N.ar    1  UNL1       -0.2269
      4 C           7.6190   -2.3863   18.7259 C.ar    1  UNL1        0.1407
      5 N           9.0336   -2.7831   19.0279 N.ar    1  UNL1       -0.3374
      6 C           9.3341   -3.6362   20.2244 C.ar    1  UNL1        0.0735
      7 C           8.2200   -4.0926   21.1190 C.ar    1  UNL1        0.0186
      8 C           6.8053   -3.6959   20.8171 C.ar    1  UNL1        0.0047
      9 C           6.5048   -2.8427   19.6205 C.ar    1  UNL1        0.0386
     10 H           9.7649   -2.4835   18.4407 H       1  UNL1        0.1674
     11 C           8.5205   -4.9459   22.3156 C.ar    1  UNL1        0.0207
     12 C           8.7837   -6.4125   22.1439 C.ar    1  UNL1        0.0045
     13 C           9.0843   -7.2658   23.3405 C.ar    1  UNL1        0.0345
     14 C           9.1217   -6.6522   24.7088 C.ar    1  UNL1        0.1342
     15 N           8.8584   -5.1854   24.8804 N.ar    1  UNL1       -0.2290
     16 C           8.5579   -4.3323   23.6839 C.ar    1  UNL1        0.1003
     17 N           9.4222   -7.5053   25.9053 N.am    1  UNL1       -0.2693
     18 C           8.3194   -8.2658   26.5802 C.2     1  UNL1        0.2277
     19 C           8.6199   -9.1190   27.7769 C.3     1  UNL1        0.0950
     20 O           6.9161   -8.1731   26.0586 O.2     1  UNL1       -0.2747
     21 H          10.3432   -7.5662   26.2477 H       1  UNL1        0.1563
     22 C           3.8530   -2.5085   19.6576 C.2     1  UNL1        0.2015
     23 O           3.0994   -3.7718   19.3648 O.2     1  UNL1       -0.2864
     24 C           1.9140    0.7623   20.7945 C.ar    1  UNL1        0.0920
     25 C           2.0170    0.6486   22.2867 C.ar    1  UNL1        0.0204
     26 C           2.7319   -0.5175   22.9024 C.ar    1  UNL1        0.0312
     27 C           3.3439   -1.5698   22.0262 C.ar    1  UNL1        0.1454
     28 F           4.0589   -2.7359   22.6419 F       1  UNL1       -0.2040
     29 C           3.2410   -1.4561   20.5340 C.ar    1  UNL1        0.0951
     30 C           2.5260   -0.2900   19.9183 C.ar    1  UNL1        0.1598
     31 F           2.4231   -0.1764   18.4261 F       1  UNL1       -0.2026
     32 N           1.1991    1.9284   20.1788 N.pl3   1  UNL1       -0.2166
     33 H           1.5117    2.3013   19.3229 H       1  UNL1        0.1734
     34 S           0.0079    2.5262   20.8670 S.O2    1  UNL1        0.0540
     35 O          -0.8253    1.3529   20.4441 O.2     1  UNL1       -0.1545
     36 O           0.8412    3.6996   21.2900 O.2     1  UNL1       -0.1545
     37 C          -1.1832    3.1241   21.5552 C.3     1  UNL1        0.1724
     38 C          -3.7791    3.2116   21.4941 C.3     1  UNL1        0.0019
     39 C          -2.4582    3.3406   20.7952 C.3     1  UNL1        0.0273
@<TRIPOS>BOND
     1    38    39    1
     2    39    37    1
     3    37    34    1
     4    34    35    2
     5    34    36    2
     6    34    32    1
     7    32    24    1
     8    24    25   ar
     9    25    26   ar
    10    26    27   ar
    11    27    28    1
    12    27    29   ar
    13    29    22    1
    14    22    23    2
    15    22     1    1
    16     1     2   ar
    17     2     3   ar
    18     3     4   ar
    19     4     5   ar
    20     5     6   ar
    21     6     7   ar
    22     7    11    1
    23    11    12   ar
    24    12    13   ar
    25    13    14   ar
    26    14    17    1
    27    17    18   am
    28    18    19    1
    29    18    20    2
    30    14    15   ar
    31    15    16   ar
    32     7     8   ar
    33     8     9   ar
    34    29    30   ar
    35    30    31    1
    36    30    24   ar
    37     9     1   ar
    38     9     4    1
    39    16    11   ar
    40    32    33    1
    41     5    10    1
    42    17    21    1
@<TRIPOS>MOLECULE
*****
 39 42 0 0 0
SMALL
GASTEIGER

@<TRIPOS>ATOM
      1 C           5.8259   -2.6296   19.2515 C.ar    1  UNL1        0.0611
      2 C           6.6880   -2.2566   18.0821 C.ar    1  UNL1        0.1037
      3 N           8.1210   -2.4415   18.4851 N.ar    1  UNL1       -0.2269
      4 C           8.1445   -2.9288   19.9035 C.ar    1  UNL1        0.1407
      5 N           9.2742   -3.2817   20.8250 N.ar    1  UNL1       -0.3374
      6 C           8.9855   -3.7509   22.2201 C.ar    1  UNL1        0.0735
      7 C           7.5670   -3.8671   22.6938 C.ar    1  UNL1        0.0186
      8 C           6.4373   -3.5143   21.7724 C.ar    1  UNL1        0.0047
      9 C           6.7260   -3.0451   20.3772 C.ar    1  UNL1        0.0386
     10 H          10.2052   -3.2054   20.5141 H       1  UNL1        0.1674
     11 C           7.2783   -4.3363   24.0890 C.ar    1  UNL1        0.0207
     12 C           7.6670   -5.7227   24.5096 C.ar    1  UNL1        0.0045
     13 C           7.3782   -6.1919   25.9048 C.ar    1  UNL1        0.0345
     14 C           6.7009   -5.2747   26.8794 C.ar    1  UNL1        0.1342
     15 N           6.3122   -3.8882   26.4588 N.ar    1  UNL1       -0.2290
     16 C           6.6009   -3.4191   25.0636 C.ar    1  UNL1        0.1003
     17 N           6.4122   -5.7438   28.2746 N.am    1  UNL1       -0.2693
     18 C           7.2895   -5.3059   29.4097 C.2     1  UNL1        0.2277
     19 C           7.0008   -5.7750   30.8049 C.3     1  UNL1        0.0950
     20 O           8.4556   -4.3989   29.1496 O.2     1  UNL1       -0.2747
     21 H           5.6468   -6.3391   28.4453 H       1  UNL1        0.1563
     22 C           4.3268   -2.5936   19.2887 C.2     1  UNL1        0.2015
     23 O           3.5458   -3.8741   19.3018 O.2     1  UNL1       -0.2864
     24 C           2.3560    0.5790   20.6308 C.ar    1  UNL1        0.0920
     25 C           2.1723    1.3565   19.3613 C.ar    1  UNL1        0.0204
     26 C           2.7067    0.8173   18.0676 C.ar    1  UNL1        0.0312
     27 C           3.4249   -0.4993   18.0433 C.ar    1  UNL1        0.1454
     28 F           3.9593   -1.0385   16.7497 F       1  UNL1       -0.2040
     29 C           3.6086   -1.2768   19.3129 C.ar    1  UNL1        0.0951
     30 C           3.0742   -0.7376   20.6066 C.ar    1  UNL1        0.1598
     31 F           3.2579   -1.5152   21.8761 F       1  UNL1       -0.2026
     32 N           1.8216    1.1182   21.9245 N.pl3   1  UNL1       -0.2166
     33 H           2.2738    0.9026   22.7720 H       1  UNL1        0.1734
     34 S           0.5981    1.9860   21.9270 S.O2    1  UNL1        0.0540
     35 O          -0.2176    0.8374   21.4119 O.2     1  UNL1       -0.1545
     36 O           1.4138    3.1346   22.4421 O.2     1  UNL1       -0.1545
     37 C          -0.6253    2.8538   21.9295 C.3     1  UNL1        0.1724
     38 C          -2.7988    3.2604   20.5653 C.3     1  UNL1        0.0019
     39 C          -1.3017    3.2004   20.6362 C.3     1  UNL1        0.0273
@<TRIPOS>BOND
     1    38    39    1
     2    39    37    1
     3    37    34    1
     4    34    35    2
     5    34    36    2
     6    34    32    1
     7    32    24    1
     8    24    25   ar
     9    25    26   ar
    10    26    27   ar
    11    27    28    1
    12    27    29   ar
    13    29    22    1
    14    22    23    2
    15    22     1    1
    16     1     2   ar
    17     2     3   ar
    18     3     4   ar
    19     4     5   ar
    20     5     6   ar
    21     6     7   ar
    22     7    11    1
    23    11    12   ar
    24    12    13   ar
    25    13    14   ar
    26    14    17    1
    27    17    18   am
    28    18    19    1
    29    18    20    2
    30    14    15   ar
    31    15    16   ar
    32     7     8   ar
    33     8     9   ar
    34    29    30   ar
    35    30    31    1
    36    30    24   ar
    37     9     1   ar
    38     9     4    1
    39    16    11   ar
    40    32    33    1
    41     5    10    1
    42    17    21    1
@<TRIPOS>MOLECULE
*****
 39 42 0 0 0
SMALL
GASTEIGER

@<TRIPOS>ATOM
      1 C           4.9454   -3.3929   20.5727 C.ar    1  UNL1        0.0611
      2 C           6.1190   -4.2805   20.2817 C.ar    1  UNL1        0.1037
      3 N           6.9356   -4.3947   21.5347 N.ar    1  UNL1       -0.2269
      4 C           6.2668   -3.5776   22.6001 C.ar    1  UNL1        0.1407
      5 N           6.6189   -3.3175   24.0348 N.ar    1  UNL1       -0.3374
      6 C           5.7409   -2.4381   24.8749 C.ar    1  UNL1        0.0735
      7 C           4.5108   -1.8189   24.2803 C.ar    1  UNL1        0.0186
      8 C           4.1587   -2.0791   22.8456 C.ar    1  UNL1        0.0047
      9 C           5.0367   -2.9585   22.0056 C.ar    1  UNL1        0.0386
     10 H           7.4263   -3.7238   24.4250 H       1  UNL1        0.1674
     11 C           3.6328   -0.9395   25.1205 C.ar    1  UNL1        0.0207
     12 C           2.6923    0.0274   24.4645 C.ar    1  UNL1        0.0045
     13 C           1.8143    0.9069   25.3047 C.ar    1  UNL1        0.0345
     14 C           1.8769    0.8193   26.8008 C.ar    1  UNL1        0.1342
     15 N           2.8175   -0.1477   27.4568 N.ar    1  UNL1       -0.2290
     16 C           3.6955   -1.0271   26.6166 C.ar    1  UNL1        0.1003
     17 N           0.9990    1.6986   27.6410 N.am    1  UNL1       -0.2693
     18 C           1.4431    3.0883   27.9895 C.2     1  UNL1        0.2277
     19 C           0.5651    3.9677   28.8297 C.3     1  UNL1        0.0950
     20 O           2.7651    3.5987   27.4977 O.2     1  UNL1       -0.2747
     21 H           0.1313    1.3636   27.9638 H       1  UNL1        0.1563
     22 C           3.8693   -3.0073   19.6015 C.2     1  UNL1        0.2015
     23 O           2.9098   -4.0430   19.0950 O.2     1  UNL1       -0.2864
     24 C           2.4093    0.6337   19.0000 C.ar    1  UNL1        0.0920
     25 C           3.5195    1.2569   18.2069 C.ar    1  UNL1        0.0204
     26 C           4.7463    0.4586   17.8786 C.ar    1  UNL1        0.0312
     27 C           4.8630   -0.9627   18.3434 C.ar    1  UNL1        0.1454
     28 F           6.0898   -1.7610   18.0152 F       1  UNL1       -0.2040
     29 C           3.7527   -1.5859   19.1366 C.ar    1  UNL1        0.0951
     30 C           2.5259   -0.7876   19.4648 C.ar    1  UNL1        0.1598
     31 F           1.4157   -1.4109   20.2580 F       1  UNL1       -0.2026
     32 N           1.1825    1.4319   19.3283 N.pl3   1  UNL1       -0.2166
     33 H           0.5954    1.7519   18.6056 H       1  UNL1        0.1734
     34 S           0.8501    1.7427   20.7576 S.O2    1  UNL1        0.0540
     35 O          -0.4450    0.9989   20.6182 O.2     1  UNL1       -0.1545
     36 O           2.1452    2.4865   20.8970 O.2     1  UNL1       -0.1545
     37 C           0.5179    2.0535   22.1869 C.3     1  UNL1        0.1724
     38 C          -0.9912    3.2458   23.9337 C.3     1  UNL1        0.0019
     39 C          -0.5847    3.0186   22.5078 C.3     1  UNL1        0.0273
@<TRIPOS>BOND
     1    38    39    1
     2    39    37    1
     3    37    34    1
     4    34    35    2
     5    34    36    2
     6    34    32    1
     7    32    24    1
     8    24    25   ar
     9    25    26   ar
    10    26    27   ar
    11    27    28    1
    12    27    29   ar
    13    29    22    1
    14    22    23    2
    15    22     1    1
    16     1     2   ar
    17     2     3   ar
    18     3     4   ar
    19     4     5   ar
    20     5     6   ar
    21     6     7   ar
    22     7    11    1
    23    11    12   ar
    24    12    13   ar
    25    13    14   ar
    26    14    17    1
    27    17    18   am
    28    18    19    1
    29    18    20    2
    30    14    15   ar
    31    15    16   ar
    32     7     8   ar
    33     8     9   ar
    34    29    30   ar
    35    30    31    1
    36    30    24   ar
    37     9     1   ar
    38     9     4    1
    39    16    11   ar
    40    32    33    1
    41     5    10    1
    42    17    21    1
@<TRIPOS>MOLECULE
*****
 39 42 0 0 0
SMALL
GASTEIGER

@<TRIPOS>ATOM
      1 C         -13.3256    0.0741   17.4518 C.ar    1  UNL1        0.0611
      2 C         -12.1975    1.0454   17.2677 C.ar    1  UNL1        0.1037
      3 N         -10.9091    0.2844   17.3720 N.ar    1  UNL1       -0.2269
      4 C         -11.2409   -1.1572   17.6207 C.ar    1  UNL1        0.1407
      5 N         -10.3761   -2.3682   17.8086 N.ar    1  UNL1       -0.3374
      6 C         -11.0048   -3.7093   18.0457 C.ar    1  UNL1        0.0735
      7 C         -12.4984   -3.8392   18.0950 C.ar    1  UNL1        0.0186
      8 C         -13.3632   -2.6282   17.9071 C.ar    1  UNL1        0.0047
      9 C         -12.7345   -1.2871   17.6700 C.ar    1  UNL1        0.0386
     10 H          -9.3958   -2.2829   17.7762 H       1  UNL1        0.1674
     11 C         -13.1271   -5.1804   18.3322 C.ar    1  UNL1        0.0207
     12 C         -14.3967   -5.2840   19.1243 C.ar    1  UNL1        0.0045
     13 C         -15.0254   -6.6251   19.3615 C.ar    1  UNL1        0.0345
     14 C         -14.3844   -7.8626   18.8066 C.ar    1  UNL1        0.1342
     15 N         -13.1148   -7.7589   18.0145 N.ar    1  UNL1       -0.2290
     16 C         -12.4861   -6.4178   17.7774 C.ar    1  UNL1        0.1003
     17 N         -15.0131   -9.2036   19.0437 N.am    1  UNL1       -0.2693
     18 C         -16.2726   -9.5798   18.3213 C.2     1  UNL1        0.2277
     19 C         -16.9013  -10.9209   18.5584 C.3     1  UNL1        0.0950
     20 O         -16.9035   -8.6148   17.3617 O.2     1  UNL1       -0.2747
     21 H         -14.5990   -9.8369   19.6736 H       1  UNL1        0.1563
     22 C         -14.7882    0.4058   17.4228 C.2     1  UNL1        0.2015
     23 O         -15.5817    0.1893   16.1685 O.2     1  UNL1       -0.2864
     24 C         -16.0004    2.9590   20.2090 C.ar    1  UNL1        0.0920
     25 C         -16.7955    2.0505   21.0992 C.ar    1  UNL1        0.0204
     26 C         -16.9215    0.5939   20.7641 C.ar    1  UNL1        0.0312
     27 C         -16.2525    0.0456   19.5386 C.ar    1  UNL1        0.1454
     28 F         -16.3785   -1.4110   19.2035 F       1  UNL1       -0.2040
     29 C         -15.4573    0.9541   18.6484 C.ar    1  UNL1        0.0951
     30 C         -15.3313    2.4107   18.9836 C.ar    1  UNL1        0.1598
     31 F         -14.5362    3.3190   18.0932 F       1  UNL1       -0.2026
     32 N         -15.8744    4.4156   20.5442 N.pl3   1  UNL1       -0.2166
     33 H         -16.0300    5.0958   19.8497 H       1  UNL1        0.1734
     34 S         -15.5112    4.8358   21.9375 S.O2    1  UNL1        0.0540
     35 O         -14.0896    4.4258   21.6906 O.2     1  UNL1       -0.1545
     36 O         -16.9327    5.2458   22.1844 O.2     1  UNL1       -0.1545
     37 C         -15.1481    5.2561   23.3309 C.3     1  UNL1        0.1724
     38 C         -13.4718    5.2515   25.3159 C.3     1  UNL1        0.0019
     39 C         -13.8093    4.8899   23.8999 C.3     1  UNL1        0.0273
@<TRIPOS>BOND
     1    38    39    1
     2    39    37    1
     3    37    34    1
     4    34    35    2
     5    34    36    2
     6    34    32    1
     7    32    24    1
     8    24    25   ar
     9    25    26   ar
    10    26    27   ar
    11    27    28    1
    12    27    29   ar
    13    29    22    1
    14    22    23    2
    15    22     1    1
    16     1     2   ar
    17     2     3   ar
    18     3     4   ar
    19     4     5   ar
    20     5     6   ar
    21     6     7   ar
    22     7    11    1
    23    11    12   ar
    24    12    13   ar
    25    13    14   ar
    26    14    17    1
    27    17    18   am
    28    18    19    1
    29    18    20    2
    30    14    15   ar
    31    15    16   ar
    32     7     8   ar
    33     8     9   ar
    34    29    30   ar
    35    30    31    1
    36    30    24   ar
    37     9     1   ar
    38     9     4    1
    39    16    11   ar
    40    32    33    1
    41     5    10    1
    42    17    21    1
@<TRIPOS>MOLECULE
*****
 39 42 0 0 0
SMALL
GASTEIGER

@<TRIPOS>ATOM
      1 C           6.0272   -2.9175   20.5046 C.ar    1  UNL1        0.0611
      2 C           7.4160   -3.3371   20.1239 C.ar    1  UNL1        0.1037
      3 N           7.8933   -2.4245   19.0333 N.ar    1  UNL1       -0.2269
      4 C           6.7994   -1.4409   18.7400 C.ar    1  UNL1        0.1407
      5 N           6.7046   -0.3072   17.7624 N.ar    1  UNL1       -0.3374
      6 C           5.4564    0.5218   17.6942 C.ar    1  UNL1        0.0735
      7 C           4.3030    0.2171   18.6036 C.ar    1  UNL1        0.0186
      8 C           4.3979   -0.9166   19.5811 C.ar    1  UNL1        0.0047
      9 C           5.6461   -1.7456   19.6494 C.ar    1  UNL1        0.0386
     10 H           7.4616   -0.1073   17.1656 H       1  UNL1        0.1674
     11 C           3.0548    1.0462   18.5353 C.ar    1  UNL1        0.0207
     12 C           3.1446    2.5426   18.5869 C.ar    1  UNL1        0.0045
     13 C           1.8964    3.3717   18.5187 C.ar    1  UNL1        0.0345
     14 C           0.5584    2.7043   18.3988 C.ar    1  UNL1        0.1342
     15 N           0.4686    1.2078   18.3471 N.ar    1  UNL1       -0.2290
     16 C           1.7168    0.3788   18.4154 C.ar    1  UNL1        0.1003
     17 N          -0.6898    3.5333   18.3305 N.am    1  UNL1       -0.2693
     18 C          -1.6993    3.4615   19.4377 C.2     1  UNL1        0.2277
     19 C          -2.9476    4.2905   19.3694 C.3     1  UNL1        0.0950
     20 O          -1.4605    2.5607   20.6131 O.2     1  UNL1       -0.2747
     21 H          -0.8465    4.1245   17.5591 H       1  UNL1        0.1563
     22 C           5.1698   -3.5574   21.5561 C.2     1  UNL1        0.2015
     23 O           4.2824   -4.7128   21.1993 O.2     1  UNL1       -0.2864
     24 C           4.1923   -1.5472   24.8354 C.ar    1  UNL1        0.0920
     25 C           5.2603   -2.0108   25.7810 C.ar    1  UNL1        0.0204
     26 C           6.2982   -2.9900   25.3184 C.ar    1  UNL1        0.0312
     27 C           6.2681   -3.5055   23.9101 C.ar    1  UNL1        0.1454
     28 F           7.3060   -4.4847   23.4475 F       1  UNL1       -0.2040
     29 C           5.2000   -3.0419   22.9644 C.ar    1  UNL1        0.0951
     30 C           4.1621   -2.0627   23.4271 C.ar    1  UNL1        0.1598
     31 F           3.0941   -1.5991   22.4814 F       1  UNL1       -0.2026
     32 N           3.1544   -0.5680   25.2980 N.pl3   1  UNL1       -0.2166
     33 H           2.5429   -0.8085   26.0311 H       1  UNL1        0.1734
     34 S           3.0482    0.7775   24.6437 S.O2    1  UNL1        0.0540
     35 O           4.4607    1.0841   25.0448 O.2     1  UNL1       -0.1545
     36 O           1.6358    0.4710   24.2425 O.2     1  UNL1       -0.1545
     37 C           2.9420    2.1230   23.9893 C.3     1  UNL1        0.1724
     38 C           4.0822    3.3452   22.0002 C.3     1  UNL1        0.0019
     39 C           3.1824    2.2612   22.5151 C.3     1  UNL1        0.0273
@<TRIPOS>BOND
     1    38    39    1
     2    39    37    1
     3    37    34    1
     4    34    35    2
     5    34    36    2
     6    34    32    1
     7    32    24    1
     8    24    25   ar
     9    25    26   ar
    10    26    27   ar
    11    27    28    1
    12    27    29   ar
    13    29    22    1
    14    22    23    2
    15    22     1    1
    16     1     2   ar
    17     2     3   ar
    18     3     4   ar
    19     4     5   ar
    20     5     6   ar
    21     6     7   ar
    22     7    11    1
    23    11    12   ar
    24    12    13   ar
    25    13    14   ar
    26    14    17    1
    27    17    18   am
    28    18    19    1
    29    18    20    2
    30    14    15   ar
    31    15    16   ar
    32     7     8   ar
    33     8     9   ar
    34    29    30   ar
    35    30    31    1
    36    30    24   ar
    37     9     1   ar
    38     9     4    1
    39    16    11   ar
    40    32    33    1
    41     5    10    1
    42    17    21    1
