@<TRIPOS>MOLECULE
*****
 49 53 0 0 0
SMALL
GASTEIGER

@<TRIPOS>ATOM
      1 C           4.7613   -1.7159   27.7366 C.3     1  UNL1        0.1269
      2 O           3.4568   -2.0003   27.0529 O.3     1  UNL1       -0.3830
      3 H           3.5415   -2.8038   26.5162 H       1  UNL1        0.2104
      4 C           4.8940   -0.5195   28.6315 C.3     1  UNL1        0.1021
      5 C           3.5270   -0.1661   30.8124 C.3     1  UNL1        0.1510
      6 C           3.3876   -0.3215   32.2978 C.3     1  UNL1        0.0980
      7 N           4.4760   -0.9858   33.0877 N.3     1  UNL1       -0.2661
      8 C           5.7037   -1.4947   32.3922 C.3     1  UNL1        0.0899
      9 C           5.8431   -1.3393   30.9068 C.3     1  UNL1        0.0901
     10 N           4.7547   -0.6750   30.1170 N.3     1  UNL1       -0.2621
     11 N           1.7014   -0.2712   28.9667 N.am    1  UNL1       -0.3063
     12 C           2.4385    0.4983   30.0224 C.2     1  UNL1        0.2383
     13 O           2.0872    1.9322   30.2881 O.2     1  UNL1       -0.2736
     14 H           1.9319   -1.2123   28.7924 H       1  UNL1        0.1493
     15 C           1.6428    1.0151   27.2810 C.3     1  UNL1        0.0196
     16 C           0.6130    0.3930   28.1767 C.3     1  UNL1        0.0569
     17 C          -0.4169   -0.2291   29.0726 C.3     1  UNL1        0.0196
     18 C          -0.4755    1.0573   27.3868 C.3     1  UNL1        0.0196
     19 C           4.3366   -1.1413   34.5731 C.3     1  UNL1        0.1008
     20 C           4.9284   -0.1150   35.4934 C.ar    1  UNL1        0.0130
     21 C           6.2669   -0.3575   36.1255 C.ar    1  UNL1        0.0002
     22 C           6.8587    0.6686   37.0458 C.ar    1  UNL1        0.0204
     23 C           6.1119    1.9372   37.3339 C.ar    1  UNL1        0.0989
     24 N           4.7733    2.1796   36.7018 N.ar    1  UNL1       -0.2426
     25 C           4.1816    1.1535   35.7815 C.ar    1  UNL1        0.0959
     26 C           5.9332   -2.6281   27.5252 C.3     1  UNL1        0.0401
     27 C           6.5853   -2.7113   26.1769 C.3     1  UNL1        0.0833
     28 C           5.9122   -2.1081   24.9798 C.2     1  UNL1        0.2226
     29 O           6.2790   -0.7247   24.5307 O.2     1  UNL1       -0.2751
     30 N           4.8721   -2.8884   24.2316 N.am    1  UNL1       -0.3001
     31 H           4.6314   -3.7964   24.5263 H       1  UNL1        0.1498
     32 C           4.1990   -2.2853   23.0345 C.3     1  UNL1        0.1211
     33 C           4.4268   -2.6768   21.6045 C.ar    1  UNL1       -0.0060
     34 C           5.3204   -3.7042   20.9753 C.ar    1  UNL1       -0.0029
     35 C           5.3357   -3.8730   19.4849 C.ar    1  UNL1       -0.0003
     36 C           4.4575   -3.0144   18.6238 C.ar    1  UNL1       -0.0003
     37 C           3.5639   -1.9871   19.2530 C.ar    1  UNL1       -0.0044
     38 C           3.5485   -1.8183   20.7433 C.ar    1  UNL1       -0.0220
     39 C           2.7780   -0.8961   21.6411 C.3     1  UNL1        0.0573
     40 C           3.1801   -1.1848   23.0571 C.3     1  UNL1        0.1368
     41 O           2.6553   -0.4941   24.2809 O.3     1  UNL1       -0.3821
     42 H           2.7407   -1.0836   25.0465 H       1  UNL1        0.2104
     43 C           7.9104   -3.3976   26.0257 C.3     1  UNL1        0.0355
     44 C           7.9701   -4.8130   25.5327 C.ar    1  UNL1       -0.0217
     45 C           7.5500   -5.9384   26.4310 C.ar    1  UNL1       -0.0043
     46 C           7.6097   -7.3538   25.9381 C.ar    1  UNL1       -0.0003
     47 C           8.0894   -7.6438   24.5468 C.ar    1  UNL1       -0.0000
     48 C           8.5095   -6.5184   23.6484 C.ar    1  UNL1       -0.0003
     49 C           8.4498   -5.1030   24.1414 C.ar    1  UNL1       -0.0043
@<TRIPOS>BOND
     1    15    16    1
     2    16    17    1
     3    16    18    1
     4    16    11    1
     5    11    12   am
     6    12    13    2
     7     5    12    1
     8     5     6    1
     9     6     7    1
    10     7    19    1
    11    19    20    1
    12    20    21   ar
    13    21    22   ar
    14    22    23   ar
    15    23    24   ar
    16    24    25   ar
    17     7     8    1
    18     8     9    1
    19     9    10    1
    20    10     4    1
    21     4     1    1
    22     1     2    1
    23     1    26    1
    24    27    26    1
    25    27    43    1
    26    43    44    1
    27    44    45   ar
    28    45    46   ar
    29    46    47   ar
    30    47    48   ar
    31    48    49   ar
    32    27    28    1
    33    28    29    2
    34    28    30   am
    35    32    30    1
    36    32    33    1
    37    33    34   ar
    38    34    35   ar
    39    35    36   ar
    40    36    37   ar
    41    37    38   ar
    42    38    39    1
    43    39    40    1
    44    40    41    1
    45    10     5    1
    46    49    44   ar
    47    40    32    1
    48    25    20   ar
    49    38    33   ar
    50    11    14    1
    51     2     3    1
    52    30    31    1
    53    41    42    1
@<TRIPOS>MOLECULE
*****
 49 53 0 0 0
SMALL
GASTEIGER

@<TRIPOS>ATOM
      1 C           4.8091   -1.8504   27.6144 C.3     1  UNL1        0.1269
      2 O           3.5054   -2.0718   26.9066 O.3     1  UNL1       -0.3830
      3 H           3.5586   -2.8827   26.3769 H       1  UNL1        0.2104
      4 C           4.9862   -0.6558   28.5040 C.3     1  UNL1        0.1021
      5 C           3.6322   -0.2471   30.6833 C.3     1  UNL1        0.1510
      6 C           3.4882   -0.3907   32.1695 C.3     1  UNL1        0.0980
      7 N           4.5543   -1.0868   32.9624 N.3     1  UNL1       -0.2661
      8 C           5.7644   -1.6392   32.2693 C.3     1  UNL1        0.0899
      9 C           5.9084   -1.4955   30.7831 C.3     1  UNL1        0.0901
     10 N           4.8423   -0.7995   29.9902 N.3     1  UNL1       -0.2621
     11 N           1.7541   -0.3185   28.8894 N.am    1  UNL1       -0.3063
     12 C           2.5660    0.4491   29.8903 C.2     1  UNL1        0.2383
     13 O           2.3117    1.9127   30.0982 O.2     1  UNL1       -0.2736
     14 H           1.9210   -1.2791   28.7530 H       1  UNL1        0.1493
     15 C           1.7343    0.9295   27.1742 C.3     1  UNL1        0.0196
     16 C           0.6880    0.3775   28.0964 C.3     1  UNL1        0.0569
     17 C          -0.3583   -0.1746   29.0187 C.3     1  UNL1        0.0196
     18 C          -0.3782    1.0735   27.3034 C.3     1  UNL1        0.0196
     19 C           4.4103   -1.2304   34.4486 C.3     1  UNL1        0.1008
     20 C           4.9585   -0.1734   35.3609 C.ar    1  UNL1        0.0130
     21 C           6.3510   -0.2999   35.9037 C.ar    1  UNL1        0.0002
     22 C           6.8993    0.7571   36.8160 C.ar    1  UNL1        0.0204
     23 C           6.0549    1.9406   37.1854 C.ar    1  UNL1        0.0989
     24 N           4.6623    2.0670   36.6425 N.ar    1  UNL1       -0.2426
     25 C           4.1141    1.0101   35.7303 C.ar    1  UNL1        0.0959
     26 C           5.9359   -2.8238   27.4327 C.3     1  UNL1        0.0401
     27 C           6.6666   -2.8894   26.1244 C.3     1  UNL1        0.0833
     28 C           6.0383   -2.3242   24.8852 C.2     1  UNL1        0.2226
     29 O           6.4708   -0.9837   24.3694 O.2     1  UNL1       -0.2751
     30 N           4.9773   -3.0995   24.1617 N.am    1  UNL1       -0.3001
     31 H           4.6934   -3.9793   24.5002 H       1  UNL1        0.1498
     32 C           4.3489   -2.5343   22.9224 C.3     1  UNL1        0.1211
     33 C           3.4163   -1.3609   22.8633 C.ar    1  UNL1       -0.0060
     34 C           2.8660   -0.4615   23.9301 C.ar    1  UNL1       -0.0029
     35 C           1.9331    0.6542   23.5628 C.ar    1  UNL1       -0.0003
     36 C           1.5507    0.8705   22.1286 C.ar    1  UNL1       -0.0003
     37 C           2.1010   -0.0289   21.0617 C.ar    1  UNL1       -0.0044
     38 C           3.0338   -1.1446   21.4291 C.ar    1  UNL1       -0.0220
     39 C           3.7301   -2.1843   20.6019 C.3     1  UNL1        0.0573
     40 C           4.5429   -3.0432   21.5248 C.3     1  UNL1        0.1368
     41 O           5.3992   -4.2066   21.1209 O.3     1  UNL1       -0.3821
     42 H           6.0994   -4.3366   21.7795 H       1  UNL1        0.2104
     43 C           8.0258   -3.5202   26.0552 C.3     1  UNL1        0.0355
     44 C           8.1576   -5.0131   25.9943 C.ar    1  UNL1       -0.0217
     45 C           7.9344   -5.7335   24.6977 C.ar    1  UNL1       -0.0043
     46 C           8.0662   -7.2264   24.6368 C.ar    1  UNL1       -0.0003
     47 C           8.4212   -7.9990   25.8726 C.ar    1  UNL1       -0.0000
     48 C           8.6444   -7.2786   27.1692 C.ar    1  UNL1       -0.0003
     49 C           8.5126   -5.7857   27.2301 C.ar    1  UNL1       -0.0043
@<TRIPOS>BOND
     1    15    16    1
     2    16    17    1
     3    16    18    1
     4    16    11    1
     5    11    12   am
     6    12    13    2
     7     5    12    1
     8     5     6    1
     9     6     7    1
    10     7    19    1
    11    19    20    1
    12    20    21   ar
    13    21    22   ar
    14    22    23   ar
    15    23    24   ar
    16    24    25   ar
    17     7     8    1
    18     8     9    1
    19     9    10    1
    20    10     4    1
    21     4     1    1
    22     1     2    1
    23     1    26    1
    24    27    26    1
    25    27    43    1
    26    43    44    1
    27    44    45   ar
    28    45    46   ar
    29    46    47   ar
    30    47    48   ar
    31    48    49   ar
    32    27    28    1
    33    28    29    2
    34    28    30   am
    35    32    30    1
    36    32    33    1
    37    33    34   ar
    38    34    35   ar
    39    35    36   ar
    40    36    37   ar
    41    37    38   ar
    42    38    39    1
    43    39    40    1
    44    40    41    1
    45    10     5    1
    46    49    44   ar
    47    40    32    1
    48    25    20   ar
    49    38    33   ar
    50    11    14    1
    51     2     3    1
    52    30    31    1
    53    41    42    1
@<TRIPOS>MOLECULE
*****
 49 53 0 0 0
SMALL
GASTEIGER

@<TRIPOS>ATOM
      1 C           6.3401   -1.3931   26.6667 C.3     1  UNL1        0.1269
      2 O           7.3642   -1.9729   27.5968 O.3     1  UNL1       -0.3830
      3 H           7.3581   -2.9400   27.5221 H       1  UNL1        0.2104
      4 C           6.1502    0.0929   26.5924 C.3     1  UNL1        0.1021
      5 C           4.2429    1.3216   25.3265 C.3     1  UNL1        0.1510
      6 C           3.7091    1.9476   24.0722 C.3     1  UNL1        0.0980
      7 N           4.5490    1.9711   22.8297 N.3     1  UNL1       -0.2661
      8 C           5.9226    1.3685   22.8413 C.3     1  UNL1        0.0899
      9 C           6.4564    0.7424   24.0955 C.3     1  UNL1        0.0901
     10 N           5.6165    0.7190   25.3381 N.3     1  UNL1       -0.2621
     11 N           2.3713    0.2256   26.7569 N.am    1  UNL1       -0.3063
     12 C           3.4030    1.2981   26.5692 C.2     1  UNL1        0.2383
     13 O           3.5950    2.3471   27.6240 O.2     1  UNL1       -0.2736
     14 H           2.2454   -0.4629   26.0646 H       1  UNL1        0.1493
     15 C           2.5546   -0.6624   28.6747 C.3     1  UNL1        0.0196
     16 C           1.5315    0.2020   27.9995 C.3     1  UNL1        0.0569
     17 C           0.5083    1.0666   27.3243 C.3     1  UNL1        0.0196
     18 C           0.6916    0.1785   29.2421 C.3     1  UNL1        0.0196
     19 C           4.0152    2.5971   21.5754 C.3     1  UNL1        0.1008
     20 C           3.0288    1.8516   20.7261 C.ar    1  UNL1        0.0130
     21 C           2.5610    0.4884   21.1416 C.ar    1  UNL1        0.0002
     22 C           1.5746   -0.2572   20.2923 C.ar    1  UNL1        0.0204
     23 C           1.0561    0.3606   19.0276 C.ar    1  UNL1        0.0989
     24 N           1.5239    1.7238   18.6122 N.ar    1  UNL1       -0.2426
     25 C           2.5103    2.4694   19.4614 C.ar    1  UNL1        0.0959
     26 C           5.5058   -2.2996   25.8110 C.3     1  UNL1        0.0401
     27 C           6.0605   -2.8376   24.5254 C.3     1  UNL1        0.0833
     28 C           5.2845   -2.6837   23.2510 C.2     1  UNL1        0.2226
     29 O           4.0119   -1.8898   23.2390 O.2     1  UNL1       -0.2751
     30 N           5.7811   -3.3237   21.9884 N.am    1  UNL1       -0.3001
     31 H           6.6164   -3.8448   21.9963 H       1  UNL1        0.1498
     32 C           5.0051   -3.1697   20.7140 C.3     1  UNL1        0.1211
     33 C           5.0646   -1.9961   19.7818 C.ar    1  UNL1       -0.0060
     34 C           5.8495   -0.7186   19.8254 C.ar    1  UNL1       -0.0029
     35 C           5.6993    0.2917   18.7269 C.ar    1  UNL1       -0.0003
     36 C           4.7643    0.0244   17.5848 C.ar    1  UNL1       -0.0003
     37 C           3.9794   -1.2531   17.5412 C.ar    1  UNL1       -0.0044
     38 C           4.1296   -2.2634   18.6398 C.ar    1  UNL1       -0.0220
     39 C           3.4922   -3.6022   18.8662 C.3     1  UNL1        0.0573
     40 C           4.0333   -4.1624   20.1481 C.3     1  UNL1        0.1368
     41 O           3.6669   -5.4833   20.7573 O.3     1  UNL1       -0.3821
     42 H           4.3935   -5.7921   21.3208 H       1  UNL1        0.2104
     43 C           7.3913   -3.5296   24.5141 C.3     1  UNL1        0.0355
     44 C           7.4878   -4.9761   24.8993 C.ar    1  UNL1       -0.0217
     45 C           8.1363   -5.9582   23.9693 C.ar    1  UNL1       -0.0043
     46 C           8.2328   -7.4047   24.3546 C.ar    1  UNL1       -0.0003
     47 C           7.6809   -7.8690   25.6698 C.ar    1  UNL1       -0.0000
     48 C           7.0325   -6.8868   26.5998 C.ar    1  UNL1       -0.0003
     49 C           6.9360   -5.4403   26.2146 C.ar    1  UNL1       -0.0043
@<TRIPOS>BOND
     1    15    16    1
     2    16    17    1
     3    16    18    1
     4    16    11    1
     5    11    12   am
     6    12    13    2
     7     5    12    1
     8     5     6    1
     9     6     7    1
    10     7    19    1
    11    19    20    1
    12    20    21   ar
    13    21    22   ar
    14    22    23   ar
    15    23    24   ar
    16    24    25   ar
    17     7     8    1
    18     8     9    1
    19     9    10    1
    20    10     4    1
    21     4     1    1
    22     1     2    1
    23     1    26    1
    24    27    26    1
    25    27    43    1
    26    43    44    1
    27    44    45   ar
    28    45    46   ar
    29    46    47   ar
    30    47    48   ar
    31    48    49   ar
    32    27    28    1
    33    28    29    2
    34    28    30   am
    35    32    30    1
    36    32    33    1
    37    33    34   ar
    38    34    35   ar
    39    35    36   ar
    40    36    37   ar
    41    37    38   ar
    42    38    39    1
    43    39    40    1
    44    40    41    1
    45    10     5    1
    46    49    44   ar
    47    40    32    1
    48    25    20   ar
    49    38    33   ar
    50    11    14    1
    51     2     3    1
    52    30    31    1
    53    41    42    1
@<TRIPOS>MOLECULE
*****
 49 53 0 0 0
SMALL
GASTEIGER

@<TRIPOS>ATOM
      1 C           5.2372   -2.1012   27.3524 C.3     1  UNL1        0.1269
      2 O           3.7383   -2.0563   27.3172 O.3     1  UNL1       -0.3830
      3 H           3.3869   -2.3064   28.1861 H       1  UNL1        0.2104
      4 C           6.0270   -1.7546   26.1251 C.3     1  UNL1        0.1021
      5 C           6.0629   -3.3922   24.1084 C.3     1  UNL1        0.1510
      6 C           5.5603   -3.7966   22.7542 C.3     1  UNL1        0.0980
      7 N           4.5190   -2.9676   22.0625 N.3     1  UNL1       -0.2661
      8 C           3.9804   -1.7343   22.7249 C.3     1  UNL1        0.0899
      9 C           4.4830   -1.3299   24.0792 C.3     1  UNL1        0.0901
     10 N           5.5243   -2.1589   24.7708 N.3     1  UNL1       -0.2621
     11 N           6.7019   -5.4520   25.5573 N.am    1  UNL1       -0.3063
     12 C           7.1043   -4.2212   24.8002 C.2     1  UNL1        0.2383
     13 O           8.5480   -3.8193   24.7348 O.2     1  UNL1       -0.2736
     14 H           5.7544   -5.7157   25.6002 H       1  UNL1        0.1493
     15 C           7.9173   -7.1004   25.0049 C.3     1  UNL1        0.0196
     16 C           7.7431   -6.2810   26.2491 C.3     1  UNL1        0.0569
     17 C           7.5689   -5.4614   27.4933 C.3     1  UNL1        0.0196
     18 C           8.7844   -7.1099   26.9409 C.3     1  UNL1        0.0196
     19 C           4.0164   -3.3719   20.7083 C.3     1  UNL1        0.1008
     20 C           4.1871   -2.4486   19.5385 C.ar    1  UNL1        0.0130
     21 C           3.1909   -1.3538   19.2957 C.ar    1  UNL1        0.0002
     22 C           3.3615   -0.4304   18.1259 C.ar    1  UNL1        0.0204
     23 C           4.5283   -0.6019   17.1990 C.ar    1  UNL1        0.0989
     24 N           5.5245   -1.6967   17.4419 N.ar    1  UNL1       -0.2426
     25 C           5.3539   -2.6201   18.6116 C.ar    1  UNL1        0.0959
     26 C           5.9464   -2.4927   28.6148 C.3     1  UNL1        0.0401
     27 C           5.6396   -1.7808   29.8990 C.3     1  UNL1        0.0833
     28 C           4.6701   -0.6362   29.9090 C.2     1  UNL1        0.2226
     29 O           5.1578    0.7619   29.6696 O.2     1  UNL1       -0.2751
     30 N           3.2128   -0.8899   30.1584 N.am    1  UNL1       -0.3001
     31 H           2.8927   -1.8075   30.3155 H       1  UNL1        0.1498
     32 C           2.2433    0.2547   30.1684 C.3     1  UNL1        0.1211
     33 C           2.0350    1.2239   31.2941 C.ar    1  UNL1       -0.0060
     34 C           2.6738    1.3443   32.6459 C.ar    1  UNL1       -0.0029
     35 C           2.2524    2.4401   33.5795 C.ar    1  UNL1       -0.0003
     36 C           1.1922    3.4154   33.1613 C.ar    1  UNL1       -0.0003
     37 C           0.5535    3.2949   31.8095 C.ar    1  UNL1       -0.0044
     38 C           0.9749    2.1992   30.8759 C.ar    1  UNL1       -0.0220
     39 C           0.5280    1.8327   29.4917 C.3     1  UNL1        0.0573
     40 C           1.3119    0.6309   29.0544 C.3     1  UNL1        0.1368
     41 O           1.1864   -0.0713   27.7349 O.3     1  UNL1       -0.3821
     42 H           2.0182   -0.5266   27.5306 H       1  UNL1        0.2104
     43 C           6.3023   -2.2134   31.1732 C.3     1  UNL1        0.0355
     44 C           5.8743   -1.6169   32.4813 C.ar    1  UNL1       -0.0217
     45 C           6.6585   -0.4889   33.0835 C.ar    1  UNL1       -0.0043
     46 C           6.2305    0.1076   34.3916 C.ar    1  UNL1       -0.0003
     47 C           5.0183   -0.4239   35.0974 C.ar    1  UNL1       -0.0000
     48 C           4.2341   -1.5519   34.4951 C.ar    1  UNL1       -0.0003
     49 C           4.6621   -2.1484   33.1870 C.ar    1  UNL1       -0.0043
@<TRIPOS>BOND
     1    15    16    1
     2    16    17    1
     3    16    18    1
     4    16    11    1
     5    11    12   am
     6    12    13    2
     7     5    12    1
     8     5     6    1
     9     6     7    1
    10     7    19    1
    11    19    20    1
    12    20    21   ar
    13    21    22   ar
    14    22    23   ar
    15    23    24   ar
    16    24    25   ar
    17     7     8    1
    18     8     9    1
    19     9    10    1
    20    10     4    1
    21     4     1    1
    22     1     2    1
    23     1    26    1
    24    27    26    1
    25    27    43    1
    26    43    44    1
    27    44    45   ar
    28    45    46   ar
    29    46    47   ar
    30    47    48   ar
    31    48    49   ar
    32    27    28    1
    33    28    29    2
    34    28    30   am
    35    32    30    1
    36    32    33    1
    37    33    34   ar
    38    34    35   ar
    39    35    36   ar
    40    36    37   ar
    41    37    38   ar
    42    38    39    1
    43    39    40    1
    44    40    41    1
    45    10     5    1
    46    49    44   ar
    47    40    32    1
    48    25    20   ar
    49    38    33   ar
    50    11    14    1
    51     2     3    1
    52    30    31    1
    53    41    42    1
@<TRIPOS>MOLECULE
*****
 49 53 0 0 0
SMALL
GASTEIGER

@<TRIPOS>ATOM
      1 C           0.0741    1.1632   19.8478 C.3     1  UNL1        0.1269
      2 O          -0.1108   -0.1992   20.4474 O.3     1  UNL1       -0.3830
      3 H           0.3727   -0.8533   19.9191 H       1  UNL1        0.2104
      4 C          -0.5768    2.3565   20.4820 C.3     1  UNL1        0.1021
      5 C          -1.4642    3.4099   22.6850 C.3     1  UNL1        0.1510
      6 C          -1.3283    3.6426   24.1606 C.3     1  UNL1        0.0980
      7 N          -0.1688    3.0546   24.9087 N.3     1  UNL1       -0.2661
      8 C           0.8547    2.2339   24.1814 C.3     1  UNL1        0.0899
      9 C           0.7187    2.0012   22.7058 C.3     1  UNL1        0.0901
     10 N          -0.4408    2.5892   21.9577 N.3     1  UNL1       -0.2621
     11 N          -3.7553    3.1178   21.4950 N.am    1  UNL1       -0.3063
     12 C          -2.6238    3.9979   21.9367 C.2     1  UNL1        0.2383
     13 O          -2.6517    5.4659   21.6300 O.2     1  UNL1       -0.2736
     14 H          -3.7370    2.1543   21.6963 H       1  UNL1        0.1493
     15 C          -4.1782    3.5134   19.4544 C.3     1  UNL1        0.0196
     16 C          -4.9148    3.7057   20.7468 C.3     1  UNL1        0.0569
     17 C          -5.6514    3.8979   22.0394 C.3     1  UNL1        0.0196
     18 C          -6.0743    4.2936   19.9986 C.3     1  UNL1        0.0196
     19 C          -0.0328    3.2873   26.3843 C.3     1  UNL1        0.1008
     20 C           0.2428    2.1341   27.3033 C.ar    1  UNL1        0.0130
     21 C          -0.8625    1.1909   27.6752 C.ar    1  UNL1        0.0002
     22 C          -0.5870    0.0376   28.5941 C.ar    1  UNL1        0.0204
     23 C           0.7939   -0.1722   29.1409 C.ar    1  UNL1        0.0989
     24 N           1.8992    0.7711   28.7689 N.ar    1  UNL1       -0.2426
     25 C           1.6237    1.9242   27.8500 C.ar    1  UNL1        0.0959
     26 C           0.9102    1.3323   18.6139 C.3     1  UNL1        0.0401
     27 C           2.3621    1.6892   18.7348 C.3     1  UNL1        0.0833
     28 C           3.3544    0.6547   19.1766 C.2     1  UNL1        0.2226
     29 O           4.7680    1.0533   19.4813 O.2     1  UNL1       -0.2751
     30 N           2.9331   -0.7785   19.3136 N.am    1  UNL1       -0.3001
     31 H           2.0053   -1.0401   19.1136 H       1  UNL1        0.1498
     32 C           3.9254   -1.8129   19.7554 C.3     1  UNL1        0.1211
     33 C           4.2740   -2.1508   21.1747 C.ar    1  UNL1       -0.0060
     34 C           3.7838   -1.6092   22.4848 C.ar    1  UNL1       -0.0029
     35 C           4.3271   -2.1545   23.7722 C.ar    1  UNL1       -0.0003
     36 C           5.3606   -3.2415   23.7494 C.ar    1  UNL1       -0.0003
     37 C           5.8507   -3.7832   22.4394 C.ar    1  UNL1       -0.0044
     38 C           5.3074   -3.2378   21.1520 C.ar    1  UNL1       -0.0220
     39 C           5.5975   -3.5717   19.7187 C.3     1  UNL1        0.0573
     40 C           4.7434   -2.6911   18.8555 C.3     1  UNL1        0.1368
     41 O           4.7127   -2.6889   17.3558 O.3     1  UNL1       -0.3821
     42 H           3.8534   -2.3583   17.0505 H       1  UNL1        0.2104
     43 C           2.8217    3.0804   18.4138 C.3     1  UNL1        0.0355
     44 C           2.1144    4.2606   19.0112 C.ar    1  UNL1       -0.0217
     45 C           2.3587    4.6356   20.4429 C.ar    1  UNL1       -0.0043
     46 C           1.6514    5.8157   21.0403 C.ar    1  UNL1       -0.0003
     47 C           0.6998    6.6209   20.2060 C.ar    1  UNL1       -0.0000
     48 C           0.4554    6.2459   18.7744 C.ar    1  UNL1       -0.0003
     49 C           1.1627    5.0657   18.1770 C.ar    1  UNL1       -0.0043
@<TRIPOS>BOND
     1    15    16    1
     2    16    17    1
     3    16    18    1
     4    16    11    1
     5    11    12   am
     6    12    13    2
     7     5    12    1
     8     5     6    1
     9     6     7    1
    10     7    19    1
    11    19    20    1
    12    20    21   ar
    13    21    22   ar
    14    22    23   ar
    15    23    24   ar
    16    24    25   ar
    17     7     8    1
    18     8     9    1
    19     9    10    1
    20    10     4    1
    21     4     1    1
    22     1     2    1
    23     1    26    1
    24    27    26    1
    25    27    43    1
    26    43    44    1
    27    44    45   ar
    28    45    46   ar
    29    46    47   ar
    30    47    48   ar
    31    48    49   ar
    32    27    28    1
    33    28    29    2
    34    28    30   am
    35    32    30    1
    36    32    33    1
    37    33    34   ar
    38    34    35   ar
    39    35    36   ar
    40    36    37   ar
    41    37    38   ar
    42    38    39    1
    43    39    40    1
    44    40    41    1
    45    10     5    1
    46    49    44   ar
    47    40    32    1
    48    25    20   ar
    49    38    33   ar
    50    11    14    1
    51     2     3    1
    52    30    31    1
    53    41    42    1
@<TRIPOS>MOLECULE
*****
 49 53 0 0 0
SMALL
GASTEIGER

@<TRIPOS>ATOM
      1 C           1.7039    3.9235   21.4065 C.3     1  UNL1        0.1269
      2 O           1.7072    5.0291   20.3928 O.3     1  UNL1       -0.3830
      3 H           1.2883    4.7189   19.5747 H       1  UNL1        0.2104
      4 C           2.2982    4.1498   22.7650 C.3     1  UNL1        0.1021
      5 C           2.3106    2.2775   24.5662 C.3     1  UNL1        0.1510
      6 C           1.6953    1.6301   25.7713 C.3     1  UNL1        0.0980
      7 N           0.4521    2.2077   26.3802 N.3     1  UNL1       -0.2661
      8 C          -0.1757    3.4327   25.7842 C.3     1  UNL1        0.0899
      9 C           0.4397    4.0801   24.5791 C.3     1  UNL1        0.0901
     10 N           1.6828    3.5025   23.9701 N.3     1  UNL1       -0.2621
     11 N           3.4485    0.6681   22.8734 N.am    1  UNL1       -0.3063
     12 C           3.5538    1.6999   23.9571 C.2     1  UNL1        0.2383
     13 O           4.9023    2.1541   24.4318 O.2     1  UNL1       -0.2736
     14 H           2.5634    0.3700   22.5619 H       1  UNL1        0.1493
     15 C           4.6590   -1.0303   23.2607 C.3     1  UNL1        0.0196
     16 C           4.6916    0.0905   22.2644 C.3     1  UNL1        0.0569
     17 C           4.7241    1.2113   21.2679 C.3     1  UNL1        0.0196
     18 C           5.9347   -0.4871   21.6552 C.3     1  UNL1        0.0196
     19 C          -0.1632    1.5603   27.5853 C.3     1  UNL1        0.1008
     20 C           0.6849    1.2419   28.7810 C.ar    1  UNL1        0.0130
     21 C           1.0902    2.3345   29.7253 C.ar    1  UNL1        0.0002
     22 C           1.9383    2.0163   30.9209 C.ar    1  UNL1        0.0204
     23 C           2.3811    0.6053   31.1721 C.ar    1  UNL1        0.0989
     24 N           1.9758   -0.4873   30.2277 N.ar    1  UNL1       -0.2426
     25 C           1.1277   -0.1691   29.0321 C.ar    1  UNL1        0.0959
     26 C           1.1063    2.5917   21.0617 C.3     1  UNL1        0.0401
     27 C           0.1820    2.4659   19.8870 C.3     1  UNL1        0.0833
     28 C          -1.1403    3.1741   19.8939 C.2     1  UNL1        0.2226
     29 O          -1.2560    4.5522   19.3131 O.2     1  UNL1       -0.2751
     30 N          -2.3470    2.5041   20.4816 N.am    1  UNL1       -0.3001
     31 H          -2.2710    1.5996   20.8628 H       1  UNL1        0.1498
     32 C          -3.6692    3.2123   20.4885 C.3     1  UNL1        0.1211
     33 C          -4.5057    3.5061   21.6984 C.ar    1  UNL1       -0.0060
     34 C          -4.3025    3.2108   23.1549 C.ar    1  UNL1       -0.0029
     35 C          -5.3342    3.6358   24.1574 C.ar    1  UNL1       -0.0003
     36 C          -6.5690    4.3562   23.7034 C.ar    1  UNL1       -0.0003
     37 C          -6.7723    4.6515   22.2469 C.ar    1  UNL1       -0.0044
     38 C          -5.7406    4.2265   21.2444 C.ar    1  UNL1       -0.0220
     39 C          -5.6673    4.3778   19.7539 C.3     1  UNL1        0.0573
     40 C          -4.3871    3.7511   19.2867 C.3     1  UNL1        0.1368
     41 O          -3.9088    3.6762   17.8669 O.3     1  UNL1       -0.3821
     42 H          -2.9415    3.6049   17.8550 H       1  UNL1        0.2104
     43 C           0.5798    1.6319   18.7055 C.3     1  UNL1        0.0355
     44 C           1.5768    0.5234   18.8714 C.ar    1  UNL1       -0.0217
     45 C           1.3566   -0.5338   19.9124 C.ar    1  UNL1       -0.0043
     46 C           2.3535   -1.6422   20.0783 C.ar    1  UNL1       -0.0003
     47 C           3.5706   -1.6934   19.2031 C.ar    1  UNL1       -0.0000
     48 C           3.7908   -0.6361   18.1621 C.ar    1  UNL1       -0.0003
     49 C           2.7939    0.4723   17.9962 C.ar    1  UNL1       -0.0043
@<TRIPOS>BOND
     1    15    16    1
     2    16    17    1
     3    16    18    1
     4    16    11    1
     5    11    12   am
     6    12    13    2
     7     5    12    1
     8     5     6    1
     9     6     7    1
    10     7    19    1
    11    19    20    1
    12    20    21   ar
    13    21    22   ar
    14    22    23   ar
    15    23    24   ar
    16    24    25   ar
    17     7     8    1
    18     8     9    1
    19     9    10    1
    20    10     4    1
    21     4     1    1
    22     1     2    1
    23     1    26    1
    24    27    26    1
    25    27    43    1
    26    43    44    1
    27    44    45   ar
    28    45    46   ar
    29    46    47   ar
    30    47    48   ar
    31    48    49   ar
    32    27    28    1
    33    28    29    2
    34    28    30   am
    35    32    30    1
    36    32    33    1
    37    33    34   ar
    38    34    35   ar
    39    35    36   ar
    40    36    37   ar
    41    37    38   ar
    42    38    39    1
    43    39    40    1
    44    40    41    1
    45    10     5    1
    46    49    44   ar
    47    40    32    1
    48    25    20   ar
    49    38    33   ar
    50    11    14    1
    51     2     3    1
    52    30    31    1
    53    41    42    1
@<TRIPOS>MOLECULE
*****
 49 53 0 0 0
SMALL
GASTEIGER

@<TRIPOS>ATOM
      1 C           4.3859   -1.1603   24.7974 C.3     1  UNL1        0.1269
      2 O           3.0725   -0.9917   25.5019 O.3     1  UNL1       -0.3830
      3 H           2.3483   -1.1863   24.8867 H       1  UNL1        0.2104
      4 C           5.6693   -0.9165   25.5346 C.3     1  UNL1        0.1021
      5 C           5.5450   -0.6468   28.1156 C.3     1  UNL1        0.1510
      6 C           5.7384   -1.2118   29.4916 C.3     1  UNL1        0.0980
      7 N           6.2495   -2.6116   29.6625 N.3     1  UNL1       -0.2661
      8 C           6.5672   -3.4465   28.4575 C.3     1  UNL1        0.0899
      9 C           6.3738   -2.8814   27.0815 C.3     1  UNL1        0.0901
     10 N           5.8627   -1.4816   26.9106 N.3     1  UNL1       -0.2621
     11 N           3.5823    0.9910   27.6510 N.am    1  UNL1       -0.3063
     12 C           5.0339    0.7531   27.9447 C.2     1  UNL1        0.2383
     13 O           5.9745    1.9152   28.0675 O.2     1  UNL1       -0.2736
     14 H           2.9650    0.2283   27.5704 H       1  UNL1        0.1493
     15 C           3.5397    2.3878   26.0551 C.3     1  UNL1        0.0196
     16 C           3.0712    2.3907   27.4800 C.3     1  UNL1        0.0569
     17 C           2.6027    2.3936   28.9051 C.3     1  UNL1        0.0196
     18 C           2.5600    3.7906   27.3092 C.3     1  UNL1        0.0196
     19 C           6.4428   -3.1767   31.0385 C.3     1  UNL1        0.1008
     20 C           6.0851   -2.3571   32.2429 C.ar    1  UNL1        0.0130
     21 C           4.7108   -2.4555   32.8357 C.ar    1  UNL1        0.0002
     22 C           4.3529   -1.6361   34.0401 C.ar    1  UNL1        0.0204
     23 C           5.3696   -0.7182   34.6516 C.ar    1  UNL1        0.0989
     24 N           6.7440   -0.6198   34.0588 N.ar    1  UNL1       -0.2426
     25 C           7.1017   -1.4393   32.8545 C.ar    1  UNL1        0.0959
     26 C           4.4160   -1.5727   23.3555 C.3     1  UNL1        0.0401
     27 C           4.0520   -0.5864   22.2855 C.3     1  UNL1        0.0833
     28 C           3.1846    0.5921   22.6155 C.2     1  UNL1        0.2226
     29 O           3.7470    1.9808   22.5436 O.2     1  UNL1       -0.2751
     30 N           1.7547    0.3818   23.0174 N.am    1  UNL1       -0.3001
     31 H           1.3856   -0.5296   23.0646 H       1  UNL1        0.1498
     32 C           0.8874    1.5603   23.3473 C.3     1  UNL1        0.1211
     33 C           0.1778    1.7962   24.6477 C.ar    1  UNL1       -0.0060
     34 C           0.1166    0.9988   25.9167 C.ar    1  UNL1       -0.0029
     35 C          -0.6933    1.4967   27.0769 C.ar    1  UNL1       -0.0003
     36 C          -1.4419    2.7920   26.9682 C.ar    1  UNL1       -0.0003
     37 C          -1.3806    3.5894   25.6992 C.ar    1  UNL1       -0.0044
     38 C          -0.5708    3.0914   24.5389 C.ar    1  UNL1       -0.0220
     39 C          -0.3238    3.6561   23.1714 C.3     1  UNL1        0.0573
     40 C           0.5774    2.7098   22.4349 C.3     1  UNL1        0.1368
     41 O           1.0803    2.8827   21.0324 O.3     1  UNL1       -0.3821
     42 H           1.9134    2.3976   20.9255 H       1  UNL1        0.2104
     43 C           4.5553   -0.7785   20.8857 C.3     1  UNL1        0.0355
     44 C           4.5616   -2.1473   20.2721 C.ar    1  UNL1       -0.0217
     45 C           5.8339   -2.9402   20.2206 C.ar    1  UNL1       -0.0043
     46 C           5.8403   -4.3090   19.6070 C.ar    1  UNL1       -0.0003
     47 C           4.5744   -4.8848   19.0451 C.ar    1  UNL1       -0.0000
     48 C           3.3021   -4.0919   19.0966 C.ar    1  UNL1       -0.0003
     49 C           3.2957   -2.7232   19.7102 C.ar    1  UNL1       -0.0043
@<TRIPOS>BOND
     1    15    16    1
     2    16    17    1
     3    16    18    1
     4    16    11    1
     5    11    12   am
     6    12    13    2
     7     5    12    1
     8     5     6    1
     9     6     7    1
    10     7    19    1
    11    19    20    1
    12    20    21   ar
    13    21    22   ar
    14    22    23   ar
    15    23    24   ar
    16    24    25   ar
    17     7     8    1
    18     8     9    1
    19     9    10    1
    20    10     4    1
    21     4     1    1
    22     1     2    1
    23     1    26    1
    24    27    26    1
    25    27    43    1
    26    43    44    1
    27    44    45   ar
    28    45    46   ar
    29    46    47   ar
    30    47    48   ar
    31    48    49   ar
    32    27    28    1
    33    28    29    2
    34    28    30   am
    35    32    30    1
    36    32    33    1
    37    33    34   ar
    38    34    35   ar
    39    35    36   ar
    40    36    37   ar
    41    37    38   ar
    42    38    39    1
    43    39    40    1
    44    40    41    1
    45    10     5    1
    46    49    44   ar
    47    40    32    1
    48    25    20   ar
    49    38    33   ar
    50    11    14    1
    51     2     3    1
    52    30    31    1
    53    41    42    1
@<TRIPOS>MOLECULE
*****
 49 53 0 0 0
SMALL
GASTEIGER

@<TRIPOS>ATOM
      1 C           0.1484    1.2226   20.2546 C.3     1  UNL1        0.1269
      2 O          -0.2210   -0.2082   20.5119 O.3     1  UNL1       -0.3830
      3 H           0.0023   -0.7445   19.7351 H       1  UNL1        0.2104
      4 C          -0.0971    2.2618   21.3081 C.3     1  UNL1        0.1021
      5 C          -1.8470    3.7677   22.4997 C.3     1  UNL1        0.1510
      6 C          -3.0857    4.6121   22.4460 C.3     1  UNL1        0.0980
      7 N          -3.8130    4.7948   21.1470 N.3     1  UNL1       -0.2661
      8 C          -3.3018    4.1332   19.9016 C.3     1  UNL1        0.0899
      9 C          -2.0631    3.2888   19.9553 C.3     1  UNL1        0.0901
     10 N          -1.3358    3.1061   21.2543 N.3     1  UNL1       -0.2621
     11 N          -1.6489    2.6295   24.8268 N.am    1  UNL1       -0.3063
     12 C          -1.1196    3.5850   23.7988 C.2     1  UNL1        0.2383
     13 O           0.1372    4.3578   24.0698 O.2     1  UNL1       -0.2736
     14 H          -2.4738    2.1223   24.6489 H       1  UNL1        0.1493
     15 C          -0.1052    1.3472   25.5140 C.3     1  UNL1        0.0196
     16 C          -0.9216    2.4467   26.1258 C.3     1  UNL1        0.0569
     17 C          -1.7382    3.5463   26.7377 C.3     1  UNL1        0.0196
     18 C          -0.1943    2.2640   27.4249 C.3     1  UNL1        0.0196
     19 C          -5.0516    5.6391   21.0933 C.3     1  UNL1        0.1008
     20 C          -6.0368    5.5982   22.2238 C.ar    1  UNL1        0.0130
     21 C          -6.0077    6.6602   23.2826 C.ar    1  UNL1        0.0002
     22 C          -6.9928    6.6194   24.4131 C.ar    1  UNL1        0.0204
     23 C          -8.0070    5.5165   24.4846 C.ar    1  UNL1        0.0989
     24 N          -8.0360    4.4545   23.4257 N.ar    1  UNL1       -0.2426
     25 C          -7.0509    4.4953   22.2953 C.ar    1  UNL1        0.0959
     26 C           0.7634    1.6143   18.9437 C.3     1  UNL1        0.0401
     27 C           2.2345    1.8947   18.8595 C.3     1  UNL1        0.0833
     28 C           3.2231    0.8435   19.2690 C.2     1  UNL1        0.2226
     29 O           4.6086    1.2388   19.6863 O.2     1  UNL1       -0.2751
     30 N           2.8261   -0.6031   19.2612 N.am    1  UNL1       -0.3001
     31 H           1.9168   -0.8625   18.9873 H       1  UNL1        0.1498
     32 C           3.8147   -1.6543   19.6707 C.3     1  UNL1        0.1211
     33 C           4.1622   -2.0370   21.0788 C.ar    1  UNL1       -0.0060
     34 C           3.6743   -1.5341   22.4050 C.ar    1  UNL1       -0.0029
     35 C           4.2157   -2.1208   23.6749 C.ar    1  UNL1       -0.0003
     36 C           5.2451   -3.2104   23.6185 C.ar    1  UNL1       -0.0003
     37 C           5.7331   -3.7133   22.2922 C.ar    1  UNL1       -0.0044
     38 C           5.1916   -3.1266   21.0224 C.ar    1  UNL1       -0.0220
     39 C           5.4803   -3.4172   19.5794 C.3     1  UNL1        0.0573
     40 C           4.6293   -2.5073   18.7440 C.3     1  UNL1        0.1368
     41 O           4.5984   -2.4589   17.2451 O.3     1  UNL1       -0.3821
     42 H           3.7403   -2.1159   16.9503 H       1  UNL1        0.2104
     43 C           2.7172    3.2263   18.3657 C.3     1  UNL1        0.0355
     44 C           2.0280    4.4840   18.8054 C.ar    1  UNL1       -0.0217
     45 C           1.2950    5.3269   17.8042 C.ar    1  UNL1       -0.0043
     46 C           0.6059    6.5846   18.2438 C.ar    1  UNL1       -0.0003
     47 C           0.6497    6.9994   19.6846 C.ar    1  UNL1       -0.0000
     48 C           1.3827    6.1565   20.6858 C.ar    1  UNL1       -0.0003
     49 C           2.0719    4.8989   20.2462 C.ar    1  UNL1       -0.0043
@<TRIPOS>BOND
     1    15    16    1
     2    16    17    1
     3    16    18    1
     4    16    11    1
     5    11    12   am
     6    12    13    2
     7     5    12    1
     8     5     6    1
     9     6     7    1
    10     7    19    1
    11    19    20    1
    12    20    21   ar
    13    21    22   ar
    14    22    23   ar
    15    23    24   ar
    16    24    25   ar
    17     7     8    1
    18     8     9    1
    19     9    10    1
    20    10     4    1
    21     4     1    1
    22     1     2    1
    23     1    26    1
    24    27    26    1
    25    27    43    1
    26    43    44    1
    27    44    45   ar
    28    45    46   ar
    29    46    47   ar
    30    47    48   ar
    31    48    49   ar
    32    27    28    1
    33    28    29    2
    34    28    30   am
    35    32    30    1
    36    32    33    1
    37    33    34   ar
    38    34    35   ar
    39    35    36   ar
    40    36    37   ar
    41    37    38   ar
    42    38    39    1
    43    39    40    1
    44    40    41    1
    45    10     5    1
    46    49    44   ar
    47    40    32    1
    48    25    20   ar
    49    38    33   ar
    50    11    14    1
    51     2     3    1
    52    30    31    1
    53    41    42    1
@<TRIPOS>MOLECULE
*****
 49 53 0 0 0
SMALL
GASTEIGER

@<TRIPOS>ATOM
      1 C           2.4621    2.7304   25.9278 C.3     1  UNL1        0.1269
      2 O           3.9378    2.9793   25.8266 O.3     1  UNL1       -0.3830
      3 H           4.1293    3.8958   26.0802 H       1  UNL1        0.2104
      4 C           1.9041    1.3804   25.5872 C.3     1  UNL1        0.1021
      5 C           3.0563    0.0328   23.6881 C.3     1  UNL1        0.1510
      6 C           3.0794   -0.4519   22.2688 C.3     1  UNL1        0.0980
      7 N           1.9731   -0.0736   21.3292 N.3     1  UNL1       -0.2661
      8 C           0.8438    0.7893   21.8088 C.3     1  UNL1        0.0899
      9 C           0.8207    1.2740   23.2281 C.3     1  UNL1        0.0901
     10 N           1.9270    0.8957   24.1678 N.3     1  UNL1       -0.2621
     11 N           4.1144   -1.6570   25.3541 N.am    1  UNL1       -0.3063
     12 C           4.1627   -0.3454   24.6279 C.2     1  UNL1        0.2383
     13 O           5.3174    0.5880   24.8414 O.2     1  UNL1       -0.2736
     14 H           3.3565   -2.2696   25.2140 H       1  UNL1        0.1493
     15 C           4.4596   -1.4271   27.4344 C.3     1  UNL1        0.0196
     16 C           5.2206   -2.0353   26.2938 C.3     1  UNL1        0.0569
     17 C           5.9816   -2.6434   25.1531 C.3     1  UNL1        0.0196
     18 C           6.3269   -2.4136   27.2335 C.3     1  UNL1        0.0196
     19 C           1.9961   -0.5583   19.9098 C.3     1  UNL1        0.1008
     20 C           3.1696   -1.3444   19.4046 C.ar    1  UNL1        0.0130
     21 C           3.2312   -2.8264   19.6270 C.ar    1  UNL1        0.0002
     22 C           4.4047   -3.6126   19.1219 C.ar    1  UNL1        0.0204
     23 C           5.5165   -2.9164   18.3944 C.ar    1  UNL1        0.0989
     24 N           5.4549   -1.4343   18.1720 N.ar    1  UNL1       -0.2426
     25 C           4.2815   -0.6482   18.6771 C.ar    1  UNL1        0.0959
     26 C           1.5444    3.8316   26.3695 C.3     1  UNL1        0.0401
     27 C           0.4056    3.5315   27.2986 C.3     1  UNL1        0.0833
     28 C          -0.9723    3.3097   26.7489 C.2     1  UNL1        0.2226
     29 O          -1.8097    2.1748   27.2593 O.2     1  UNL1       -0.2751
     30 N          -1.5129    4.2230   25.6887 N.am    1  UNL1       -0.3001
     31 H          -0.9633    4.9679   25.3537 H       1  UNL1        0.1498
     32 C          -2.8908    4.0012   25.1390 C.3     1  UNL1        0.1211
     33 C          -3.2358    3.7424   23.7024 C.ar    1  UNL1       -0.0060
     34 C          -2.3872    3.6332   22.4703 C.ar    1  UNL1       -0.0029
     35 C          -3.0267    3.3621   21.1409 C.ar    1  UNL1       -0.0003
     36 C          -4.5147    3.2002   21.0434 C.ar    1  UNL1       -0.0003
     37 C          -5.3633    3.3094   22.2754 C.ar    1  UNL1       -0.0044
     38 C          -4.7238    3.5805   23.6049 C.ar    1  UNL1       -0.0220
     39 C          -5.2985    3.7393   24.9814 C.3     1  UNL1        0.0573
     40 C          -4.1656    3.9993   25.9295 C.3     1  UNL1        0.1368
     41 O          -4.2863    4.2189   27.4084 O.3     1  UNL1       -0.3821
     42 H          -3.4542    3.9714   27.8410 H       1  UNL1        0.2104
     43 C           0.6447    3.4533   28.7773 C.3     1  UNL1        0.0355
     44 C           1.3336    2.2567   29.3634 C.ar    1  UNL1       -0.0217
     45 C           0.8772    0.8751   28.9987 C.ar    1  UNL1       -0.0043
     46 C           1.5662   -0.3215   29.5848 C.ar    1  UNL1       -0.0003
     47 C           2.7115   -0.1365   30.5356 C.ar    1  UNL1       -0.0000
     48 C           3.1679    1.2451   30.9002 C.ar    1  UNL1       -0.0003
     49 C           2.4790    2.4417   30.3141 C.ar    1  UNL1       -0.0043
@<TRIPOS>BOND
     1    15    16    1
     2    16    17    1
     3    16    18    1
     4    16    11    1
     5    11    12   am
     6    12    13    2
     7     5    12    1
     8     5     6    1
     9     6     7    1
    10     7    19    1
    11    19    20    1
    12    20    21   ar
    13    21    22   ar
    14    22    23   ar
    15    23    24   ar
    16    24    25   ar
    17     7     8    1
    18     8     9    1
    19     9    10    1
    20    10     4    1
    21     4     1    1
    22     1     2    1
    23     1    26    1
    24    27    26    1
    25    27    43    1
    26    43    44    1
    27    44    45   ar
    28    45    46   ar
    29    46    47   ar
    30    47    48   ar
    31    48    49   ar
    32    27    28    1
    33    28    29    2
    34    28    30   am
    35    32    30    1
    36    32    33    1
    37    33    34   ar
    38    34    35   ar
    39    35    36   ar
    40    36    37   ar
    41    37    38   ar
    42    38    39    1
    43    39    40    1
    44    40    41    1
    45    10     5    1
    46    49    44   ar
    47    40    32    1
    48    25    20   ar
    49    38    33   ar
    50    11    14    1
    51     2     3    1
    52    30    31    1
    53    41    42    1
