@<TRIPOS>MOLECULE
*****
 30 33 0 0 0
SMALL
GASTEIGER

@<TRIPOS>ATOM
      1 N           3.9724   -1.3361   21.7387 N.pl3   1  UNL1       -0.2997
      2 C           4.4766   -1.6238   23.1219 C.3     1  UNL1        0.1208
      3 C           3.6667   -0.8117   24.0887 C.ar    1  UNL1        0.0336
      4 C           3.4778   -0.4876   25.5411 C.ar    1  UNL1        0.0990
      5 N           2.3564    0.5022   25.6530 N.ar    1  UNL1       -0.2287
      6 N           1.8522    0.7899   24.2699 N.ar    1  UNL1       -0.1681
      7 C           2.6620   -0.0222   23.3031 C.ar    1  UNL1        0.0960
      8 C           2.8509   -0.3462   21.8508 C.3     1  UNL1        0.1147
      9 C           5.7614   -1.6716   18.2122 C.ar    1  UNL1        0.2259
     10 C           5.2364   -1.0744   19.4840 C.ar    1  UNL1        0.0722
     11 C           4.4975   -1.9334   20.4670 C.ar    1  UNL1        0.0542
     12 C           4.2837   -3.3897   20.1781 C.ar    1  UNL1        0.0295
     13 C           4.8088   -3.9871   18.9062 C.ar    1  UNL1        0.0637
     14 C           4.5950   -5.4433   18.6173 C.3     1  UNL1        0.0522
     15 N           5.5476   -3.1280   17.9233 N.ar    1  UNL1       -0.2160
     16 C           5.9841    0.5547   16.8916 C.3     1  UNL1        0.2542
     17 O           6.5003   -0.8126   17.2292 O.3     1  UNL1       -0.4561
     18 C           1.8313    1.0995   26.9248 C.ar    1  UNL1        0.0841
     19 C           0.7345    2.1216   26.8765 C.ar    1  UNL1        0.0192
     20 C           0.2094    2.7188   28.1484 C.ar    1  UNL1        0.0029
     21 C           0.7812    2.2941   29.4685 C.ar    1  UNL1        0.0184
     22 C           1.8780    1.2721   29.5168 C.ar    1  UNL1        0.1072
     23 C           2.4031    0.6748   28.2449 C.ar    1  UNL1        0.0375
     24 S           2.4498    0.8473   30.8369 S.O2    1  UNL1        0.0105
     25 C           3.0216    0.4224   32.1569 C.3     1  UNL1        0.1816
     26 O           2.8946    2.2559   31.0976 O.2     1  UNL1       -0.1686
     27 O           2.0050   -0.5614   30.5762 O.2     1  UNL1       -0.1686
     28 C           2.0577    0.2201   20.7106 C.3     1  UNL1        0.0240
     29 C           0.8804   -0.5348   20.1680 C.3     1  UNL1        0.0021
     30 C           2.4416    1.5413   20.1130 C.3     1  UNL1        0.0021
@<TRIPOS>BOND
     1    16    17    1
     2    17     9    1
     3     9    10   ar
     4    10    11   ar
     5    11     1    1
     6     1     2    1
     7     2     3    1
     8     3     4   ar
     9     4     5   ar
    10     5    18    1
    11    18    19   ar
    12    19    20   ar
    13    20    21   ar
    14    21    22   ar
    15    22    24    1
    16    24    25    1
    17    24    26    2
    18    24    27    2
    19    22    23   ar
    20     5     6   ar
    21     6     7   ar
    22     7     8    1
    23     8    28    1
    24    28    29    1
    25    28    30    1
    26    11    12   ar
    27    12    13   ar
    28    13    14    1
    29    13    15   ar
    30    15     9   ar
    31     8     1    1
    32     7     3   ar
    33    23    18   ar
@<TRIPOS>MOLECULE
*****
 30 33 0 0 0
SMALL
GASTEIGER

@<TRIPOS>ATOM
      1 N           4.7916   -1.4074   21.0728 N.pl3   1  UNL1       -0.2997
      2 C           4.9684   -1.2592   22.5550 C.3     1  UNL1        0.1208
      3 C           5.6345   -2.5010   23.0689 C.ar    1  UNL1        0.0336
      4 C           6.1554   -3.1768   24.3026 C.ar    1  UNL1        0.0990
      5 N           6.7122   -4.5104   23.9005 N.ar    1  UNL1       -0.2287
      6 N           6.5354   -4.6587   22.4183 N.ar    1  UNL1       -0.1681
      7 C           5.8694   -3.4168   21.9044 C.ar    1  UNL1        0.0960
      8 C           5.3485   -2.7410   20.6707 C.3     1  UNL1        0.1147
      9 C           2.0507    0.6910   19.1150 C.ar    1  UNL1        0.2259
     10 C           2.6747   -0.3171   20.0337 C.ar    1  UNL1        0.0722
     11 C           4.1677   -0.3993   20.1541 C.ar    1  UNL1        0.0542
     12 C           5.0365    0.5267   19.3556 C.ar    1  UNL1        0.0295
     13 C           4.4125    1.5350   18.4368 C.ar    1  UNL1        0.0637
     14 C           5.2814    2.4610   17.6383 C.3     1  UNL1        0.0522
     15 N           2.9196    1.6171   18.3165 N.ar    1  UNL1       -0.2160
     16 C          -0.2486    1.4118   20.0864 C.3     1  UNL1        0.2542
     17 O           0.5577    0.7733   18.9946 O.3     1  UNL1       -0.4561
     18 C           7.3362   -5.5186   24.8192 C.ar    1  UNL1        0.0841
     19 C           8.0874   -6.6864   24.2520 C.ar    1  UNL1        0.0192
     20 C           8.7114   -7.6946   25.1708 C.ar    1  UNL1        0.0029
     21 C           8.5842   -7.5350   26.6568 C.ar    1  UNL1        0.0184
     22 C           7.8331   -6.3671   27.2241 C.ar    1  UNL1        0.1072
     23 C           7.2091   -5.3589   26.3053 C.ar    1  UNL1        0.0375
     24 S           7.7059   -6.2074   28.7101 S.O2    1  UNL1        0.0105
     25 C           7.5786   -6.0476   30.1961 C.3     1  UNL1        0.1816
     26 O           9.0082   -6.9273   28.8991 O.2     1  UNL1       -0.1686
     27 O           6.4035   -5.4875   28.5212 O.2     1  UNL1       -0.1686
     28 C           5.3790   -3.3005   19.2793 C.3     1  UNL1        0.0240
     29 C           6.2765   -2.6889   18.2446 C.3     1  UNL1        0.0021
     30 C           4.5122   -4.4715   18.9226 C.3     1  UNL1        0.0021
@<TRIPOS>BOND
     1    16    17    1
     2    17     9    1
     3     9    10   ar
     4    10    11   ar
     5    11     1    1
     6     1     2    1
     7     2     3    1
     8     3     4   ar
     9     4     5   ar
    10     5    18    1
    11    18    19   ar
    12    19    20   ar
    13    20    21   ar
    14    21    22   ar
    15    22    24    1
    16    24    25    1
    17    24    26    2
    18    24    27    2
    19    22    23   ar
    20     5     6   ar
    21     6     7   ar
    22     7     8    1
    23     8    28    1
    24    28    29    1
    25    28    30    1
    26    11    12   ar
    27    12    13   ar
    28    13    14    1
    29    13    15   ar
    30    15     9   ar
    31     8     1    1
    32     7     3   ar
    33    23    18   ar
@<TRIPOS>MOLECULE
*****
 30 33 0 0 0
SMALL
GASTEIGER

@<TRIPOS>ATOM
      1 N           5.0072   -1.2286   21.0134 N.pl3   1  UNL1       -0.2997
      2 C           5.3440   -1.0029   22.4576 C.3     1  UNL1        0.1208
      3 C           5.8666   -2.2921   23.0188 C.ar    1  UNL1        0.0336
      4 C           6.3977   -2.9493   24.2581 C.ar    1  UNL1        0.0990
      5 N           6.7121   -4.3780   23.9267 N.ar    1  UNL1       -0.2287
      6 N           6.3754   -4.6038   22.4825 N.ar    1  UNL1       -0.1681
      7 C           5.8528   -3.3146   21.9214 C.ar    1  UNL1        0.0960
      8 C           5.3217   -2.6574   20.6820 C.3     1  UNL1        0.1147
      9 C           4.8168    1.8058   18.4629 C.ar    1  UNL1        0.2259
     10 C           5.3707    0.7826   19.4094 C.ar    1  UNL1        0.0722
     11 C           4.4532   -0.2054   20.0669 C.ar    1  UNL1        0.0542
     12 C           2.9818   -0.1700   19.7778 C.ar    1  UNL1        0.0295
     13 C           2.4278    0.8533   18.8312 C.ar    1  UNL1        0.0637
     14 C           0.9563    0.8887   18.5421 C.3     1  UNL1        0.0522
     15 N           3.3453    1.8412   18.1738 N.ar    1  UNL1       -0.2160
     16 C           6.6935    2.3369   16.7465 C.3     1  UNL1        0.2542
     17 O           5.7343    2.7938   17.8054 O.3     1  UNL1       -0.4561
     18 C           7.2661   -5.4014   24.8732 C.ar    1  UNL1        0.0841
     19 C           7.9871   -6.6038   24.3399 C.ar    1  UNL1        0.0192
     20 C           8.5410   -7.6271   25.2865 C.ar    1  UNL1        0.0029
     21 C           8.3740   -7.4480   26.7664 C.ar    1  UNL1        0.0184
     22 C           7.6531   -6.2456   27.2997 C.ar    1  UNL1        0.1072
     23 C           7.0991   -5.2223   26.3531 C.ar    1  UNL1        0.0375
     24 S           7.4860   -6.0664   28.7795 S.O2    1  UNL1        0.0105
     25 C           7.3189   -5.8872   30.2594 C.3     1  UNL1        0.1816
     26 O           8.7763   -6.7947   29.0135 O.2     1  UNL1       -0.1686
     27 O           6.1957   -5.3381   28.5456 O.2     1  UNL1       -0.1686
     28 C           5.1374   -3.3137   19.3458 C.3     1  UNL1        0.0240
     29 C           5.8824   -2.8008   18.1492 C.3     1  UNL1        0.0021
     30 C           4.2081   -4.4829   19.2063 C.3     1  UNL1        0.0021
@<TRIPOS>BOND
     1    16    17    1
     2    17     9    1
     3     9    10   ar
     4    10    11   ar
     5    11     1    1
     6     1     2    1
     7     2     3    1
     8     3     4   ar
     9     4     5   ar
    10     5    18    1
    11    18    19   ar
    12    19    20   ar
    13    20    21   ar
    14    21    22   ar
    15    22    24    1
    16    24    25    1
    17    24    26    2
    18    24    27    2
    19    22    23   ar
    20     5     6   ar
    21     6     7   ar
    22     7     8    1
    23     8    28    1
    24    28    29    1
    25    28    30    1
    26    11    12   ar
    27    12    13   ar
    28    13    14    1
    29    13    15   ar
    30    15     9   ar
    31     8     1    1
    32     7     3   ar
    33    23    18   ar
@<TRIPOS>MOLECULE
*****
 30 33 0 0 0
SMALL
GASTEIGER

@<TRIPOS>ATOM
      1 N           2.9931   -0.4721   20.8335 N.pl3   1  UNL1       -0.2997
      2 C           1.7551    0.3185   20.5299 C.3     1  UNL1        0.1208
      3 C           1.2689    0.9287   21.8110 C.ar    1  UNL1        0.0336
      4 C           0.2033    1.7945   22.4151 C.ar    1  UNL1        0.0990
      5 N           0.4824    1.9160   23.8839 N.ar    1  UNL1       -0.2287
      6 N           1.7204    1.1254   24.1876 N.ar    1  UNL1       -0.1681
      7 C           2.2065    0.5152   22.9064 C.ar    1  UNL1        0.0960
      8 C           3.2721   -0.3505   22.3023 C.3     1  UNL1        0.1147
      9 C           5.5572   -1.3058   17.9215 C.ar    1  UNL1        0.2259
     10 C           4.7415   -0.5299   18.9125 C.ar    1  UNL1        0.0722
     11 C           3.8089   -1.2481   19.8424 C.ar    1  UNL1        0.0542
     12 C           3.6921   -2.7422   19.7810 C.ar    1  UNL1        0.0295
     13 C           4.5079   -3.5183   18.7899 C.ar    1  UNL1        0.0637
     14 C           4.3912   -5.0125   18.7285 C.3     1  UNL1        0.0522
     15 N           5.4405   -2.8000   17.8601 N.ar    1  UNL1       -0.2160
     16 C           6.3829    0.8991   16.8229 C.3     1  UNL1        0.2542
     17 O           6.4898   -0.5876   16.9916 O.3     1  UNL1       -0.4561
     18 C          -0.3334    2.6920   24.8751 C.ar    1  UNL1        0.0841
     19 C           0.3079    3.2215   26.1234 C.ar    1  UNL1        0.0192
     20 C          -0.5080    3.9974   27.1146 C.ar    1  UNL1        0.0029
     21 C          -1.9651    4.2439   26.8574 C.ar    1  UNL1        0.0184
     22 C          -2.6064    3.7145   25.6090 C.ar    1  UNL1        0.1072
     23 C          -1.7905    2.9385   24.6179 C.ar    1  UNL1        0.0375
     24 S          -4.0634    3.9609   25.3518 S.O2    1  UNL1        0.0105
     25 C          -5.5205    4.2073   25.0946 C.3     1  UNL1        0.1816
     26 O          -3.7873    4.0584   23.8806 O.2     1  UNL1       -0.1686
     27 O          -4.3396    3.8634   26.8230 O.2     1  UNL1       -0.1686
     28 C           4.4159   -0.9836   23.0379 C.3     1  UNL1        0.0240
     29 C           5.6488   -0.1837   23.3386 C.3     1  UNL1        0.0021
     30 C           4.3269   -2.4164   23.4727 C.3     1  UNL1        0.0021
@<TRIPOS>BOND
     1    16    17    1
     2    17     9    1
     3     9    10   ar
     4    10    11   ar
     5    11     1    1
     6     1     2    1
     7     2     3    1
     8     3     4   ar
     9     4     5   ar
    10     5    18    1
    11    18    19   ar
    12    19    20   ar
    13    20    21   ar
    14    21    22   ar
    15    22    24    1
    16    24    25    1
    17    24    26    2
    18    24    27    2
    19    22    23   ar
    20     5     6   ar
    21     6     7   ar
    22     7     8    1
    23     8    28    1
    24    28    29    1
    25    28    30    1
    26    11    12   ar
    27    12    13   ar
    28    13    14    1
    29    13    15   ar
    30    15     9   ar
    31     8     1    1
    32     7     3   ar
    33    23    18   ar
@<TRIPOS>MOLECULE
*****
 30 33 0 0 0
SMALL
GASTEIGER

@<TRIPOS>ATOM
      1 N           2.3448   -0.0237   20.0357 N.pl3   1  UNL1       -0.2997
      2 C           1.1377    0.5704   19.3723 C.3     1  UNL1        0.1208
      3 C           0.4573    1.4664   20.3643 C.ar    1  UNL1        0.0336
      4 C          -0.7092    2.3873   20.5673 C.ar    1  UNL1        0.0990
      5 N          -0.6436    2.9162   21.9694 N.ar    1  UNL1       -0.2287
      6 N           0.5635    2.3223   22.6329 N.ar    1  UNL1       -0.1681
      7 C           1.2439    1.4262   21.6409 C.ar    1  UNL1        0.0960
      8 C           2.4104    0.5054   21.4379 C.3     1  UNL1        0.1147
      9 C           5.4137   -1.4127   17.9376 C.ar    1  UNL1        0.2259
     10 C           4.4427   -0.4575   18.5659 C.ar    1  UNL1        0.0722
     11 C           3.3157   -0.9788   19.4075 C.ar    1  UNL1        0.0542
     12 C           3.1598   -2.4554   19.6207 C.ar    1  UNL1        0.0295
     13 C           4.1308   -3.4107   18.9925 C.ar    1  UNL1        0.0637
     14 C           3.9749   -4.8872   19.2057 C.3     1  UNL1        0.0522
     15 N           5.2577   -2.8893   18.1509 N.ar    1  UNL1       -0.2160
     16 C           6.5944    0.5628   16.7320 C.3     1  UNL1        0.2542
     17 O           6.5407   -0.8914   17.0960 O.3     1  UNL1       -0.4561
     18 C          -1.6146    3.8715   22.5977 C.ar    1  UNL1        0.0841
     19 C          -1.1100    5.0435   23.3862 C.ar    1  UNL1        0.0192
     20 C          -2.0810    5.9987   24.0145 C.ar    1  UNL1        0.0029
     21 C          -3.5566    5.7819   23.8543 C.ar    1  UNL1        0.0184
     22 C          -4.0612    4.6099   23.0658 C.ar    1  UNL1        0.1072
     23 C          -3.0901    3.6547   22.4375 C.ar    1  UNL1        0.0375
     24 S          -5.5367    4.3930   22.9056 S.O2    1  UNL1        0.0105
     25 C          -7.0123    4.1762   22.7454 C.3     1  UNL1        0.1816
     26 O          -5.2677    3.2639   21.9555 O.2     1  UNL1       -0.1686
     27 O          -5.8058    5.5222   23.8557 O.2     1  UNL1       -0.1686
     28 C           3.4585    0.1720   22.4579 C.3     1  UNL1        0.0240
     29 C           3.2452   -0.9701   23.4067 C.3     1  UNL1        0.0021
     30 C           4.7198    0.9806   22.5291 C.3     1  UNL1        0.0021
@<TRIPOS>BOND
     1    16    17    1
     2    17     9    1
     3     9    10   ar
     4    10    11   ar
     5    11     1    1
     6     1     2    1
     7     2     3    1
     8     3     4   ar
     9     4     5   ar
    10     5    18    1
    11    18    19   ar
    12    19    20   ar
    13    20    21   ar
    14    21    22   ar
    15    22    24    1
    16    24    25    1
    17    24    26    2
    18    24    27    2
    19    22    23   ar
    20     5     6   ar
    21     6     7   ar
    22     7     8    1
    23     8    28    1
    24    28    29    1
    25    28    30    1
    26    11    12   ar
    27    12    13   ar
    28    13    14    1
    29    13    15   ar
    30    15     9   ar
    31     8     1    1
    32     7     3   ar
    33    23    18   ar
@<TRIPOS>MOLECULE
*****
 30 33 0 0 0
SMALL
GASTEIGER

@<TRIPOS>ATOM
      1 N           2.3214   -0.6461   20.1291 N.pl3   1  UNL1       -0.2997
      2 C           1.0586   -0.2083   20.8101 C.3     1  UNL1        0.1208
      3 C           0.5506    1.0135   20.1036 C.ar    1  UNL1        0.0336
      4 C          -0.5439    2.0391   20.0879 C.ar    1  UNL1        0.0990
      5 N          -0.2715    2.9903   18.9605 N.ar    1  UNL1       -0.2287
      6 N           0.9912    2.5525   18.2794 N.ar    1  UNL1       -0.1681
      7 C           1.4993    1.3308   18.9859 C.ar    1  UNL1        0.0960
      8 C           2.5937    0.3051   19.0016 C.3     1  UNL1        0.1147
      9 C           4.5922   -3.1007   22.2663 C.ar    1  UNL1        0.2259
     10 C           3.7498   -1.9193   21.8866 C.ar    1  UNL1        0.0722
     11 C           3.1639   -1.8276   20.5087 C.ar    1  UNL1        0.0542
     12 C           3.4205   -2.9175   19.5107 C.ar    1  UNL1        0.0295
     13 C           4.2630   -4.0991   19.8903 C.ar    1  UNL1        0.0637
     14 C           4.5196   -5.1891   18.8923 C.3     1  UNL1        0.0522
     15 N           4.8489   -4.1907   21.2681 N.ar    1  UNL1       -0.2160
     16 C           6.4067   -4.0192   23.8831 C.3     1  UNL1        0.2542
     17 O           5.1782   -3.1924   23.6441 O.3     1  UNL1       -0.4561
     18 C          -1.1140    4.1719   18.5807 C.ar    1  UNL1        0.0841
     19 C          -0.4622    5.4789   18.2391 C.ar    1  UNL1        0.0192
     20 C          -1.3048    6.6605   17.8594 C.ar    1  UNL1        0.0029
     21 C          -2.7990    6.5349   17.8213 C.ar    1  UNL1        0.0184
     22 C          -3.4508    5.2279   18.1630 C.ar    1  UNL1        0.1072
     23 C          -2.6082    4.0464   18.5427 C.ar    1  UNL1        0.0375
     24 S          -4.9450    5.1023   18.1249 S.O2    1  UNL1        0.0105
     25 C          -6.4392    4.9766   18.0869 C.3     1  UNL1        0.1816
     26 O          -5.0763    6.5325   18.5575 O.2     1  UNL1       -0.1686
     27 O          -4.8137    3.6719   17.6924 O.2     1  UNL1       -0.1686
     28 C           3.7564    0.2418   18.0560 C.3     1  UNL1        0.0240
     29 C           3.7103   -0.6772   16.8712 C.3     1  UNL1        0.0021
     30 C           4.9650    1.0973   18.2950 C.3     1  UNL1        0.0021
@<TRIPOS>BOND
     1    16    17    1
     2    17     9    1
     3     9    10   ar
     4    10    11   ar
     5    11     1    1
     6     1     2    1
     7     2     3    1
     8     3     4   ar
     9     4     5   ar
    10     5    18    1
    11    18    19   ar
    12    19    20   ar
    13    20    21   ar
    14    21    22   ar
    15    22    24    1
    16    24    25    1
    17    24    26    2
    18    24    27    2
    19    22    23   ar
    20     5     6   ar
    21     6     7   ar
    22     7     8    1
    23     8    28    1
    24    28    29    1
    25    28    30    1
    26    11    12   ar
    27    12    13   ar
    28    13    14    1
    29    13    15   ar
    30    15     9   ar
    31     8     1    1
    32     7     3   ar
    33    23    18   ar
@<TRIPOS>MOLECULE
*****
 30 33 0 0 0
SMALL
GASTEIGER

@<TRIPOS>ATOM
      1 N           2.9890   -0.3590   26.6493 N.pl3   1  UNL1       -0.2997
      2 C           3.8998   -1.4960   26.2918 C.3     1  UNL1        0.1208
      3 C           3.9963   -1.5601   24.7963 C.ar    1  UNL1        0.0336
      4 C           4.6189   -2.3024   23.6512 C.ar    1  UNL1        0.0990
      5 N           4.1525   -1.6638   22.3766 N.ar    1  UNL1       -0.2287
      6 N           3.2418   -0.5268   22.7339 N.ar    1  UNL1       -0.1681
      7 C           3.1452   -0.4627   24.2295 C.ar    1  UNL1        0.0960
      8 C           2.5226    0.2796   25.3746 C.3     1  UNL1        0.1147
      9 C           0.7874    0.6438   29.7952 C.ar    1  UNL1        0.2259
     10 C           1.1654    0.2199   28.4070 C.ar    1  UNL1        0.0722
     11 C           2.6110    0.0649   28.0375 C.ar    1  UNL1        0.0542
     12 C           3.6784    0.3338   29.0564 C.ar    1  UNL1        0.0295
     13 C           3.3004    0.7578   30.4448 C.ar    1  UNL1        0.0637
     14 C           4.3678    1.0267   31.4637 C.3     1  UNL1        0.0522
     15 N           1.8549    0.9128   30.8141 N.ar    1  UNL1       -0.2160
     16 C          -1.7158    0.0957   29.3665 C.3     1  UNL1        0.2542
     17 O          -0.6582    0.7989   30.1646 O.3     1  UNL1       -0.4561
     18 C           4.5306   -2.0877   20.9883 C.ar    1  UNL1        0.0841
     19 C           4.4373   -3.5318   20.5935 C.ar    1  UNL1        0.0192
     20 C           4.8154   -3.9557   19.2051 C.ar    1  UNL1        0.0029
     21 C           5.2867   -2.9355   18.2116 C.ar    1  UNL1        0.0184
     22 C           5.3800   -1.4914   18.6064 C.ar    1  UNL1        0.1072
     23 C           5.0019   -1.0676   19.9948 C.ar    1  UNL1        0.0375
     24 S           5.8513   -0.4712   17.6130 S.O2    1  UNL1        0.0105
     25 C           6.3227    0.5490   16.6195 C.3     1  UNL1        0.1816
     26 O           4.8003    0.4842   18.0954 O.2     1  UNL1       -0.1686
     27 O           6.9023   -1.4266   17.1305 O.2     1  UNL1       -0.1686
     28 C           1.5963    1.4543   25.2645 C.3     1  UNL1        0.0240
     29 C           0.1556    1.2421   24.9048 C.3     1  UNL1        0.0021
     30 C           2.1108    2.8410   25.5140 C.3     1  UNL1        0.0021
@<TRIPOS>BOND
     1    16    17    1
     2    17     9    1
     3     9    10   ar
     4    10    11   ar
     5    11     1    1
     6     1     2    1
     7     2     3    1
     8     3     4   ar
     9     4     5   ar
    10     5    18    1
    11    18    19   ar
    12    19    20   ar
    13    20    21   ar
    14    21    22   ar
    15    22    24    1
    16    24    25    1
    17    24    26    2
    18    24    27    2
    19    22    23   ar
    20     5     6   ar
    21     6     7   ar
    22     7     8    1
    23     8    28    1
    24    28    29    1
    25    28    30    1
    26    11    12   ar
    27    12    13   ar
    28    13    14    1
    29    13    15   ar
    30    15     9   ar
    31     8     1    1
    32     7     3   ar
    33    23    18   ar
@<TRIPOS>MOLECULE
*****
 30 33 0 0 0
SMALL
GASTEIGER

@<TRIPOS>ATOM
      1 N           4.9424   -2.2960   21.7930 N.pl3   1  UNL1       -0.2997
      2 C           4.4605   -1.0981   22.5565 C.3     1  UNL1        0.1208
      3 C           3.4259   -0.4022   21.7226 C.ar    1  UNL1        0.0336
      4 C           2.4887    0.7681   21.6791 C.ar    1  UNL1        0.0990
      5 N           1.7520    0.7236   20.3732 N.ar    1  UNL1       -0.2287
      6 N           2.2338   -0.4742   19.6097 N.ar    1  UNL1       -0.1681
      7 C           3.2684   -1.1700   20.4436 C.ar    1  UNL1        0.0960
      8 C           4.2056   -2.3404   20.4871 C.3     1  UNL1        0.1147
      9 C           6.9692   -4.7957   24.1152 C.ar    1  UNL1        0.2259
     10 C           5.9327   -3.8146   23.6539 C.ar    1  UNL1        0.0722
     11 C           5.9790   -3.2771   22.2543 C.ar    1  UNL1        0.0542
     12 C           7.0619   -3.7207   21.3160 C.ar    1  UNL1        0.0295
     13 C           8.0986   -4.7019   21.7772 C.ar    1  UNL1        0.0637
     14 C           9.1815   -5.1455   20.8390 C.3     1  UNL1        0.0522
     15 N           8.0522   -5.2394   23.1768 N.ar    1  UNL1       -0.2160
     16 C           7.4805   -6.6931   25.8147 C.3     1  UNL1        0.2542
     17 O           6.9229   -5.3333   25.5149 O.3     1  UNL1       -0.4561
     18 C           0.7154    1.7048   19.9119 C.ar    1  UNL1        0.0841
     19 C           0.7339    2.2064   18.4984 C.ar    1  UNL1        0.0192
     20 C          -0.3028    3.1875   18.0371 C.ar    1  UNL1        0.0029
     21 C          -1.3579    3.6670   18.9893 C.ar    1  UNL1        0.0184
     22 C          -1.3765    3.1655   20.4028 C.ar    1  UNL1        0.1072
     23 C          -0.3398    2.1843   20.8641 C.ar    1  UNL1        0.0375
     24 S          -2.4316    3.6449   21.3551 S.O2    1  UNL1        0.0105
     25 C          -3.4866    4.1245   22.3074 C.3     1  UNL1        0.1816
     26 O          -3.4546    2.8123   20.6410 O.2     1  UNL1       -0.1686
     27 O          -1.4084    4.4777   22.0693 O.2     1  UNL1       -0.1686
     28 C           4.3761   -3.3738   19.4133 C.3     1  UNL1        0.0240
     29 C           3.6824   -4.6987   19.5304 C.3     1  UNL1        0.0021
     30 C           5.2402   -3.0824   18.2224 C.3     1  UNL1        0.0021
@<TRIPOS>BOND
     1    16    17    1
     2    17     9    1
     3     9    10   ar
     4    10    11   ar
     5    11     1    1
     6     1     2    1
     7     2     3    1
     8     3     4   ar
     9     4     5   ar
    10     5    18    1
    11    18    19   ar
    12    19    20   ar
    13    20    21   ar
    14    21    22   ar
    15    22    24    1
    16    24    25    1
    17    24    26    2
    18    24    27    2
    19    22    23   ar
    20     5     6   ar
    21     6     7   ar
    22     7     8    1
    23     8    28    1
    24    28    29    1
    25    28    30    1
    26    11    12   ar
    27    12    13   ar
    28    13    14    1
    29    13    15   ar
    30    15     9   ar
    31     8     1    1
    32     7     3   ar
    33    23    18   ar
@<TRIPOS>MOLECULE
*****
 30 33 0 0 0
SMALL
GASTEIGER

@<TRIPOS>ATOM
      1 N           2.4415    0.6795   27.8666 N.pl3   1  UNL1       -0.2997
      2 C           3.5052    0.3115   26.8750 C.3     1  UNL1        0.1208
      3 C           2.9090    0.4001   25.5014 C.ar    1  UNL1        0.0336
      4 C           3.1980    0.2274   24.0397 C.ar    1  UNL1        0.0990
      5 N           1.9445    0.5435   23.2789 N.ar    1  UNL1       -0.2287
      6 N           0.8808    0.9115   24.2705 N.ar    1  UNL1       -0.1681
      7 C           1.4769    0.8229   25.6441 C.ar    1  UNL1        0.0960
      8 C           1.1879    0.9955   27.1058 C.3     1  UNL1        0.1147
      9 C           3.1379   -0.4757   31.5989 C.ar    1  UNL1        0.2259
     10 C           2.9764   -0.5199   30.1084 C.ar    1  UNL1        0.0722
     11 C           2.6030    0.7237   29.3572 C.ar    1  UNL1        0.0542
     12 C           2.3910    2.0113   30.0967 C.ar    1  UNL1        0.0295
     13 C           2.5525    2.0556   31.5874 C.ar    1  UNL1        0.0637
     14 C           2.3405    3.3433   32.3269 C.3     1  UNL1        0.0522
     15 N           2.9259    0.8121   32.3385 N.ar    1  UNL1       -0.2160
     16 C           4.4540   -1.6377   33.5140 C.3     1  UNL1        0.2542
     17 O           3.5114   -1.7193   32.3501 O.3     1  UNL1       -0.4561
     18 C           1.7830    0.4993   21.7883 C.ar    1  UNL1        0.0841
     19 C           0.6031    1.1624   21.1418 C.ar    1  UNL1        0.0192
     20 C           0.4416    1.1182   19.6511 C.ar    1  UNL1        0.0029
     21 C           1.4601    0.4109   18.8070 C.ar    1  UNL1        0.0184
     22 C           2.6400   -0.2522   19.4535 C.ar    1  UNL1        0.1072
     23 C           2.8015   -0.2080   20.9442 C.ar    1  UNL1        0.0375
     24 S           3.6585   -0.9595   18.6095 S.O2    1  UNL1        0.0105
     25 C           4.6770   -1.6668   17.7656 C.3     1  UNL1        0.1816
     26 O           3.1406   -0.2527   17.3921 O.2     1  UNL1       -0.1686
     27 O           4.1765   -1.6663   19.8270 O.2     1  UNL1       -0.1686
     28 C          -0.1242    1.4113   27.7020 C.3     1  UNL1        0.0240
     29 C          -0.9454    0.4203   28.4726 C.3     1  UNL1        0.0021
     30 C          -0.6151    2.8179   27.5278 C.3     1  UNL1        0.0021
@<TRIPOS>BOND
     1    16    17    1
     2    17     9    1
     3     9    10   ar
     4    10    11   ar
     5    11     1    1
     6     1     2    1
     7     2     3    1
     8     3     4   ar
     9     4     5   ar
    10     5    18    1
    11    18    19   ar
    12    19    20   ar
    13    20    21   ar
    14    21    22   ar
    15    22    24    1
    16    24    25    1
    17    24    26    2
    18    24    27    2
    19    22    23   ar
    20     5     6   ar
    21     6     7   ar
    22     7     8    1
    23     8    28    1
    24    28    29    1
    25    28    30    1
    26    11    12   ar
    27    12    13   ar
    28    13    14    1
    29    13    15   ar
    30    15     9   ar
    31     8     1    1
    32     7     3   ar
    33    23    18   ar
