@<TRIPOS>MOLECULE
*****
 27 29 0 0 0
SMALL
GASTEIGER

@<TRIPOS>ATOM
      1 C          -1.4029    2.8536   26.0578 C.ar    1  UNL1        0.0032
      2 C          -0.9218    2.6516   27.4642 C.ar    1  UNL1        0.0369
      3 C           0.2974    1.8184   27.7273 C.ar    1  UNL1        0.1387
      4 C           1.0355    1.1872   26.5841 C.ar    1  UNL1        0.0369
      5 C           0.5544    1.3892   25.1778 C.ar    1  UNL1        0.0030
      6 C          -0.6649    2.2224   24.9147 C.ar    1  UNL1        0.0002
      7 C           1.2925    0.7580   24.0346 C.ar    1  UNL1        0.0001
      8 C           2.4780   -0.1214   24.3015 C.ar    1  UNL1        0.0000
      9 C           3.2160   -0.7525   23.1583 C.ar    1  UNL1        0.0001
     10 C           2.7686   -0.5043   21.7483 C.ar    1  UNL1        0.0030
     11 C           3.5067   -1.1355   20.6050 C.ar    1  UNL1        0.0369
     12 C           3.0592   -0.8872   19.1950 C.ar    1  UNL1        0.1387
     13 C           1.8736   -0.0078   18.9282 C.ar    1  UNL1        0.0369
     14 C           1.1356    0.6234   20.0714 C.ar    1  UNL1        0.0031
     15 C           1.5831    0.3751   21.4814 C.ar    1  UNL1        0.0002
     16 C           0.8450    1.0063   22.6246 C.ar    1  UNL1        0.0000
     17 O           3.7972   -1.5184   18.0518 O.3     1  UNL1       -0.4714
     18 C           3.8084   -0.8529   16.7075 C.3     1  UNL1        0.2525
     19 C          -3.6748    3.8311   26.8536 C.2     1  UNL1        0.0577
     20 C          -2.6222    3.6868   25.7947 C.2     1  UNL1        0.0048
     21 C          -6.7821    5.4453   24.9857 C.3     1  UNL1        0.1109
     22 N          -5.5629    4.6121   25.2488 N.am    1  UNL1       -0.2992
     23 C          -4.8941    4.6642   26.5904 C.2     1  UNL1        0.2460
     24 O          -5.4445    5.5496   27.6690 O.2     1  UNL1       -0.2701
     25 H          -5.2016    4.0310   24.5410 H       1  UNL1        0.1498
     26 O           0.7786    1.6164   29.1336 O.3     1  UNL1       -0.4714
     27 C           1.3695    0.2997   29.5423 C.3     1  UNL1        0.2525
@<TRIPOS>BOND
     1    21    22    1
     2    22    23   am
     3    23    24    2
     4    23    19    1
     5    19    20    2
     6    20     1    1
     7     1     2   ar
     8     2     3   ar
     9     3    26    1
    10    26    27    1
    11     3     4   ar
    12     4     5   ar
    13     5     7    1
    14     7     8   ar
    15     8     9   ar
    16     9    10   ar
    17    10    11   ar
    18    11    12   ar
    19    12    17    1
    20    17    18    1
    21    12    13   ar
    22    13    14   ar
    23    14    15   ar
    24    15    16   ar
    25     5     6   ar
    26     6     1   ar
    27    16     7   ar
    28    15    10   ar
    29    22    25    1
@<TRIPOS>MOLECULE
*****
 27 29 0 0 0
SMALL
GASTEIGER

@<TRIPOS>ATOM
      1 C          -9.8664  -19.2819   21.4982 C.ar    1  UNL1        0.0032
      2 C         -10.3819  -19.7543   20.1710 C.ar    1  UNL1        0.0369
      3 C          -9.4220  -20.0630   19.0605 C.ar    1  UNL1        0.1387
      4 C          -7.9467  -19.8993   19.2771 C.ar    1  UNL1        0.0369
      5 C          -7.4314  -19.4270   20.6042 C.ar    1  UNL1        0.0030
      6 C          -8.3912  -19.1183   21.7148 C.ar    1  UNL1        0.0002
      7 C          -5.9561  -19.2633   20.8208 C.ar    1  UNL1        0.0001
      8 C          -5.3706  -19.4734   22.1857 C.ar    1  UNL1        0.0000
      9 C          -3.8954  -19.3097   22.4023 C.ar    1  UNL1        0.0001
     10 C          -3.0057  -18.9360   21.2539 C.ar    1  UNL1        0.0030
     11 C          -1.5304  -18.7723   21.4705 C.ar    1  UNL1        0.0369
     12 C          -0.6407  -18.3986   20.3221 C.ar    1  UNL1        0.1387
     13 C          -1.2263  -18.1885   18.9572 C.ar    1  UNL1        0.0369
     14 C          -2.7015  -18.3522   18.7406 C.ar    1  UNL1        0.0031
     15 C          -3.5912  -18.7259   19.8890 C.ar    1  UNL1        0.0002
     16 C          -5.0664  -18.8896   19.6724 C.ar    1  UNL1        0.0000
     17 O           0.8345  -18.2349   20.5387 O.3     1  UNL1       -0.4714
     18 C           1.5077  -16.9451   20.1733 C.3     1  UNL1        0.2525
     19 C         -12.0328  -18.1226   22.3425 C.2     1  UNL1        0.0577
     20 C         -10.8263  -18.9732   22.6088 C.2     1  UNL1        0.0048
     21 C         -14.1462  -18.4859   25.6819 C.3     1  UNL1        0.1109
     22 N         -13.1863  -18.7946   24.5714 N.am    1  UNL1       -0.2992
     23 C         -12.9927  -17.8139   23.4531 C.2     1  UNL1        0.2460
     24 O         -13.7590  -16.5244   23.4453 O.2     1  UNL1       -0.2701
     25 H         -12.6833  -19.6409   24.5765 H       1  UNL1        0.1498
     26 O          -9.9373  -20.5354   17.7334 O.3     1  UNL1       -0.4714
     27 C          -9.1942  -21.5943   16.9740 C.3     1  UNL1        0.2525
@<TRIPOS>BOND
     1    21    22    1
     2    22    23   am
     3    23    24    2
     4    23    19    1
     5    19    20    2
     6    20     1    1
     7     1     2   ar
     8     2     3   ar
     9     3    26    1
    10    26    27    1
    11     3     4   ar
    12     4     5   ar
    13     5     7    1
    14     7     8   ar
    15     8     9   ar
    16     9    10   ar
    17    10    11   ar
    18    11    12   ar
    19    12    17    1
    20    17    18    1
    21    12    13   ar
    22    13    14   ar
    23    14    15   ar
    24    15    16   ar
    25     5     6   ar
    26     6     1   ar
    27    16     7   ar
    28    15    10   ar
    29    22    25    1
@<TRIPOS>MOLECULE
*****
 27 29 0 0 0
SMALL
GASTEIGER

@<TRIPOS>ATOM
      1 C           6.5631   -4.0021   24.8700 C.ar    1  UNL1        0.0032
      2 C           7.2928   -4.6293   23.7192 C.ar    1  UNL1        0.0369
      3 C           6.9181   -4.2747   22.3107 C.ar    1  UNL1        0.1387
      4 C           5.8136   -3.2929   22.0530 C.ar    1  UNL1        0.0369
      5 C           5.0839   -2.6658   23.2038 C.ar    1  UNL1        0.0030
      6 C           5.4586   -3.0205   24.6123 C.ar    1  UNL1        0.0002
      7 C           3.9794   -1.6841   22.9461 C.ar    1  UNL1        0.0001
      8 C           3.4981   -0.7898   24.0500 C.ar    1  UNL1        0.0000
      9 C           2.3937    0.1918   23.7923 C.ar    1  UNL1        0.0001
     10 C           1.7705    0.2792   22.4307 C.ar    1  UNL1        0.0030
     11 C           0.6660    1.2610   22.1730 C.ar    1  UNL1        0.0369
     12 C           0.0428    1.3484   20.8114 C.ar    1  UNL1        0.1387
     13 C           0.5241    0.4541   19.7074 C.ar    1  UNL1        0.0369
     14 C           1.6286   -0.5276   19.9651 C.ar    1  UNL1        0.0031
     15 C           2.2517   -0.6150   21.3268 C.ar    1  UNL1        0.0002
     16 C           3.3562   -1.5967   21.5845 C.ar    1  UNL1        0.0000
     17 O          -1.0617    2.3301   20.5536 O.3     1  UNL1       -0.4714
     18 C          -1.4574    3.3103   21.6179 C.3     1  UNL1        0.2525
     19 C           6.9346   -5.7913   26.7169 C.2     1  UNL1        0.0577
     20 C           6.9378   -4.3568   26.2785 C.2     1  UNL1        0.0048
     21 C           7.0053   -5.8190   30.6848 C.3     1  UNL1        0.1109
     22 N           6.6305   -5.4644   29.2763 N.am    1  UNL1       -0.2992
     23 C           7.3093   -6.1459   28.1254 C.2     1  UNL1        0.2460
     24 O           8.3630   -7.1821   28.3829 O.2     1  UNL1       -0.2701
     25 H           5.9390   -4.7843   29.1073 H       1  UNL1        0.1498
     26 O           7.6478   -4.9017   21.1600 O.3     1  UNL1       -0.4714
     27 C           9.1465   -4.8644   21.1124 C.3     1  UNL1        0.2525
@<TRIPOS>BOND
     1    21    22    1
     2    22    23   am
     3    23    24    2
     4    23    19    1
     5    19    20    2
     6    20     1    1
     7     1     2   ar
     8     2     3   ar
     9     3    26    1
    10    26    27    1
    11     3     4   ar
    12     4     5   ar
    13     5     7    1
    14     7     8   ar
    15     8     9   ar
    16     9    10   ar
    17    10    11   ar
    18    11    12   ar
    19    12    17    1
    20    17    18    1
    21    12    13   ar
    22    13    14   ar
    23    14    15   ar
    24    15    16   ar
    25     5     6   ar
    26     6     1   ar
    27    16     7   ar
    28    15    10   ar
    29    22    25    1
@<TRIPOS>MOLECULE
*****
 27 29 0 0 0
SMALL
GASTEIGER

@<TRIPOS>ATOM
      1 C          -0.6257    2.5884   25.4017 C.ar    1  UNL1        0.0032
      2 C          -1.3954    3.7114   24.7720 C.ar    1  UNL1        0.0369
      3 C          -1.4022    3.8722   23.2806 C.ar    1  UNL1        0.1387
      4 C          -0.6391    2.9101   22.4191 C.ar    1  UNL1        0.0369
      5 C           0.1306    1.7873   23.0489 C.ar    1  UNL1        0.0030
      6 C           0.1373    1.6264   24.5402 C.ar    1  UNL1        0.0002
      7 C           0.8936    0.8252   22.1873 C.ar    1  UNL1        0.0001
      8 C           0.4548    0.5721   20.7754 C.ar    1  UNL1        0.0000
      9 C           1.2179   -0.3899   19.9140 C.ar    1  UNL1        0.0001
     10 C           2.4197   -1.0989   20.4644 C.ar    1  UNL1        0.0030
     11 C           3.1828   -2.0610   19.6028 C.ar    1  UNL1        0.0369
     12 C           4.3846   -2.7700   20.1532 C.ar    1  UNL1        0.1387
     13 C           4.8234   -2.5169   21.5651 C.ar    1  UNL1        0.0369
     14 C           4.0604   -1.5549   22.4266 C.ar    1  UNL1        0.0031
     15 C           2.8585   -0.8459   21.8762 C.ar    1  UNL1        0.0002
     16 C           2.0955    0.1162   22.7377 C.ar    1  UNL1        0.0000
     17 O           5.1476   -3.7321   19.2917 O.3     1  UNL1       -0.4714
     18 C           4.5190   -5.0297   18.8781 C.3     1  UNL1        0.2525
     19 C           0.1226    1.2847   27.5208 C.2     1  UNL1        0.0577
     20 C          -0.6190    2.4276   26.8931 C.2     1  UNL1        0.0048
     21 C           0.4857    2.1275   31.3819 C.3     1  UNL1        0.1109
     22 N           0.4789    2.2884   29.8906 N.am    1  UNL1       -0.2992
     23 C           0.1293    1.1239   29.0122 C.2     1  UNL1        0.2460
     24 O          -0.2137   -0.2016   29.6251 O.2     1  UNL1       -0.2701
     25 H           0.7040    3.1583   29.4883 H       1  UNL1        0.1498
     26 O          -2.1719    4.9951   22.6509 O.3     1  UNL1       -0.4714
     27 C          -3.0028    5.9064   23.5048 C.3     1  UNL1        0.2525
@<TRIPOS>BOND
     1    21    22    1
     2    22    23   am
     3    23    24    2
     4    23    19    1
     5    19    20    2
     6    20     1    1
     7     1     2   ar
     8     2     3   ar
     9     3    26    1
    10    26    27    1
    11     3     4   ar
    12     4     5   ar
    13     5     7    1
    14     7     8   ar
    15     8     9   ar
    16     9    10   ar
    17    10    11   ar
    18    11    12   ar
    19    12    17    1
    20    17    18    1
    21    12    13   ar
    22    13    14   ar
    23    14    15   ar
    24    15    16   ar
    25     5     6   ar
    26     6     1   ar
    27    16     7   ar
    28    15    10   ar
    29    22    25    1
@<TRIPOS>MOLECULE
*****
 27 29 0 0 0
SMALL
GASTEIGER

@<TRIPOS>ATOM
      1 C          -0.9808    3.0971   26.2605 C.ar    1  UNL1        0.0032
      2 C          -0.3325    2.7613   27.5710 C.ar    1  UNL1        0.0369
      3 C           0.8115    1.7922   27.6152 C.ar    1  UNL1        0.1387
      4 C           1.3074    1.1589   26.3489 C.ar    1  UNL1        0.0369
      5 C           0.6591    1.4947   25.0386 C.ar    1  UNL1        0.0030
      6 C          -0.4849    2.4638   24.9944 C.ar    1  UNL1        0.0002
      7 C           1.1550    0.8615   23.7724 C.ar    1  UNL1        0.0001
      8 C           0.5347    1.2292   22.4571 C.ar    1  UNL1        0.0000
      9 C           1.0306    0.5960   21.1910 C.ar    1  UNL1        0.0001
     10 C           2.1466   -0.4050   21.2402 C.ar    1  UNL1        0.0030
     11 C           2.6425   -1.0383   19.9740 C.ar    1  UNL1        0.0369
     12 C           3.7585   -2.0393   20.0232 C.ar    1  UNL1        0.1387
     13 C           4.3788   -2.4070   21.3386 C.ar    1  UNL1        0.0369
     14 C           3.8829   -1.7738   22.6047 C.ar    1  UNL1        0.0031
     15 C           2.7669   -0.7728   22.5555 C.ar    1  UNL1        0.0002
     16 C           2.2710   -0.1395   23.8216 C.ar    1  UNL1        0.0000
     17 O           4.2544   -2.6725   18.7571 O.3     1  UNL1       -0.4714
     18 C           5.6178   -2.3322   18.2322 C.3     1  UNL1        0.2525
     19 C          -3.4959    3.6278   26.6386 C.2     1  UNL1        0.0577
     20 C          -2.1248    4.0662   26.2163 C.2     1  UNL1        0.0048
     21 C          -6.7198    5.5686   25.3779 C.3     1  UNL1        0.1109
     22 N          -5.5757    4.5995   25.4221 N.am    1  UNL1       -0.2992
     23 C          -4.6399    4.5969   26.5944 C.2     1  UNL1        0.2460
     24 O          -4.8481    5.5634   27.7225 O.2     1  UNL1       -0.2701
     25 H          -5.4391    3.9652   24.6817 H       1  UNL1        0.1498
     26 O           1.4597    1.4563   28.9255 O.3     1  UNL1       -0.4714
     27 C           1.7022    0.0234   29.2968 C.3     1  UNL1        0.2525
@<TRIPOS>BOND
     1    21    22    1
     2    22    23   am
     3    23    24    2
     4    23    19    1
     5    19    20    2
     6    20     1    1
     7     1     2   ar
     8     2     3   ar
     9     3    26    1
    10    26    27    1
    11     3     4   ar
    12     4     5   ar
    13     5     7    1
    14     7     8   ar
    15     8     9   ar
    16     9    10   ar
    17    10    11   ar
    18    11    12   ar
    19    12    17    1
    20    17    18    1
    21    12    13   ar
    22    13    14   ar
    23    14    15   ar
    24    15    16   ar
    25     5     6   ar
    26     6     1   ar
    27    16     7   ar
    28    15    10   ar
    29    22    25    1
@<TRIPOS>MOLECULE
*****
 27 29 0 0 0
SMALL
GASTEIGER

@<TRIPOS>ATOM
      1 C           6.6271   -3.6420   25.2477 C.ar    1  UNL1        0.0032
      2 C           7.5429   -4.5216   24.4491 C.ar    1  UNL1        0.0369
      3 C           7.3715   -4.6297   22.9628 C.ar    1  UNL1        0.1387
      4 C           6.2843   -3.8582   22.2752 C.ar    1  UNL1        0.0369
      5 C           5.3686   -2.9786   23.0738 C.ar    1  UNL1        0.0030
      6 C           5.5400   -2.8705   24.5600 C.ar    1  UNL1        0.0002
      7 C           4.2813   -2.2071   22.3861 C.ar    1  UNL1        0.0001
      8 C           3.9225   -2.5220   20.9642 C.ar    1  UNL1        0.0000
      9 C           2.8353   -1.7505   20.2766 C.ar    1  UNL1        0.0001
     10 C           2.1070   -0.6640   21.0110 C.ar    1  UNL1        0.0030
     11 C           1.0198    0.1075   20.3233 C.ar    1  UNL1        0.0369
     12 C           0.2915    1.1939   21.0577 C.ar    1  UNL1        0.1387
     13 C           0.6505    1.5088   22.4798 C.ar    1  UNL1        0.0369
     14 C           1.7376    0.7373   23.1673 C.ar    1  UNL1        0.0031
     15 C           2.4659   -0.3491   22.4329 C.ar    1  UNL1        0.0002
     16 C           3.5531   -1.1207   23.1205 C.ar    1  UNL1        0.0000
     17 O          -0.7956    1.9654   20.3702 O.3     1  UNL1       -0.4714
     18 C          -1.4623    3.1107   21.0731 C.3     1  UNL1        0.2525
     19 C           6.7179   -4.7634   27.5895 C.2     1  UNL1        0.0577
     20 C           6.7985   -3.5339   26.7339 C.2     1  UNL1        0.0048
     21 C           7.0407   -5.7835   31.4112 C.3     1  UNL1        0.1109
     22 N           6.8692   -5.8916   29.9250 N.am    1  UNL1       -0.2992
     23 C           6.8894   -4.6553   29.0758 C.2     1  UNL1        0.2460
     24 O           7.0810   -3.3108   29.7129 O.2     1  UNL1       -0.2701
     25 H           6.7435   -6.7739   29.5068 H       1  UNL1        0.1498
     26 O           8.2872   -5.5093   22.1642 O.3     1  UNL1       -0.4714
     27 C           8.9426   -6.6933   22.8111 C.3     1  UNL1        0.2525
@<TRIPOS>BOND
     1    21    22    1
     2    22    23   am
     3    23    24    2
     4    23    19    1
     5    19    20    2
     6    20     1    1
     7     1     2   ar
     8     2     3   ar
     9     3    26    1
    10    26    27    1
    11     3     4   ar
    12     4     5   ar
    13     5     7    1
    14     7     8   ar
    15     8     9   ar
    16     9    10   ar
    17    10    11   ar
    18    11    12   ar
    19    12    17    1
    20    17    18    1
    21    12    13   ar
    22    13    14   ar
    23    14    15   ar
    24    15    16   ar
    25     5     6   ar
    26     6     1   ar
    27    16     7   ar
    28    15    10   ar
    29    22    25    1
@<TRIPOS>MOLECULE
*****
 27 29 0 0 0
SMALL
GASTEIGER

@<TRIPOS>ATOM
      1 C          -2.3159    4.2370   20.0240 C.ar    1  UNL1        0.0032
      2 C          -1.9667    5.2974   19.0221 C.ar    1  UNL1        0.0369
      3 C          -0.7665    5.1283   18.1385 C.ar    1  UNL1        0.1387
      4 C           0.0846    3.8987   18.2567 C.ar    1  UNL1        0.0369
      5 C          -0.2646    2.8383   19.2585 C.ar    1  UNL1        0.0030
      6 C          -1.4648    3.0075   20.1422 C.ar    1  UNL1        0.0002
      7 C           0.5865    1.6088   19.3768 C.ar    1  UNL1        0.0001
      8 C           0.3191    0.6136   20.4667 C.ar    1  UNL1        0.0000
      9 C           1.1702   -0.6159   20.5849 C.ar    1  UNL1        0.0001
     10 C           2.2885   -0.8502   19.6131 C.ar    1  UNL1        0.0030
     11 C           3.1396   -2.0798   19.7314 C.ar    1  UNL1        0.0369
     12 C           4.2579   -2.3141   18.7596 C.ar    1  UNL1        0.1387
     13 C           4.5253   -1.3189   17.6696 C.ar    1  UNL1        0.0369
     14 C           3.6742   -0.0894   17.5514 C.ar    1  UNL1        0.0031
     15 C           2.5559    0.1449   18.5232 C.ar    1  UNL1        0.0002
     16 C           1.7048    1.3745   18.4050 C.ar    1  UNL1        0.0000
     17 O           5.1090   -3.5436   18.8778 O.3     1  UNL1       -0.4714
     18 C           4.4702   -4.9009   18.8772 C.3     1  UNL1        0.2525
     19 C          -3.8016    3.4024   21.9852 C.2     1  UNL1        0.0577
     20 C          -3.5161    4.4062   20.9076 C.2     1  UNL1        0.0048
     21 C          -7.4607    4.3420   23.2009 C.3     1  UNL1        0.1109
     22 N          -6.2605    4.1728   22.3172 N.am    1  UNL1       -0.2992
     23 C          -5.0018    3.5716   22.8688 C.2     1  UNL1        0.2460
     24 O          -4.9433    3.1396   24.3041 O.2     1  UNL1       -0.2701
     25 H          -6.2989    4.4563   21.3752 H       1  UNL1        0.1498
     26 O          -0.4173    6.1886   17.1366 O.3     1  UNL1       -0.4714
     27 C           0.9491    6.8074   17.1449 C.3     1  UNL1        0.2525
@<TRIPOS>BOND
     1    21    22    1
     2    22    23   am
     3    23    24    2
     4    23    19    1
     5    19    20    2
     6    20     1    1
     7     1     2   ar
     8     2     3   ar
     9     3    26    1
    10    26    27    1
    11     3     4   ar
    12     4     5   ar
    13     5     7    1
    14     7     8   ar
    15     8     9   ar
    16     9    10   ar
    17    10    11   ar
    18    11    12   ar
    19    12    17    1
    20    17    18    1
    21    12    13   ar
    22    13    14   ar
    23    14    15   ar
    24    15    16   ar
    25     5     6   ar
    26     6     1   ar
    27    16     7   ar
    28    15    10   ar
    29    22    25    1
@<TRIPOS>MOLECULE
*****
 27 29 0 0 0
SMALL
GASTEIGER

@<TRIPOS>ATOM
      1 C           5.5744   -0.0033   35.8472 C.ar    1  UNL1        0.0032
      2 C           6.9048    0.4895   36.3345 C.ar    1  UNL1        0.0369
      3 C           8.1301    0.2991   35.4905 C.ar    1  UNL1        0.1387
      4 C           8.0250   -0.3840   34.1591 C.ar    1  UNL1        0.0369
      5 C           6.6947   -0.8767   33.6719 C.ar    1  UNL1        0.0030
      6 C           5.4694   -0.6863   34.5159 C.ar    1  UNL1        0.0002
      7 C           6.5896   -1.5599   32.3405 C.ar    1  UNL1        0.0001
      8 C           6.1868   -0.7775   31.1258 C.ar    1  UNL1        0.0000
      9 C           6.0818   -1.4606   29.7946 C.ar    1  UNL1        0.0001
     10 C           6.3795   -2.9261   29.6781 C.ar    1  UNL1        0.0030
     11 C           6.2745   -3.6093   28.3467 C.ar    1  UNL1        0.0369
     12 C           6.5722   -5.0748   28.2302 C.ar    1  UNL1        0.1387
     13 C           6.9750   -5.8572   29.4450 C.ar    1  UNL1        0.0369
     14 C           7.0801   -5.1740   30.7763 C.ar    1  UNL1        0.0031
     15 C           6.7823   -3.7085   30.8928 C.ar    1  UNL1        0.0002
     16 C           6.8874   -3.0254   32.2240 C.ar    1  UNL1        0.0000
     17 O           6.4672   -5.7579   26.8990 O.3     1  UNL1       -0.4714
     18 C           7.0411   -5.1078   25.6750 C.3     1  UNL1        0.2525
     19 C           4.3926    1.0989   37.8815 C.2     1  UNL1        0.0577
     20 C           4.3491    0.1871   36.6912 C.2     1  UNL1        0.0048
     21 C           0.9757    0.3475   39.7552 C.3     1  UNL1        0.1109
     22 N           2.2011    0.1571   38.9112 N.am    1  UNL1       -0.2992
     23 C           3.1672    1.2893   38.7256 C.2     1  UNL1        0.2460
     24 O           2.9082    2.6120   39.3840 O.2     1  UNL1       -0.2701
     25 H           2.3711   -0.7110   38.4791 H       1  UNL1        0.1498
     26 O           9.4604    0.7918   35.9777 O.3     1  UNL1       -0.4714
     27 C           9.5356    1.6766   37.1866 C.3     1  UNL1        0.2525
@<TRIPOS>BOND
     1    21    22    1
     2    22    23   am
     3    23    24    2
     4    23    19    1
     5    19    20    2
     6    20     1    1
     7     1     2   ar
     8     2     3   ar
     9     3    26    1
    10    26    27    1
    11     3     4   ar
    12     4     5   ar
    13     5     7    1
    14     7     8   ar
    15     8     9   ar
    16     9    10   ar
    17    10    11   ar
    18    11    12   ar
    19    12    17    1
    20    17    18    1
    21    12    13   ar
    22    13    14   ar
    23    14    15   ar
    24    15    16   ar
    25     5     6   ar
    26     6     1   ar
    27    16     7   ar
    28    15    10   ar
    29    22    25    1
@<TRIPOS>MOLECULE
*****
 27 29 0 0 0
SMALL
GASTEIGER

@<TRIPOS>ATOM
      1 C          -0.0828    1.9309   27.2622 C.ar    1  UNL1        0.0032
      2 C          -1.3284    2.7462   27.0783 C.ar    1  UNL1        0.0369
      3 C          -1.8353    3.0402   25.6975 C.ar    1  UNL1        0.1387
      4 C          -1.0966    2.5188   24.5006 C.ar    1  UNL1        0.0369
      5 C           0.1489    1.7034   24.6845 C.ar    1  UNL1        0.0030
      6 C           0.6558    1.4095   26.0653 C.ar    1  UNL1        0.0002
      7 C           0.8875    1.1820   23.4876 C.ar    1  UNL1        0.0001
      8 C           2.1240    0.3530   23.6718 C.ar    1  UNL1        0.0000
      9 C           2.8626   -0.1684   22.4749 C.ar    1  UNL1        0.0001
     10 C           2.3647    0.1392   21.0938 C.ar    1  UNL1        0.0030
     11 C           3.1034   -0.3822   19.8969 C.ar    1  UNL1        0.0369
     12 C           2.6055   -0.0747   18.5157 C.ar    1  UNL1        0.1387
     13 C           1.3690    0.7543   18.3315 C.ar    1  UNL1        0.0369
     14 C           0.6304    1.2757   19.5284 C.ar    1  UNL1        0.0031
     15 C           1.1283    0.9682   20.9095 C.ar    1  UNL1        0.0002
     16 C           0.3897    1.4895   22.1064 C.ar    1  UNL1        0.0000
     17 O           3.3441   -0.5961   17.3188 O.3     1  UNL1       -0.4714
     18 C           4.7997   -0.2809   17.1398 C.3     1  UNL1        0.2525
     19 C           1.5104    0.6220   28.8429 C.2     1  UNL1        0.0577
     20 C           0.4241    1.6369   28.6430 C.2     1  UNL1        0.0048
     21 C           3.5961   -0.9956   31.8065 C.3     1  UNL1        0.1109
     22 N           3.0892   -0.7017   30.4257 N.am    1  UNL1       -0.2992
     23 C           2.0174    0.3280   30.2237 C.2     1  UNL1        0.2460
     24 O           1.4524    1.0638   31.4025 O.2     1  UNL1       -0.2701
     25 H           3.4600   -1.1846   29.6520 H       1  UNL1        0.1498
     26 O          -3.0808    3.8555   25.5136 O.3     1  UNL1       -0.4714
     27 C          -3.9489    4.1756   26.6943 C.3     1  UNL1        0.2525
@<TRIPOS>BOND
     1    21    22    1
     2    22    23   am
     3    23    24    2
     4    23    19    1
     5    19    20    2
     6    20     1    1
     7     1     2   ar
     8     2     3   ar
     9     3    26    1
    10    26    27    1
    11     3     4   ar
    12     4     5   ar
    13     5     7    1
    14     7     8   ar
    15     8     9   ar
    16     9    10   ar
    17    10    11   ar
    18    11    12   ar
    19    12    17    1
    20    17    18    1
    21    12    13   ar
    22    13    14   ar
    23    14    15   ar
    24    15    16   ar
    25     5     6   ar
    26     6     1   ar
    27    16     7   ar
    28    15    10   ar
    29    22    25    1
