@<TRIPOS>MOLECULE
*****
 30 34 0 0 0
SMALL
GASTEIGER

@<TRIPOS>ATOM
      1 C          -6.7535    5.8118   25.7449 C.3     1  UNL1        0.0899
      2 N          -6.3239    5.3057   24.3998 N.3     1  UNL1       -0.2673
      3 C          -7.3105    5.2438   23.2716 C.3     1  UNL1        0.0787
      4 C          -6.8809    4.7377   21.9265 C.3     1  UNL1        0.0608
      5 C          -5.4647    4.2936   21.7095 C.ar    1  UNL1        0.0358
      6 C          -4.4781    4.3556   22.8377 C.ar    1  UNL1        0.0070
      7 C          -3.1596    3.8530   22.3286 C.ar    1  UNL1        0.0143
      8 C          -1.8249    3.6865   22.9923 C.ar    1  UNL1        0.0027
      9 C          -0.6619    3.1474   22.2133 C.ar    1  UNL1        0.0177
     10 C          -0.8337    2.7748   20.7706 C.ar    1  UNL1        0.0683
     11 C          -2.1685    2.9414   20.1068 C.ar    1  UNL1        0.0348
     12 C          -3.3314    3.4804   20.8858 C.ar    1  UNL1        0.0609
     13 N          -4.7560    3.7527   20.5032 N.ar    1  UNL1       -0.3288
     14 C          -5.3651    3.5243   19.1516 C.3     1  UNL1        0.1301
     15 C          -4.9077    4.8617   24.1828 C.3     1  UNL1        0.1003
     16 N           0.3293    2.2357   19.9915 N.ar    1  UNL1       -0.2729
     17 C           1.2037    3.1686   19.2072 C.ar    1  UNL1        0.0860
     18 C           2.3666    2.6296   18.4282 C.ar    1  UNL1        0.0561
     19 C           2.6552    1.1576   18.4335 C.ar    1  UNL1        0.1453
     20 C           1.7809    0.2247   19.2177 C.ar    1  UNL1        0.0980
     21 C           0.6179    0.7638   19.9968 C.ar    1  UNL1        0.2679
     22 O          -0.2565   -0.1691   20.7811 O.2     1  UNL1       -0.2665
     23 O           3.8182    0.6186   17.6544 O.3     1  UNL1       -0.4704
     24 C           3.8666   -0.8353   17.2884 C.3     1  UNL1        0.2320
     25 C           4.5716   -1.8110   18.1833 C.ar    1  UNL1        0.0212
     26 C           6.0593   -1.7298   18.3572 C.ar    1  UNL1       -0.0007
     27 C           6.7641   -2.7056   19.2521 C.ar    1  UNL1       -0.0002
     28 C           5.9814   -3.7625   19.9732 C.ar    1  UNL1       -0.0000
     29 C           4.4938   -3.8438   19.7994 C.ar    1  UNL1       -0.0002
     30 C           3.7888   -2.8680   18.9045 C.ar    1  UNL1       -0.0007
@<TRIPOS>BOND
     1     1     2    1
     2     2     3    1
     3     3     4    1
     4     4     5    1
     5     5     6   ar
     6     6     7   ar
     7     7     8   ar
     8     8     9   ar
     9     9    10   ar
    10    10    16    1
    11    16    17   ar
    12    17    18   ar
    13    18    19   ar
    14    19    23    1
    15    23    24    1
    16    24    25    1
    17    25    26   ar
    18    26    27   ar
    19    27    28   ar
    20    28    29   ar
    21    29    30   ar
    22    19    20   ar
    23    20    21   ar
    24    21    22    2
    25    10    11   ar
    26    11    12   ar
    27    12    13   ar
    28    13    14    1
    29     6    15    1
    30    15     2    1
    31    13     5   ar
    32    12     7   ar
    33    21    16   ar
    34    30    25   ar
@<TRIPOS>MOLECULE
*****
 30 34 0 0 0
SMALL
GASTEIGER

@<TRIPOS>ATOM
      1 C           4.5168    2.2393   38.4743 C.3     1  UNL1        0.0899
      2 N           4.4444    1.5093   37.1659 N.3     1  UNL1       -0.2673
      3 C           5.1807    0.2147   36.9877 C.3     1  UNL1        0.0787
      4 C           5.1084   -0.5153   35.6793 C.3     1  UNL1        0.0608
      5 C           4.2997    0.0493   34.5492 C.ar    1  UNL1        0.0358
      6 C           3.5634    1.3439   34.7274 C.ar    1  UNL1        0.0070
      7 C           2.8521    1.6532   33.4435 C.ar    1  UNL1        0.0143
      8 C           1.9726    2.7970   33.0337 C.ar    1  UNL1        0.0027
      9 C           1.3897    2.8374   31.6522 C.ar    1  UNL1        0.0177
     10 C           1.6865    1.7340   30.6804 C.ar    1  UNL1        0.0683
     11 C           2.5660    0.5901   31.0903 C.ar    1  UNL1        0.0348
     12 C           3.1488    0.5498   32.4718 C.ar    1  UNL1        0.0609
     13 N           4.0435   -0.4415   33.1551 N.ar    1  UNL1       -0.3288
     14 C           4.5866   -1.7023   32.5505 C.3     1  UNL1        0.1301
     15 C           3.6358    2.0739   36.0358 C.3     1  UNL1        0.1003
     16 N           1.1036    1.7743   29.2988 N.ar    1  UNL1       -0.2729
     17 C           1.8632    2.4289   28.1832 C.ar    1  UNL1        0.0860
     18 C           1.2804    2.4692   26.8017 C.ar    1  UNL1        0.0561
     19 C          -0.0620    1.8551   26.5358 C.ar    1  UNL1        0.1453
     20 C          -0.8216    1.2005   27.6513 C.ar    1  UNL1        0.0980
     21 C          -0.2388    1.1601   29.0329 C.ar    1  UNL1        0.2679
     22 O          -0.9984    0.5055   30.1485 O.2     1  UNL1       -0.2665
     23 O          -0.6448    1.8954   25.1542 O.3     1  UNL1       -0.4704
     24 C          -1.2097    3.1763   24.6155 C.3     1  UNL1        0.2320
     25 C          -2.6547    3.5113   24.8388 C.ar    1  UNL1        0.0212
     26 C          -3.1330    3.8938   26.2081 C.ar    1  UNL1       -0.0007
     27 C          -4.5779    4.2288   26.4313 C.ar    1  UNL1       -0.0002
     28 C          -5.5445    4.1813   25.2852 C.ar    1  UNL1       -0.0000
     29 C          -5.0662    3.7989   23.9160 C.ar    1  UNL1       -0.0002
     30 C          -3.6213    3.4639   23.6928 C.ar    1  UNL1       -0.0007
@<TRIPOS>BOND
     1     1     2    1
     2     2     3    1
     3     3     4    1
     4     4     5    1
     5     5     6   ar
     6     6     7   ar
     7     7     8   ar
     8     8     9   ar
     9     9    10   ar
    10    10    16    1
    11    16    17   ar
    12    17    18   ar
    13    18    19   ar
    14    19    23    1
    15    23    24    1
    16    24    25    1
    17    25    26   ar
    18    26    27   ar
    19    27    28   ar
    20    28    29   ar
    21    29    30   ar
    22    19    20   ar
    23    20    21   ar
    24    21    22    2
    25    10    11   ar
    26    11    12   ar
    27    12    13   ar
    28    13    14    1
    29     6    15    1
    30    15     2    1
    31    13     5   ar
    32    12     7   ar
    33    21    16   ar
    34    30    25   ar
@<TRIPOS>MOLECULE
*****
 30 34 0 0 0
SMALL
GASTEIGER

@<TRIPOS>ATOM
      1 C           4.1799    2.0117   38.5642 C.3     1  UNL1        0.0899
      2 N           3.3840    2.6253   37.4506 N.3     1  UNL1       -0.2673
      3 C           2.6228    3.8963   37.6848 C.3     1  UNL1        0.0787
      4 C           1.8269    4.5099   36.5712 C.3     1  UNL1        0.0608
      5 C           1.7923    3.8525   35.2234 C.ar    1  UNL1        0.0358
      6 C           2.5536    2.5815   34.9892 C.ar    1  UNL1        0.0070
      7 C           2.3329    2.1646   33.5652 C.ar    1  UNL1        0.0143
      8 C           2.8334    0.9932   32.7733 C.ar    1  UNL1        0.0027
      9 C           2.4361    0.8352   31.3355 C.ar    1  UNL1        0.0177
     10 C           1.5384    1.8486   30.6897 C.ar    1  UNL1        0.0683
     11 C           1.0380    3.0200   31.4817 C.ar    1  UNL1        0.0348
     12 C           1.4352    3.1780   32.9194 C.ar    1  UNL1        0.0609
     13 N           1.1011    4.2212   33.9442 N.ar    1  UNL1       -0.3288
     14 C           0.2289    5.4222   33.7279 C.3     1  UNL1        0.1301
     15 C           3.3495    1.9679   36.1028 C.3     1  UNL1        0.1003
     16 N           1.1412    1.6906   29.2519 N.ar    1  UNL1       -0.2729
     17 C           2.0435    2.1945   28.1648 C.ar    1  UNL1        0.0860
     18 C           1.6463    2.0365   26.7270 C.ar    1  UNL1        0.0561
     19 C           0.3467    1.3746   26.3764 C.ar    1  UNL1        0.1453
     20 C          -0.5556    0.8706   27.4634 C.ar    1  UNL1        0.0980
     21 C          -0.1584    1.0286   28.9012 C.ar    1  UNL1        0.2679
     22 O          -1.0607    0.5246   29.9883 O.2     1  UNL1       -0.2665
     23 O          -0.0505    1.2166   24.9386 O.3     1  UNL1       -0.4704
     24 C           0.8392    1.7442   23.8523 C.3     1  UNL1        0.2320
     25 C           1.2996    0.8347   22.7519 C.ar    1  UNL1        0.0212
     26 C           2.4851   -0.0594   22.9645 C.ar    1  UNL1       -0.0007
     27 C           2.9455   -0.9689   21.8642 C.ar    1  UNL1       -0.0002
     28 C           2.2204   -0.9842   20.5511 C.ar    1  UNL1       -0.0000
     29 C           1.0350   -0.0902   20.3385 C.ar    1  UNL1       -0.0002
     30 C           0.5746    0.8193   21.4389 C.ar    1  UNL1       -0.0007
@<TRIPOS>BOND
     1     1     2    1
     2     2     3    1
     3     3     4    1
     4     4     5    1
     5     5     6   ar
     6     6     7   ar
     7     7     8   ar
     8     8     9   ar
     9     9    10   ar
    10    10    16    1
    11    16    17   ar
    12    17    18   ar
    13    18    19   ar
    14    19    23    1
    15    23    24    1
    16    24    25    1
    17    25    26   ar
    18    26    27   ar
    19    27    28   ar
    20    28    29   ar
    21    29    30   ar
    22    19    20   ar
    23    20    21   ar
    24    21    22    2
    25    10    11   ar
    26    11    12   ar
    27    12    13   ar
    28    13    14    1
    29     6    15    1
    30    15     2    1
    31    13     5   ar
    32    12     7   ar
    33    21    16   ar
    34    30    25   ar
@<TRIPOS>MOLECULE
*****
 30 34 0 0 0
SMALL
GASTEIGER

@<TRIPOS>ATOM
      1 C           4.2751    2.3216   38.3407 C.3     1  UNL1        0.0899
      2 N           4.2725    1.5345   37.0638 N.3     1  UNL1       -0.2673
      3 C           5.0287    0.2420   36.9780 C.3     1  UNL1        0.0787
      4 C           5.0261   -0.5452   35.7011 C.3     1  UNL1        0.0608
      5 C           4.2671   -0.0398   34.5101 C.ar    1  UNL1        0.0358
      6 C           3.5108    1.2527   34.5959 C.ar    1  UNL1        0.0070
      7 C           2.8589    1.4974   33.2673 C.ar    1  UNL1        0.0143
      8 C           1.9891    2.6120   32.7662 C.ar    1  UNL1        0.0027
      9 C           1.4727    2.5853   31.3582 C.ar    1  UNL1        0.0177
     10 C           1.8261    1.4440   30.4513 C.ar    1  UNL1        0.0683
     11 C           2.6959    0.3294   30.9524 C.ar    1  UNL1        0.0348
     12 C           3.2123    0.3561   32.3604 C.ar    1  UNL1        0.0609
     13 N           4.0826   -0.5939   33.1285 N.ar    1  UNL1       -0.3288
     14 C           4.6660   -1.8735   32.6066 C.3     1  UNL1        0.1301
     15 C           3.5135    2.0398   35.8728 C.3     1  UNL1        0.1003
     16 N           1.3097    1.4173   29.0431 N.ar    1  UNL1       -0.2729
     17 C           2.1937    1.8516   27.9118 C.ar    1  UNL1        0.0860
     18 C           1.6773    1.8249   26.5038 C.ar    1  UNL1        0.0561
     19 C           0.2770    1.3639   26.2271 C.ar    1  UNL1        0.1453
     20 C          -0.6069    0.9296   27.3583 C.ar    1  UNL1        0.0980
     21 C          -0.0906    0.9563   28.7664 C.ar    1  UNL1        0.2679
     22 O          -0.9746    0.5220   29.8978 O.2     1  UNL1       -0.2665
     23 O          -0.2393    1.3372   24.8190 O.3     1  UNL1       -0.4704
     24 C           0.6125    1.8543   23.6978 C.3     1  UNL1        0.2320
     25 C           1.1491    0.9077   22.6653 C.ar    1  UNL1        0.0212
     26 C           2.3678    0.0854   22.9630 C.ar    1  UNL1       -0.0007
     27 C           2.9043   -0.8612   21.9306 C.ar    1  UNL1       -0.0002
     28 C           2.2223   -0.9855   20.6004 C.ar    1  UNL1       -0.0000
     29 C           1.0037   -0.1632   20.3027 C.ar    1  UNL1       -0.0002
     30 C           0.4671    0.7834   21.3352 C.ar    1  UNL1       -0.0007
@<TRIPOS>BOND
     1     1     2    1
     2     2     3    1
     3     3     4    1
     4     4     5    1
     5     5     6   ar
     6     6     7   ar
     7     7     8   ar
     8     8     9   ar
     9     9    10   ar
    10    10    16    1
    11    16    17   ar
    12    17    18   ar
    13    18    19   ar
    14    19    23    1
    15    23    24    1
    16    24    25    1
    17    25    26   ar
    18    26    27   ar
    19    27    28   ar
    20    28    29   ar
    21    29    30   ar
    22    19    20   ar
    23    20    21   ar
    24    21    22    2
    25    10    11   ar
    26    11    12   ar
    27    12    13   ar
    28    13    14    1
    29     6    15    1
    30    15     2    1
    31    13     5   ar
    32    12     7   ar
    33    21    16   ar
    34    30    25   ar
@<TRIPOS>MOLECULE
*****
 30 34 0 0 0
SMALL
GASTEIGER

@<TRIPOS>ATOM
      1 C          -1.9218    5.0047   17.6345 C.3     1  UNL1        0.0899
      2 N          -1.2970    4.1567   18.7024 N.3     1  UNL1       -0.2673
      3 C          -1.7643    4.2745   20.1228 C.3     1  UNL1        0.0787
      4 C          -1.1395    3.4265   21.1907 C.3     1  UNL1        0.0608
      5 C          -0.0474    2.4606   20.8382 C.ar    1  UNL1        0.0358
      6 C           0.4200    2.3428   19.4177 C.ar    1  UNL1        0.0070
      7 C           1.5072    1.3104   19.3715 C.ar    1  UNL1        0.0143
      8 C           2.3373    0.7769   18.2419 C.ar    1  UNL1        0.0027
      9 C           3.3721   -0.2769   18.5042 C.ar    1  UNL1        0.0177
     10 C           3.5767   -0.7972   19.8961 C.ar    1  UNL1        0.0683
     11 C           2.7465   -0.2636   21.0258 C.ar    1  UNL1        0.0348
     12 C           1.7118    0.7902   20.7635 C.ar    1  UNL1        0.0609
     13 N           0.7510    1.5010   21.6699 N.ar    1  UNL1       -0.3288
     14 C           0.6129    1.2895   23.1484 C.3     1  UNL1        0.1301
     15 C          -0.2049    3.1909   18.3498 C.3     1  UNL1        0.1003
     16 N           4.6115   -1.8510   20.1584 N.ar    1  UNL1       -0.2729
     17 C           5.8705   -1.4993   20.8941 C.ar    1  UNL1        0.0860
     18 C           6.9051   -2.5530   21.1563 C.ar    1  UNL1        0.0561
     19 C           6.6809   -3.9586   20.6830 C.ar    1  UNL1        0.1453
     20 C           5.4220   -4.3104   19.9473 C.ar    1  UNL1        0.0980
     21 C           4.3872   -3.2566   19.6850 C.ar    1  UNL1        0.2679
     22 O           3.1282   -3.6084   18.9493 O.2     1  UNL1       -0.2665
     23 O           7.7156   -5.0124   20.9453 O.3     1  UNL1       -0.4704
     24 C           8.6042   -4.9079   22.1493 C.3     1  UNL1        0.2320
     25 C           8.2036   -5.5655   23.4365 C.ar    1  UNL1        0.0212
     26 C           7.4600   -4.7837   24.4785 C.ar    1  UNL1       -0.0007
     27 C           7.0595   -5.4414   25.7657 C.ar    1  UNL1       -0.0002
     28 C           7.4025   -6.8808   26.0109 C.ar    1  UNL1       -0.0000
     29 C           8.1460   -7.6627   24.9690 C.ar    1  UNL1       -0.0002
     30 C           8.5466   -7.0050   23.6817 C.ar    1  UNL1       -0.0007
@<TRIPOS>BOND
     1     1     2    1
     2     2     3    1
     3     3     4    1
     4     4     5    1
     5     5     6   ar
     6     6     7   ar
     7     7     8   ar
     8     8     9   ar
     9     9    10   ar
    10    10    16    1
    11    16    17   ar
    12    17    18   ar
    13    18    19   ar
    14    19    23    1
    15    23    24    1
    16    24    25    1
    17    25    26   ar
    18    26    27   ar
    19    27    28   ar
    20    28    29   ar
    21    29    30   ar
    22    19    20   ar
    23    20    21   ar
    24    21    22    2
    25    10    11   ar
    26    11    12   ar
    27    12    13   ar
    28    13    14    1
    29     6    15    1
    30    15     2    1
    31    13     5   ar
    32    12     7   ar
    33    21    16   ar
    34    30    25   ar
@<TRIPOS>MOLECULE
*****
 30 34 0 0 0
SMALL
GASTEIGER

@<TRIPOS>ATOM
      1 C          -6.9544    5.7111   25.2820 C.3     1  UNL1        0.0899
      2 N          -5.5932    5.0810   25.2715 N.3     1  UNL1       -0.2673
      3 C          -4.8941    4.7841   26.5649 C.3     1  UNL1        0.0787
      4 C          -3.5329    4.1540   26.5544 C.3     1  UNL1        0.0608
      5 C          -2.8707    3.8209   25.2503 C.ar    1  UNL1        0.0358
      6 C          -3.5698    4.1178   23.9569 C.ar    1  UNL1        0.0070
      7 C          -2.6748    3.6807   22.8352 C.ar    1  UNL1        0.0143
      8 C          -2.8383    3.7258   21.3449 C.ar    1  UNL1        0.0027
      9 C          -1.7496    3.2038   20.4548 C.ar    1  UNL1        0.0177
     10 C          -0.4974    2.6367   21.0552 C.ar    1  UNL1        0.0683
     11 C          -0.3339    2.5916   22.5456 C.ar    1  UNL1        0.0348
     12 C          -1.4226    3.1136   23.4355 C.ar    1  UNL1        0.0609
     13 N          -1.5437    3.2002   24.9281 N.ar    1  UNL1       -0.3288
     14 C          -0.5179    2.7460   25.9238 C.3     1  UNL1        0.1301
     15 C          -4.9310    4.7479   23.9674 C.3     1  UNL1        0.1003
     16 N           0.5914    2.1146   20.1651 N.ar    1  UNL1       -0.2729
     17 C           1.5384    3.0689   19.4999 C.ar    1  UNL1        0.0860
     18 C           2.6271    2.5469   18.6099 C.ar    1  UNL1        0.0561
     19 C           2.7688    1.0707   18.3851 C.ar    1  UNL1        0.1453
     20 C           1.8218    0.1164   19.0502 C.ar    1  UNL1        0.0980
     21 C           0.7330    0.6384   19.9402 C.ar    1  UNL1        0.2679
     22 O          -0.2140   -0.3159   20.6054 O.2     1  UNL1       -0.2665
     23 O           3.8575    0.5487   17.4950 O.3     1  UNL1       -0.4704
     24 C           3.9291   -0.9155   17.1770 C.3     1  UNL1        0.2320
     25 C           4.6015   -1.8582   18.1305 C.ar    1  UNL1        0.0212
     26 C           3.7802   -2.8106   18.9480 C.ar    1  UNL1       -0.0007
     27 C           4.4527   -3.7532   19.9014 C.ar    1  UNL1       -0.0002
     28 C           5.9464   -3.7436   20.0373 C.ar    1  UNL1       -0.0000
     29 C           6.7677   -2.7913   19.2198 C.ar    1  UNL1       -0.0002
     30 C           6.0953   -1.8485   18.2663 C.ar    1  UNL1       -0.0007
@<TRIPOS>BOND
     1     1     2    1
     2     2     3    1
     3     3     4    1
     4     4     5    1
     5     5     6   ar
     6     6     7   ar
     7     7     8   ar
     8     8     9   ar
     9     9    10   ar
    10    10    16    1
    11    16    17   ar
    12    17    18   ar
    13    18    19   ar
    14    19    23    1
    15    23    24    1
    16    24    25    1
    17    25    26   ar
    18    26    27   ar
    19    27    28   ar
    20    28    29   ar
    21    29    30   ar
    22    19    20   ar
    23    20    21   ar
    24    21    22    2
    25    10    11   ar
    26    11    12   ar
    27    12    13   ar
    28    13    14    1
    29     6    15    1
    30    15     2    1
    31    13     5   ar
    32    12     7   ar
    33    21    16   ar
    34    30    25   ar
@<TRIPOS>MOLECULE
*****
 30 34 0 0 0
SMALL
GASTEIGER

@<TRIPOS>ATOM
      1 C           0.1639    6.5617   35.5331 C.3     1  UNL1        0.0899
      2 N           0.4185    5.4947   34.5100 N.3     1  UNL1       -0.2673
      3 C          -0.4578    5.3946   33.2968 C.3     1  UNL1        0.0787
      4 C          -0.2032    4.3276   32.2737 C.3     1  UNL1        0.0608
      5 C           0.9277    3.3607   32.4638 C.ar    1  UNL1        0.0358
      6 C           1.8040    3.4609   33.6771 C.ar    1  UNL1        0.0070
      7 C           2.8357    2.3750   33.5947 C.ar    1  UNL1        0.0143
      8 C           3.9615    1.9889   34.5074 C.ar    1  UNL1        0.0027
      9 C           4.8487    0.8316   34.1560 C.ar    1  UNL1        0.0177
     10 C           4.6099    0.0604   32.8918 C.ar    1  UNL1        0.0683
     11 C           3.4840    0.4465   31.9790 C.ar    1  UNL1        0.0348
     12 C           2.5969    1.6038   32.3305 C.ar    1  UNL1        0.0609
     13 N           1.4177    2.2130   31.6316 N.ar    1  UNL1       -0.3288
     14 C           0.8314    1.7549   30.3291 C.3     1  UNL1        0.1301
     15 C           1.5494    4.5279   34.7002 C.3     1  UNL1        0.1003
     16 N           5.4971   -1.0970   32.5403 N.ar    1  UNL1       -0.2729
     17 C           6.7893   -0.8588   31.8168 C.ar    1  UNL1        0.0860
     18 C           7.6764   -2.0161   31.4654 C.ar    1  UNL1        0.0561
     19 C           7.2714   -3.4116   31.8374 C.ar    1  UNL1        0.1453
     20 C           5.9792   -3.6499   32.5609 C.ar    1  UNL1        0.0980
     21 C           5.0921   -2.4925   32.9124 C.ar    1  UNL1        0.2679
     22 O           3.7998   -2.7308   33.6359 O.2     1  UNL1       -0.2665
     23 O           8.1585   -4.5690   31.4860 O.3     1  UNL1       -0.4704
     24 C           7.5605   -5.8395   30.9588 C.3     1  UNL1        0.2320
     25 C           7.4293   -6.0495   29.4793 C.ar    1  UNL1        0.0212
     26 C           8.2904   -7.0636   28.7864 C.ar    1  UNL1       -0.0007
     27 C           8.1591   -7.2734   27.3070 C.ar    1  UNL1       -0.0002
     28 C           7.1668   -6.4693   26.5206 C.ar    1  UNL1       -0.0000
     29 C           6.3057   -5.4553   27.2134 C.ar    1  UNL1       -0.0002
     30 C           6.4369   -5.2453   28.6929 C.ar    1  UNL1       -0.0007
@<TRIPOS>BOND
     1     1     2    1
     2     2     3    1
     3     3     4    1
     4     4     5    1
     5     5     6   ar
     6     6     7   ar
     7     7     8   ar
     8     8     9   ar
     9     9    10   ar
    10    10    16    1
    11    16    17   ar
    12    17    18   ar
    13    18    19   ar
    14    19    23    1
    15    23    24    1
    16    24    25    1
    17    25    26   ar
    18    26    27   ar
    19    27    28   ar
    20    28    29   ar
    21    29    30   ar
    22    19    20   ar
    23    20    21   ar
    24    21    22    2
    25    10    11   ar
    26    11    12   ar
    27    12    13   ar
    28    13    14    1
    29     6    15    1
    30    15     2    1
    31    13     5   ar
    32    12     7   ar
    33    21    16   ar
    34    30    25   ar
@<TRIPOS>MOLECULE
*****
 30 34 0 0 0
SMALL
GASTEIGER

@<TRIPOS>ATOM
      1 C           6.1102    1.8004   17.0196 C.3     1  UNL1        0.0899
      2 N           5.6860    0.5117   17.6592 N.3     1  UNL1       -0.2673
      3 C           4.6116   -0.3218   17.0260 C.3     1  UNL1        0.0787
      4 C           4.1874   -1.6106   17.6656 C.3     1  UNL1        0.0608
      5 C           4.8375   -2.0659   18.9384 C.ar    1  UNL1        0.0358
      6 C           5.9119   -1.2324   19.5716 C.ar    1  UNL1        0.0070
      7 C           6.3680   -1.9325   20.8174 C.ar    1  UNL1        0.0143
      8 C           7.4025   -1.5806   21.8449 C.ar    1  UNL1        0.0027
      9 C           7.6446   -2.4948   23.0091 C.ar    1  UNL1        0.0177
     10 C           6.8520   -3.7610   23.1459 C.ar    1  UNL1        0.0683
     11 C           5.8174   -4.1129   22.1183 C.ar    1  UNL1        0.0348
     12 C           5.5755   -3.1986   20.9541 C.ar    1  UNL1        0.0609
     13 N           4.6296   -3.2811   19.7928 N.ar    1  UNL1       -0.3288
     14 C           3.6481   -4.3849   19.5318 C.3     1  UNL1        0.1301
     15 C           6.3361    0.0564   18.9320 C.3     1  UNL1        0.1003
     16 N           7.0940   -4.6753   24.3102 N.ar    1  UNL1       -0.2729
     17 C           6.6004   -4.2979   25.6754 C.ar    1  UNL1        0.0860
     18 C           6.8424   -5.2122   26.8396 C.ar    1  UNL1        0.0561
     19 C           7.5780   -6.5039   26.6386 C.ar    1  UNL1        0.1453
     20 C           8.0717   -6.8812   25.2735 C.ar    1  UNL1        0.0980
     21 C           7.8297   -5.9670   24.1092 C.ar    1  UNL1        0.2679
     22 O           8.3234   -6.3444   22.7440 O.2     1  UNL1       -0.2665
     23 O           7.8200   -7.4181   27.8029 O.3     1  UNL1       -0.4704
     24 C           8.7913   -7.0249   28.8762 C.3     1  UNL1        0.2320
     25 C           8.5024   -5.8425   29.7528 C.ar    1  UNL1        0.0212
     26 C           7.2945   -5.8455   30.6422 C.ar    1  UNL1       -0.0007
     27 C           7.0056   -4.6630   31.5187 C.ar    1  UNL1       -0.0002
     28 C           7.9247   -3.4776   31.5059 C.ar    1  UNL1       -0.0000
     29 C           9.1325   -3.4747   30.6166 C.ar    1  UNL1       -0.0002
     30 C           9.4214   -4.6571   29.7400 C.ar    1  UNL1       -0.0007
@<TRIPOS>BOND
     1     1     2    1
     2     2     3    1
     3     3     4    1
     4     4     5    1
     5     5     6   ar
     6     6     7   ar
     7     7     8   ar
     8     8     9   ar
     9     9    10   ar
    10    10    16    1
    11    16    17   ar
    12    17    18   ar
    13    18    19   ar
    14    19    23    1
    15    23    24    1
    16    24    25    1
    17    25    26   ar
    18    26    27   ar
    19    27    28   ar
    20    28    29   ar
    21    29    30   ar
    22    19    20   ar
    23    20    21   ar
    24    21    22    2
    25    10    11   ar
    26    11    12   ar
    27    12    13   ar
    28    13    14    1
    29     6    15    1
    30    15     2    1
    31    13     5   ar
    32    12     7   ar
    33    21    16   ar
    34    30    25   ar
@<TRIPOS>MOLECULE
*****
 30 34 0 0 0
SMALL
GASTEIGER

@<TRIPOS>ATOM
      1 C           7.8106    1.7109   16.5372 C.3     1  UNL1        0.0899
      2 N           6.6053    1.1755   17.2519 N.3     1  UNL1       -0.2673
      3 C           6.5721   -0.2564   17.6973 C.3     1  UNL1        0.0787
      4 C           5.3668   -0.7918   18.4120 C.3     1  UNL1        0.0608
      5 C           4.1948    0.1048   18.6813 C.ar    1  UNL1        0.0358
      6 C           4.2281    1.5367   18.2359 C.ar    1  UNL1        0.0070
      7 C           2.9330    2.1777   18.6385 C.ar    1  UNL1        0.0143
      8 C           2.4051    3.5706   18.4627 C.ar    1  UNL1        0.0027
      9 C           1.0436    3.9277   18.9811 C.ar    1  UNL1        0.0177
     10 C           0.2100    2.8918   19.6754 C.ar    1  UNL1        0.0683
     11 C           0.7379    1.4988   19.8512 C.ar    1  UNL1        0.0348
     12 C           2.0994    1.1418   19.3328 C.ar    1  UNL1        0.0609
     13 N           2.8792   -0.1393   19.3592 N.ar    1  UNL1       -0.3288
     14 C           2.4235   -1.4367   19.9583 C.3     1  UNL1        0.1301
     15 C           5.4333    2.0721   17.5212 C.3     1  UNL1        0.1003
     16 N          -1.1516    3.2489   20.1938 N.ar    1  UNL1       -0.2729
     17 C          -2.2478    3.6102   19.2359 C.ar    1  UNL1        0.0860
     18 C          -3.6093    3.9673   19.7543 C.ar    1  UNL1        0.0561
     19 C          -3.8746    3.9630   21.2306 C.ar    1  UNL1        0.1453
     20 C          -2.7784    3.6017   22.1885 C.ar    1  UNL1        0.0980
     21 C          -1.4168    3.2446   21.6702 C.ar    1  UNL1        0.2679
     22 O          -0.3206    2.8832   22.6281 O.2     1  UNL1       -0.2665
     23 O          -5.2361    4.3201   21.7490 O.3     1  UNL1       -0.4704
     24 C          -5.7928    3.6094   22.9470 C.3     1  UNL1        0.2320
     25 C          -5.6788    4.2305   24.3076 C.ar    1  UNL1        0.0212
     26 C          -4.6585    3.7205   25.2818 C.ar    1  UNL1       -0.0007
     27 C          -4.5447    4.3416   26.6423 C.ar    1  UNL1       -0.0002
     28 C          -5.4510    5.4727   27.0287 C.ar    1  UNL1       -0.0000
     29 C          -6.4712    5.9826   26.0546 C.ar    1  UNL1       -0.0002
     30 C          -6.5851    5.3615   24.6940 C.ar    1  UNL1       -0.0007
@<TRIPOS>BOND
     1     1     2    1
     2     2     3    1
     3     3     4    1
     4     4     5    1
     5     5     6   ar
     6     6     7   ar
     7     7     8   ar
     8     8     9   ar
     9     9    10   ar
    10    10    16    1
    11    16    17   ar
    12    17    18   ar
    13    18    19   ar
    14    19    23    1
    15    23    24    1
    16    24    25    1
    17    25    26   ar
    18    26    27   ar
    19    27    28   ar
    20    28    29   ar
    21    29    30   ar
    22    19    20   ar
    23    20    21   ar
    24    21    22    2
    25    10    11   ar
    26    11    12   ar
    27    12    13   ar
    28    13    14    1
    29     6    15    1
    30    15     2    1
    31    13     5   ar
    32    12     7   ar
    33    21    16   ar
    34    30    25   ar
