@<TRIPOS>MOLECULE
*****
 29 31 0 0 0
SMALL
GASTEIGER

@<TRIPOS>ATOM
      1 C          -9.3015  -17.4993   22.2762 C.ar    1  UNL1       -0.0004
      2 C          -8.8334  -16.2568   22.9740 C.ar    1  UNL1       -0.0024
      3 C          -7.3889  -16.1062   23.3489 C.ar    1  UNL1       -0.0002
      4 C          -6.4124  -17.1981   23.0261 C.ar    1  UNL1        0.0030
      5 C          -4.9678  -17.0474   23.4011 C.ar    1  UNL1        0.0369
      6 C          -3.9914  -18.1394   23.0783 C.ar    1  UNL1        0.1386
      7 C          -4.4595  -19.3820   22.3804 C.ar    1  UNL1        0.0369
      8 C          -5.9040  -19.5326   22.0055 C.ar    1  UNL1        0.0031
      9 C          -6.8805  -18.4406   22.3283 C.ar    1  UNL1       -0.0001
     10 C          -8.3250  -18.5912   21.9534 C.ar    1  UNL1       -0.0024
     11 C         -10.7460  -17.6500   21.9012 C.3     1  UNL1        0.1240
     12 N         -11.7687  -17.9431   22.9586 N.ar    1  UNL1       -0.3045
     13 C         -13.2152  -17.5480   22.9199 C.ar    1  UNL1        0.0983
     14 C         -13.8650  -18.0436   24.1778 C.ar    1  UNL1        0.1193
     15 N         -12.8200  -18.7450   24.9939 N.ar    1  UNL1       -0.2223
     16 C         -11.5245  -18.6829   24.2404 C.ar    1  UNL1        0.1788
     17 C         -11.2178  -18.7134   19.5781 C.3     1  UNL1        0.0197
     18 C         -11.1679  -17.5075   20.4688 C.3     1  UNL1        0.0827
     19 N         -11.5397  -16.1590   19.9271 N.3     1  UNL1       -0.2696
     20 C         -10.4723  -15.1434   19.6458 C.3     1  UNL1        0.0897
     21 C         -12.9790  -15.8263   19.6666 C.3     1  UNL1        0.0897
     22 O          -2.5469  -17.9888   23.4532 O.3     1  UNL1       -0.4751
     23 C          -1.4775  -18.2199   22.4269 C.3     1  UNL1        0.2103
     24 C          -1.7589  -17.9541   20.9778 C.3     1  UNL1        0.0724
     25 C          -1.6910  -19.4255   20.6947 C.3     1  UNL1        0.0093
     26 C          -1.8267  -16.4826   21.2608 C.3     1  UNL1        0.0093
     27 C          -2.0402  -17.6883   19.5286 C.2     1  UNL1        0.0532
     28 O          -1.0137  -18.0315   18.4900 O.co2   1  UNL1       -0.5491
     29 O          -3.3480  -17.0793   19.1179 O.co2   1  UNL1       -0.5491
@<TRIPOS>UNITY_ATOM_ATTR
28 1
charge -1
@<TRIPOS>BOND
     1    17    18    1
     2    18    11    1
     3    11     1    1
     4     1     2   ar
     5     2     3   ar
     6     3     4   ar
     7     4     5   ar
     8     5     6   ar
     9     6    22    1
    10    22    23    1
    11    23    24    1
    12    24    25    1
    13    24    26    1
    14    24    27    1
    15    27    28   ar
    16    27    29   ar
    17     6     7   ar
    18     7     8   ar
    19     8     9   ar
    20     9    10   ar
    21    11    12    1
    22    12    13   ar
    23    13    14   ar
    24    14    15   ar
    25    15    16   ar
    26    18    19    1
    27    19    20    1
    28    19    21    1
    29    10     1   ar
    30    16    12   ar
    31     9     4   ar
@<TRIPOS>MOLECULE
*****
 29 31 0 0 0
SMALL
GASTEIGER

@<TRIPOS>ATOM
      1 C          -9.0504  -18.1033   22.1886 C.ar    1  UNL1       -0.0004
      2 C          -8.0236  -17.2718   22.8986 C.ar    1  UNL1       -0.0024
      3 C          -6.5648  -17.5801   22.7344 C.ar    1  UNL1       -0.0002
      4 C          -6.1329  -18.7199   21.8602 C.ar    1  UNL1        0.0030
      5 C          -4.6741  -19.0282   21.6960 C.ar    1  UNL1        0.0369
      6 C          -4.2422  -20.1681   20.8218 C.ar    1  UNL1        0.1386
      7 C          -5.2691  -20.9996   20.1117 C.ar    1  UNL1        0.0369
      8 C          -6.7279  -20.6913   20.2759 C.ar    1  UNL1        0.0031
      9 C          -7.1598  -19.5514   21.1502 C.ar    1  UNL1       -0.0001
     10 C          -8.6185  -19.2431   21.3143 C.ar    1  UNL1       -0.0024
     11 C         -10.5092  -17.7950   22.3527 C.3     1  UNL1        0.1240
     12 N         -11.2326  -17.0084   21.3001 N.ar    1  UNL1       -0.3045
     13 C         -10.5978  -16.2696   20.1595 C.ar    1  UNL1        0.0983
     14 C         -11.6907  -15.6271   19.3576 C.ar    1  UNL1        0.1193
     15 N         -13.0010  -15.9690   20.0027 N.ar    1  UNL1       -0.2223
     16 C         -12.7179  -16.8227   21.2032 C.ar    1  UNL1        0.1788
     17 C         -12.7303  -18.0913   23.6677 C.3     1  UNL1        0.0197
     18 C         -11.2446  -18.2732   23.5695 C.3     1  UNL1        0.0827
     19 N         -10.4942  -18.9333   24.6881 N.3     1  UNL1       -0.2696
     20 C          -9.8865  -18.1005   25.7776 C.3     1  UNL1        0.0897
     21 C         -10.3517  -20.4262   24.7171 C.3     1  UNL1        0.0897
     22 O          -2.7835  -20.4764   20.6576 O.3     1  UNL1       -0.4751
     23 C          -1.7609  -19.7002   21.4334 C.3     1  UNL1        0.2103
     24 C          -1.6380  -18.2180   21.2386 C.3     1  UNL1        0.0724
     25 C          -1.3115  -18.4354   19.7908 C.3     1  UNL1        0.0093
     26 C          -1.9644  -18.0006   22.6863 C.3     1  UNL1        0.0093
     27 C          -1.5150  -16.7358   21.0437 C.2     1  UNL1        0.0532
     28 O          -0.3660  -16.1752   20.2591 O.co2   1  UNL1       -0.5491
     29 O          -2.5411  -15.8142   21.6334 O.co2   1  UNL1       -0.5491
@<TRIPOS>UNITY_ATOM_ATTR
28 1
charge -1
@<TRIPOS>BOND
     1    17    18    1
     2    18    11    1
     3    11     1    1
     4     1     2   ar
     5     2     3   ar
     6     3     4   ar
     7     4     5   ar
     8     5     6   ar
     9     6    22    1
    10    22    23    1
    11    23    24    1
    12    24    25    1
    13    24    26    1
    14    24    27    1
    15    27    28   ar
    16    27    29   ar
    17     6     7   ar
    18     7     8   ar
    19     8     9   ar
    20     9    10   ar
    21    11    12    1
    22    12    13   ar
    23    13    14   ar
    24    14    15   ar
    25    15    16   ar
    26    18    19    1
    27    19    20    1
    28    19    21    1
    29    10     1   ar
    30    16    12   ar
    31     9     4   ar
@<TRIPOS>MOLECULE
*****
 29 31 0 0 0
SMALL
GASTEIGER

@<TRIPOS>ATOM
      1 C           2.8938   -0.5358   20.4854 C.ar    1  UNL1       -0.0004
      2 C           1.5517    0.0574   20.1742 C.ar    1  UNL1       -0.0024
      3 C           0.7443    0.6986   21.2636 C.ar    1  UNL1       -0.0002
      4 C           1.2791    0.7468   22.6642 C.ar    1  UNL1        0.0030
      5 C           0.4716    1.3881   23.7537 C.ar    1  UNL1        0.0369
      6 C           1.0063    1.4362   25.1543 C.ar    1  UNL1        0.1386
      7 C           2.3485    0.8430   25.4655 C.ar    1  UNL1        0.0369
      8 C           3.1559    0.2017   24.3760 C.ar    1  UNL1        0.0031
      9 C           2.6212    0.1536   22.9754 C.ar    1  UNL1       -0.0001
     10 C           3.4285   -0.4877   21.8860 C.ar    1  UNL1       -0.0024
     11 C           3.7013   -1.1771   19.3959 C.3     1  UNL1        0.1240
     12 N           4.0980   -2.6194   19.5064 N.ar    1  UNL1       -0.3045
     13 C           3.2294   -3.7998   19.1863 C.ar    1  UNL1        0.0983
     14 C           4.0275   -5.0446   19.4383 C.ar    1  UNL1        0.1193
     15 N           5.3893   -4.6336   19.9143 N.ar    1  UNL1       -0.2223
     16 C           5.4329   -3.1348   19.9563 C.ar    1  UNL1        0.1788
     17 C           3.7809   -0.8664   16.8177 C.3     1  UNL1        0.0197
     18 C           4.1120   -0.3760   18.1961 C.3     1  UNL1        0.0827
     19 N           4.8538    0.9154   18.3747 N.3     1  UNL1       -0.2696
     20 C           4.1238    2.2212   18.2636 C.3     1  UNL1        0.0897
     21 C           6.3255    0.9012   18.6642 C.3     1  UNL1        0.0897
     22 O           0.1990    2.0774   26.2437 O.3     1  UNL1       -0.4751
     23 C          -0.5778    1.2247   27.2027 C.3     1  UNL1        0.2103
     24 C          -0.0586    0.9933   28.5907 C.3     1  UNL1        0.0724
     25 C          -0.7958   -0.3117   28.6490 C.3     1  UNL1        0.0093
     26 C           0.6786    2.2984   28.5325 C.3     1  UNL1        0.0093
     27 C           0.4607    0.7620   29.9788 C.2     1  UNL1        0.0532
     28 O           1.4392   -0.3448   30.2388 O.co2   1  UNL1       -0.5491
     29 O           0.0014    1.6374   31.1070 O.co2   1  UNL1       -0.5491
@<TRIPOS>UNITY_ATOM_ATTR
28 1
charge -1
@<TRIPOS>BOND
     1    17    18    1
     2    18    11    1
     3    11     1    1
     4     1     2   ar
     5     2     3   ar
     6     3     4   ar
     7     4     5   ar
     8     5     6   ar
     9     6    22    1
    10    22    23    1
    11    23    24    1
    12    24    25    1
    13    24    26    1
    14    24    27    1
    15    27    28   ar
    16    27    29   ar
    17     6     7   ar
    18     7     8   ar
    19     8     9   ar
    20     9    10   ar
    21    11    12    1
    22    12    13   ar
    23    13    14   ar
    24    14    15   ar
    25    15    16   ar
    26    18    19    1
    27    19    20    1
    28    19    21    1
    29    10     1   ar
    30    16    12   ar
    31     9     4   ar
@<TRIPOS>MOLECULE
*****
 29 31 0 0 0
SMALL
GASTEIGER

@<TRIPOS>ATOM
      1 C           3.1445   -1.0739   20.9520 C.ar    1  UNL1       -0.0004
      2 C           1.8817   -0.4334   20.4570 C.ar    1  UNL1       -0.0024
      3 C           1.0232    0.3579   21.3987 C.ar    1  UNL1       -0.0002
      4 C           1.4276    0.5088   22.8352 C.ar    1  UNL1        0.0030
      5 C           0.5690    1.3003   23.7769 C.ar    1  UNL1        0.0369
      6 C           0.9734    1.4512   25.2134 C.ar    1  UNL1        0.1386
      7 C           2.2363    0.8107   25.7083 C.ar    1  UNL1        0.0369
      8 C           3.0948    0.0193   24.7667 C.ar    1  UNL1        0.0031
      9 C           2.6904   -0.1316   23.3302 C.ar    1  UNL1       -0.0001
     10 C           3.5489   -0.9230   22.3885 C.ar    1  UNL1       -0.0024
     11 C           4.0030   -1.8653   20.0103 C.3     1  UNL1        0.1240
     12 N           4.6167   -1.1987   18.8148 N.ar    1  UNL1       -0.3045
     13 C           5.9446   -0.5021   18.7786 C.ar    1  UNL1        0.0983
     14 C           6.1588    0.0154   17.3871 C.ar    1  UNL1        0.1193
     15 N           4.9632   -0.3613   16.5633 N.ar    1  UNL1       -0.2223
     16 C           4.0101   -1.1117   17.4457 C.ar    1  UNL1        0.1788
     17 C           3.3968   -4.3559   19.5864 C.3     1  UNL1        0.0197
     18 C           4.2479   -3.3232   20.2641 C.3     1  UNL1        0.0827
     19 N           5.3439   -3.7486   21.1957 N.3     1  UNL1       -0.2696
     20 C           6.7403   -3.9289   20.6782 C.3     1  UNL1        0.0897
     21 C           5.0436   -3.9936   22.6448 C.3     1  UNL1        0.0897
     22 O           0.1149    2.2425   26.1551 O.3     1  UNL1       -0.4751
     23 C          -0.7173    1.5367   27.1843 C.3     1  UNL1        0.2103
     24 C          -0.1294    1.2016   28.5230 C.3     1  UNL1        0.0724
     25 C          -0.6240   -0.2079   28.3874 C.3     1  UNL1        0.0093
     26 C           0.3653    2.6112   28.6586 C.3     1  UNL1        0.0093
     27 C           0.4586    0.8665   29.8616 C.2     1  UNL1        0.0532
     28 O           0.1589    1.7313   31.0501 O.co2   1  UNL1       -0.5491
     29 O           1.3462   -0.3333   30.0119 O.co2   1  UNL1       -0.5491
@<TRIPOS>UNITY_ATOM_ATTR
28 1
charge -1
@<TRIPOS>BOND
     1    17    18    1
     2    18    11    1
     3    11     1    1
     4     1     2   ar
     5     2     3   ar
     6     3     4   ar
     7     4     5   ar
     8     5     6   ar
     9     6    22    1
    10    22    23    1
    11    23    24    1
    12    24    25    1
    13    24    26    1
    14    24    27    1
    15    27    28   ar
    16    27    29   ar
    17     6     7   ar
    18     7     8   ar
    19     8     9   ar
    20     9    10   ar
    21    11    12    1
    22    12    13   ar
    23    13    14   ar
    24    14    15   ar
    25    15    16   ar
    26    18    19    1
    27    19    20    1
    28    19    21    1
    29    10     1   ar
    30    16    12   ar
    31     9     4   ar
@<TRIPOS>MOLECULE
*****
 29 31 0 0 0
SMALL
GASTEIGER

@<TRIPOS>ATOM
      1 C           3.3069   -0.7787   21.0115 C.ar    1  UNL1       -0.0004
      2 C           3.7617   -1.2991   22.3428 C.ar    1  UNL1       -0.0024
      3 C           3.1451   -0.7719   23.6045 C.ar    1  UNL1       -0.0002
      4 C           2.0739    0.2758   23.5349 C.ar    1  UNL1        0.0030
      5 C           1.4573    0.8030   24.7966 C.ar    1  UNL1        0.0369
      6 C           0.3860    1.8507   24.7270 C.ar    1  UNL1        0.1386
      7 C          -0.0687    2.3710   23.3956 C.ar    1  UNL1        0.0369
      8 C           0.5479    1.8438   22.1340 C.ar    1  UNL1        0.0031
      9 C           1.6191    0.7962   22.2036 C.ar    1  UNL1       -0.0001
     10 C           2.2357    0.2689   20.9419 C.ar    1  UNL1       -0.0024
     11 C           3.9235   -1.3060   19.7498 C.3     1  UNL1        0.1240
     12 N           4.2509   -2.7647   19.6277 N.ar    1  UNL1       -0.3045
     13 C           3.3124   -3.8443   19.1764 C.ar    1  UNL1        0.0983
     14 C           4.0558   -5.1468   19.2053 C.ar    1  UNL1        0.1193
     15 N           5.4539   -4.8722   19.6745 N.ar    1  UNL1       -0.2223
     16 C           5.5744   -3.4000   19.9356 C.ar    1  UNL1        0.1788
     17 C           3.5906   -0.6172   17.2669 C.3     1  UNL1        0.0197
     18 C           4.2125   -0.3745   18.6102 C.3     1  UNL1        0.0827
     19 N           5.1235    0.7997   18.8138 N.3     1  UNL1       -0.2696
     20 C           4.6370    2.1869   18.5154 C.3     1  UNL1        0.0897
     21 C           6.5208    0.5867   19.3157 C.3     1  UNL1        0.0897
     22 O          -0.2305    2.3779   25.9887 O.3     1  UNL1       -0.4751
     23 C           0.5502    2.3598   27.2695 C.3     1  UNL1        0.2103
     24 C           0.4028    1.2100   28.2214 C.3     1  UNL1        0.0724
     25 C          -1.0712    1.1710   27.9462 C.3     1  UNL1        0.0093
     26 C           1.8768    1.2489   28.4966 C.3     1  UNL1        0.0093
     27 C           0.2555    0.0602   29.1733 C.2     1  UNL1        0.0532
     28 O           1.4290   -0.3915   29.9913 O.co2   1  UNL1       -0.5491
     29 O          -1.0653   -0.6380   29.3074 O.co2   1  UNL1       -0.5491
@<TRIPOS>UNITY_ATOM_ATTR
28 1
charge -1
@<TRIPOS>BOND
     1    17    18    1
     2    18    11    1
     3    11     1    1
     4     1     2   ar
     5     2     3   ar
     6     3     4   ar
     7     4     5   ar
     8     5     6   ar
     9     6    22    1
    10    22    23    1
    11    23    24    1
    12    24    25    1
    13    24    26    1
    14    24    27    1
    15    27    28   ar
    16    27    29   ar
    17     6     7   ar
    18     7     8   ar
    19     8     9   ar
    20     9    10   ar
    21    11    12    1
    22    12    13   ar
    23    13    14   ar
    24    14    15   ar
    25    15    16   ar
    26    18    19    1
    27    19    20    1
    28    19    21    1
    29    10     1   ar
    30    16    12   ar
    31     9     4   ar
@<TRIPOS>MOLECULE
*****
 29 31 0 0 0
SMALL
GASTEIGER

@<TRIPOS>ATOM
      1 C           3.0753   -0.9186   20.3689 C.ar    1  UNL1       -0.0004
      2 C           1.6872   -0.7773   19.8182 C.ar    1  UNL1       -0.0024
      3 C           0.6696    0.0451   20.5517 C.ar    1  UNL1       -0.0002
      4 C           1.0400    0.7263   21.8357 C.ar    1  UNL1        0.0030
      5 C           0.0223    1.5487   22.5692 C.ar    1  UNL1        0.0369
      6 C           0.3927    2.2298   23.8532 C.ar    1  UNL1        0.1386
      7 C           1.7808    2.0885   24.4039 C.ar    1  UNL1        0.0369
      8 C           2.7985    1.2661   23.6704 C.ar    1  UNL1        0.0031
      9 C           2.4281    0.5850   22.3864 C.ar    1  UNL1       -0.0001
     10 C           3.4457   -0.2374   21.6529 C.ar    1  UNL1       -0.0024
     11 C           4.0931   -1.7410   19.6354 C.3     1  UNL1        0.1240
     12 N           4.9393   -1.1109   18.5692 N.ar    1  UNL1       -0.3045
     13 C           4.5253    0.0105   17.6630 C.ar    1  UNL1        0.0983
     14 C           5.6782    0.3230   16.7557 C.ar    1  UNL1        0.1193
     15 N           6.8047   -0.6053   17.1010 N.ar    1  UNL1       -0.2223
     16 C           6.3480   -1.4915   18.2218 C.ar    1  UNL1        0.1788
     17 C           3.5285   -4.2357   19.1795 C.3     1  UNL1        0.0197
     18 C           4.2646   -3.1935   19.9682 C.3     1  UNL1        0.0827
     19 N           5.1722   -3.6038   21.0898 N.3     1  UNL1       -0.2696
     20 C           6.6072   -3.9386   20.8092 C.3     1  UNL1        0.0897
     21 C           4.6448   -3.6795   22.4920 C.3     1  UNL1        0.0897
     22 O          -0.6250    3.0522   24.5867 O.3     1  UNL1       -0.4751
     23 C          -1.5997    3.8971   23.8209 C.3     1  UNL1        0.2103
     24 C          -3.0739    3.6675   23.9750 C.3     1  UNL1        0.0724
     25 C          -2.9278    3.7301   25.4665 C.3     1  UNL1        0.0093
     26 C          -3.2201    3.6050   22.4835 C.3     1  UNL1        0.0093
     27 C          -4.5482    3.4380   24.1291 C.2     1  UNL1        0.0532
     28 O          -5.3976    3.1804   22.9199 O.co2   1  UNL1       -0.5491
     29 O          -5.1732    3.4661   25.4925 O.co2   1  UNL1       -0.5491
@<TRIPOS>UNITY_ATOM_ATTR
28 1
charge -1
@<TRIPOS>BOND
     1    17    18    1
     2    18    11    1
     3    11     1    1
     4     1     2   ar
     5     2     3   ar
     6     3     4   ar
     7     4     5   ar
     8     5     6   ar
     9     6    22    1
    10    22    23    1
    11    23    24    1
    12    24    25    1
    13    24    26    1
    14    24    27    1
    15    27    28   ar
    16    27    29   ar
    17     6     7   ar
    18     7     8   ar
    19     8     9   ar
    20     9    10   ar
    21    11    12    1
    22    12    13   ar
    23    13    14   ar
    24    14    15   ar
    25    15    16   ar
    26    18    19    1
    27    19    20    1
    28    19    21    1
    29    10     1   ar
    30    16    12   ar
    31     9     4   ar
@<TRIPOS>MOLECULE
*****
 29 31 0 0 0
SMALL
GASTEIGER

@<TRIPOS>ATOM
      1 C          -1.3871    3.2403   19.8127 C.ar    1  UNL1       -0.0004
      2 C          -0.5075    3.9092   18.7984 C.ar    1  UNL1       -0.0024
      3 C           0.7627    3.2466   18.3539 C.ar    1  UNL1       -0.0002
      4 C           1.1532    1.9151   18.9237 C.ar    1  UNL1        0.0030
      5 C           2.4235    1.2525   18.4792 C.ar    1  UNL1        0.0369
      6 C           2.8140   -0.0789   19.0489 C.ar    1  UNL1        0.1386
      7 C           1.9343   -0.7478   20.0632 C.ar    1  UNL1        0.0369
      8 C           0.6641   -0.0852   20.5077 C.ar    1  UNL1        0.0031
      9 C           0.2736    1.2462   19.9380 C.ar    1  UNL1       -0.0001
     10 C          -0.9966    1.9088   20.3825 C.ar    1  UNL1       -0.0024
     11 C          -2.6573    3.9029   20.2572 C.3     1  UNL1        0.1240
     12 N          -3.1132    3.7721   21.6803 N.ar    1  UNL1       -0.3045
     13 C          -4.4303    3.2180   22.1368 C.ar    1  UNL1        0.0983
     14 C          -4.4632    3.2758   23.6353 C.ar    1  UNL1        0.1193
     15 N          -3.1664    3.8656   24.1050 N.ar    1  UNL1       -0.2223
     16 C          -2.3321    4.1723   22.8967 C.ar    1  UNL1        0.1788
     17 C          -3.4538    6.1954   19.3297 C.3     1  UNL1        0.0197
     18 C          -3.4716    4.6963   19.2787 C.3     1  UNL1        0.0827
     19 N          -4.3037    3.9907   18.2493 N.3     1  UNL1       -0.2696
     20 C          -3.7668    3.7845   16.8639 C.3     1  UNL1        0.0897
     21 C          -5.6725    3.4913   18.6052 C.3     1  UNL1        0.0897
     22 O           4.0841   -0.7415   18.6044 O.3     1  UNL1       -0.4751
     23 C           4.1291   -2.2295   18.4200 C.3     1  UNL1        0.2103
     24 C           4.6773   -3.1040   19.5085 C.3     1  UNL1        0.0724
     25 C           3.6360   -4.1390   19.2015 C.3     1  UNL1        0.0093
     26 C           5.7186   -2.0689   19.8155 C.3     1  UNL1        0.0093
     27 C           5.2255   -3.9784   20.5970 C.2     1  UNL1        0.0532
     28 O           6.6123   -4.5385   20.4822 O.co2   1  UNL1       -0.5491
     29 O           4.3869   -4.2927   21.8003 O.co2   1  UNL1       -0.5491
@<TRIPOS>UNITY_ATOM_ATTR
28 1
charge -1
@<TRIPOS>BOND
     1    17    18    1
     2    18    11    1
     3    11     1    1
     4     1     2   ar
     5     2     3   ar
     6     3     4   ar
     7     4     5   ar
     8     5     6   ar
     9     6    22    1
    10    22    23    1
    11    23    24    1
    12    24    25    1
    13    24    26    1
    14    24    27    1
    15    27    28   ar
    16    27    29   ar
    17     6     7   ar
    18     7     8   ar
    19     8     9   ar
    20     9    10   ar
    21    11    12    1
    22    12    13   ar
    23    13    14   ar
    24    14    15   ar
    25    15    16   ar
    26    18    19    1
    27    19    20    1
    28    19    21    1
    29    10     1   ar
    30    16    12   ar
    31     9     4   ar
@<TRIPOS>MOLECULE
*****
 29 31 0 0 0
SMALL
GASTEIGER

@<TRIPOS>ATOM
      1 C           1.6022    1.1844   25.3963 C.ar    1  UNL1       -0.0004
      2 C           2.8096    0.2967   25.4607 C.ar    1  UNL1       -0.0024
      3 C           3.2788   -0.4215   24.2303 C.ar    1  UNL1       -0.0002
      4 C           2.5406   -0.2521   22.9355 C.ar    1  UNL1        0.0030
      5 C           3.0099   -0.9704   21.7051 C.ar    1  UNL1        0.0369
      6 C           2.2718   -0.8009   20.4103 C.ar    1  UNL1        0.1386
      7 C           1.0644    0.0869   20.3460 C.ar    1  UNL1        0.0369
      8 C           0.5952    0.8051   21.5764 C.ar    1  UNL1        0.0031
      9 C           1.3333    0.6356   22.8712 C.ar    1  UNL1       -0.0001
     10 C           0.8641    1.3539   24.1015 C.ar    1  UNL1       -0.0024
     11 C           1.1329    1.9028   26.6267 C.3     1  UNL1        0.1240
     12 N           0.3788    1.1580   27.6882 N.ar    1  UNL1       -0.3045
     13 C          -1.1044    1.1974   27.9081 C.ar    1  UNL1        0.0983
     14 C          -1.4244    0.3069   29.0720 C.ar    1  UNL1        0.1193
     15 N          -0.1388   -0.2829   29.5714 N.ar    1  UNL1       -0.2223
     16 C           0.9756    0.2431   28.7162 C.ar    1  UNL1        0.1788
     17 C           2.8017    3.8246   27.1483 C.3     1  UNL1        0.0197
     18 C           1.4177    3.3657   26.7956 C.3     1  UNL1        0.0827
     19 N           0.3187    4.3699   26.6119 N.3     1  UNL1       -0.2696
     20 C          -0.0155    4.8732   25.2389 C.3     1  UNL1        0.0897
     21 C          -0.4461    4.8707   27.8010 C.3     1  UNL1        0.0897
     22 O           2.7410   -1.5192   19.1800 O.3     1  UNL1       -0.4751
     23 C           4.2051   -1.7686   18.9695 C.3     1  UNL1        0.2103
     24 C           4.7962   -3.1027   19.3167 C.3     1  UNL1        0.0724
     25 C           3.4863   -3.7640   19.0056 C.3     1  UNL1        0.0093
     26 C           6.1061   -2.4415   19.6278 C.3     1  UNL1        0.0093
     27 C           5.3872   -4.4369   19.6639 C.2     1  UNL1        0.0532
     28 O           4.8246   -5.6876   19.0561 O.co2   1  UNL1       -0.5491
     29 O           6.5410   -4.5205   20.6189 O.co2   1  UNL1       -0.5491
@<TRIPOS>UNITY_ATOM_ATTR
28 1
charge -1
@<TRIPOS>BOND
     1    17    18    1
     2    18    11    1
     3    11     1    1
     4     1     2   ar
     5     2     3   ar
     6     3     4   ar
     7     4     5   ar
     8     5     6   ar
     9     6    22    1
    10    22    23    1
    11    23    24    1
    12    24    25    1
    13    24    26    1
    14    24    27    1
    15    27    28   ar
    16    27    29   ar
    17     6     7   ar
    18     7     8   ar
    19     8     9   ar
    20     9    10   ar
    21    11    12    1
    22    12    13   ar
    23    13    14   ar
    24    14    15   ar
    25    15    16   ar
    26    18    19    1
    27    19    20    1
    28    19    21    1
    29    10     1   ar
    30    16    12   ar
    31     9     4   ar
@<TRIPOS>MOLECULE
*****
 29 31 0 0 0
SMALL
GASTEIGER

@<TRIPOS>ATOM
      1 C           3.9539   -1.8882   21.7509 C.ar    1  UNL1       -0.0004
      2 C           3.4934   -1.0719   22.9220 C.ar    1  UNL1       -0.0024
      3 C           4.0763   -1.3165   24.2823 C.ar    1  UNL1       -0.0002
      4 C           5.1198   -2.3773   24.4714 C.ar    1  UNL1        0.0030
      5 C           5.7027   -2.6219   25.8318 C.ar    1  UNL1        0.0369
      6 C           6.7462   -3.6827   26.0209 C.ar    1  UNL1        0.1386
      7 C           7.2067   -4.4990   24.8497 C.ar    1  UNL1        0.0369
      8 C           6.6238   -4.2544   23.4895 C.ar    1  UNL1        0.0031
      9 C           5.5803   -3.1936   23.3003 C.ar    1  UNL1       -0.0001
     10 C           4.9974   -2.9490   21.9401 C.ar    1  UNL1       -0.0024
     11 C           3.3710   -1.6436   20.3906 C.3     1  UNL1        0.1240
     12 N           2.4001   -0.5194   20.1817 N.ar    1  UNL1       -0.3045
     13 C           2.7541    0.9069   19.8815 C.ar    1  UNL1        0.0983
     14 C           1.4776    1.6837   19.7506 C.ar    1  UNL1        0.1193
     15 N           0.3346    0.7374   19.9700 N.ar    1  UNL1       -0.2223
     16 C           0.9048   -0.6242   20.2364 C.ar    1  UNL1        0.1788
     17 C           3.2520   -3.9333   19.1685 C.3     1  UNL1        0.0197
     18 C           3.7589   -2.5233   19.2392 C.3     1  UNL1        0.0827
     19 N           4.6537   -1.9929   18.1585 N.3     1  UNL1       -0.2696
     20 C           4.0956   -1.0900   17.0985 C.3     1  UNL1        0.0897
     21 C           6.1065   -2.3655   18.1376 C.3     1  UNL1        0.0897
     22 O           7.3291   -3.9273   27.3812 O.3     1  UNL1       -0.4751
     23 C           6.4683   -4.4815   28.4775 C.3     1  UNL1        0.2103
     24 C           6.8146   -4.2120   29.9118 C.3     1  UNL1        0.0724
     25 C           6.5731   -2.7476   29.6949 C.3     1  UNL1        0.0093
     26 C           7.0560   -5.6764   30.1287 C.3     1  UNL1        0.0093
     27 C           7.1609   -3.9425   31.3462 C.2     1  UNL1        0.0532
     28 O           6.0825   -3.5736   32.3216 O.co2   1  UNL1       -0.5491
     29 O           8.5854   -4.0418   31.8053 O.co2   1  UNL1       -0.5491
@<TRIPOS>UNITY_ATOM_ATTR
28 1
charge -1
@<TRIPOS>BOND
     1    17    18    1
     2    18    11    1
     3    11     1    1
     4     1     2   ar
     5     2     3   ar
     6     3     4   ar
     7     4     5   ar
     8     5     6   ar
     9     6    22    1
    10    22    23    1
    11    23    24    1
    12    24    25    1
    13    24    26    1
    14    24    27    1
    15    27    28   ar
    16    27    29   ar
    17     6     7   ar
    18     7     8   ar
    19     8     9   ar
    20     9    10   ar
    21    11    12    1
    22    12    13   ar
    23    13    14   ar
    24    14    15   ar
    25    15    16   ar
    26    18    19    1
    27    19    20    1
    28    19    21    1
    29    10     1   ar
    30    16    12   ar
    31     9     4   ar
