@<TRIPOS>MOLECULE
*****
 36 41 0 0 0
SMALL
GASTEIGER

@<TRIPOS>ATOM
      1 C          -1.5313    2.9630   24.7119 C.ar    1  UNL1        0.1335
      2 C          -0.6996    2.0833   25.5976 C.ar    1  UNL1        0.0359
      3 C           0.4812    1.3515   25.0319 C.ar    1  UNL1        0.0236
      4 C           0.8304    1.4994   23.5807 C.ar    1  UNL1        0.1025
      5 C          -0.0012    2.3791   22.6950 C.ar    1  UNL1        0.1813
      6 N          -1.1821    3.1109   23.2606 N.ar    1  UNL1       -0.2104
      7 N           0.5819    2.3302   21.3139 N.ar    1  UNL1       -0.2076
      8 C           1.7740    1.4203   21.3459 C.ar    1  UNL1        0.1505
      9 N           1.9276    0.9068   22.7469 N.ar    1  UNL1       -0.2735
     10 C          -6.2549    5.8905   26.9742 C.3     1  UNL1        0.0897
     11 N          -5.0740    5.1586   26.4087 N.3     1  UNL1       -0.2686
     12 C          -3.7338    5.2705   27.0731 C.3     1  UNL1        0.0939
     13 C          -2.5529    4.5386   26.5074 C.3     1  UNL1        0.1095
     14 N          -2.7122    3.6949   25.2775 N.pl3   1  UNL1       -0.2903
     15 C          -4.0524    3.5831   24.6132 C.3     1  UNL1        0.1095
     16 C          -5.2333    4.3149   25.1787 C.3     1  UNL1        0.0939
     17 C           2.6574    1.0832   20.1814 C.ar    1  UNL1        0.0347
     18 C           2.1483    0.1927   19.0870 C.ar    1  UNL1        0.0053
     19 C           3.0316   -0.1445   17.9225 C.ar    1  UNL1        0.0297
     20 C           4.4240    0.4088   17.8525 C.ar    1  UNL1        0.1401
     21 F           5.3074    0.0717   16.6880 F       1  UNL1       -0.2042
     22 C           4.9331    1.2993   18.9469 C.ar    1  UNL1        0.0297
     23 C           4.0498    1.6365   20.1114 C.ar    1  UNL1        0.0053
     24 C           2.9916   -0.0340   23.2294 C.ar    1  UNL1        0.1533
     25 C           3.8602    0.3482   24.3911 C.ar    1  UNL1        0.0582
     26 C           4.9241   -0.5927   24.8735 C.ar    1  UNL1        0.1049
     27 N           5.1194   -1.9158   24.1943 N.ar    1  UNL1       -0.2122
     28 C           4.2508   -2.2980   23.0326 C.ar    1  UNL1        0.2182
     29 N           3.1869   -1.3571   22.5502 N.ar    1  UNL1       -0.1960
     30 N           4.4462   -3.6211   22.3535 N.pl3   1  UNL1       -0.3046
     31 H           4.4980   -4.4460   22.8883 H       1  UNL1        0.1496
     32 C           4.5627   -3.6872   20.8595 C.3     1  UNL1        0.0718
     33 C           3.9125   -4.7039   19.9686 C.3     1  UNL1        0.0196
     34 C           4.2978   -4.3934   18.5526 C.3     1  UNL1        0.0017
     35 C           5.1860   -3.1848   18.5683 C.3     1  UNL1        0.0017
     36 C           5.3498   -2.7484   19.9941 C.3     1  UNL1        0.0196
@<TRIPOS>BOND
     1    10    11    1
     2    11    12    1
     3    12    13    1
     4    13    14    1
     5    14     1    1
     6     1     2   ar
     7     2     3   ar
     8     3     4   ar
     9     4     5   ar
    10     5     6   ar
    11     5     7   ar
    12     7     8   ar
    13     8    17    1
    14    17    18   ar
    15    18    19   ar
    16    19    20   ar
    17    20    21    1
    18    20    22   ar
    19    22    23   ar
    20     8     9   ar
    21     9    24    1
    22    24    25   ar
    23    25    26   ar
    24    26    27   ar
    25    27    28   ar
    26    28    30    1
    27    30    32    1
    28    32    33    1
    29    33    34    1
    30    34    35    1
    31    35    36    1
    32    28    29   ar
    33    14    15    1
    34    15    16    1
    35    16    11    1
    36     6     1   ar
    37    23    17   ar
    38    29    24   ar
    39     9     4   ar
    40    36    32    1
    41    30    31    1
@<TRIPOS>MOLECULE
*****
 36 41 0 0 0
SMALL
GASTEIGER

@<TRIPOS>ATOM
      1 C          -1.5426    2.9815   24.7065 C.ar    1  UNL1        0.1335
      2 C          -0.7052    2.1100   25.5948 C.ar    1  UNL1        0.0359
      3 C           0.4790    1.3823   25.0308 C.ar    1  UNL1        0.0236
      4 C           0.8259    1.5263   23.5786 C.ar    1  UNL1        0.1025
      5 C          -0.0115    2.3978   22.6903 C.ar    1  UNL1        0.1813
      6 N          -1.1958    3.1254   23.2542 N.ar    1  UNL1       -0.2104
      7 N           0.5704    2.3466   21.3088 N.ar    1  UNL1       -0.2076
      8 C           1.7676    1.4434   21.3432 C.ar    1  UNL1        0.1505
      9 N           1.9255    0.9364   22.7461 N.ar    1  UNL1       -0.2735
     10 C          -6.2798    5.8921   26.9622 C.3     1  UNL1        0.0897
     11 N          -5.0955    5.1645   26.3983 N.3     1  UNL1       -0.2686
     12 C          -5.2501    4.3204   25.1680 C.3     1  UNL1        0.0939
     13 C          -4.0657    3.5927   24.6041 C.3     1  UNL1        0.1095
     14 N          -2.7270    3.7092   25.2704 N.pl3   1  UNL1       -0.2903
     15 C          -2.5724    4.5533   26.5007 C.3     1  UNL1        0.1095
     16 C          -3.7566    5.2810   27.0646 C.3     1  UNL1        0.0939
     17 C           2.6516    1.1064   20.1791 C.ar    1  UNL1        0.0347
     18 C           4.0256    1.7005   20.0841 C.ar    1  UNL1        0.0053
     19 C           4.9096    1.3636   18.9201 C.ar    1  UNL1        0.0297
     20 C           4.4196    0.4325   17.8511 C.ar    1  UNL1        0.1401
     21 F           5.3036    0.0955   16.6870 F       1  UNL1       -0.2042
     22 C           3.0455   -0.1617   17.9461 C.ar    1  UNL1        0.0297
     23 C           2.1615    0.1753   19.1101 C.ar    1  UNL1        0.0053
     24 C           2.9951    0.0033   23.2312 C.ar    1  UNL1        0.1533
     25 C           3.8669    0.3977   24.3864 C.ar    1  UNL1        0.0582
     26 C           4.9364   -0.5354   24.8715 C.ar    1  UNL1        0.1049
     27 N           5.1342   -1.8628   24.2014 N.ar    1  UNL1       -0.2122
     28 C           4.2624   -2.2571   23.0462 C.ar    1  UNL1        0.2182
     29 N           3.1929   -1.3240   22.5611 N.ar    1  UNL1       -0.1960
     30 N           4.4602   -3.5844   22.3762 N.pl3   1  UNL1       -0.3046
     31 H           4.5271   -4.4040   22.9175 H       1  UNL1        0.1496
     32 C           4.5561   -3.6630   20.8813 C.3     1  UNL1        0.0718
     33 C           3.8806   -4.6772   20.0066 C.3     1  UNL1        0.0196
     34 C           4.2513   -4.3823   18.5834 C.3     1  UNL1        0.0017
     35 C           5.1560   -3.1859   18.5785 C.3     1  UNL1        0.0017
     36 C           5.3444   -2.7413   19.9987 C.3     1  UNL1        0.0196
@<TRIPOS>BOND
     1    10    11    1
     2    11    12    1
     3    12    13    1
     4    13    14    1
     5    14     1    1
     6     1     2   ar
     7     2     3   ar
     8     3     4   ar
     9     4     5   ar
    10     5     6   ar
    11     5     7   ar
    12     7     8   ar
    13     8    17    1
    14    17    18   ar
    15    18    19   ar
    16    19    20   ar
    17    20    21    1
    18    20    22   ar
    19    22    23   ar
    20     8     9   ar
    21     9    24    1
    22    24    25   ar
    23    25    26   ar
    24    26    27   ar
    25    27    28   ar
    26    28    30    1
    27    30    32    1
    28    32    33    1
    29    33    34    1
    30    34    35    1
    31    35    36    1
    32    28    29   ar
    33    14    15    1
    34    15    16    1
    35    16    11    1
    36     6     1   ar
    37    23    17   ar
    38    29    24   ar
    39     9     4   ar
    40    36    32    1
    41    30    31    1
@<TRIPOS>MOLECULE
*****
 36 41 0 0 0
SMALL
GASTEIGER

@<TRIPOS>ATOM
      1 C           6.4635   -3.4660   25.9371 C.ar    1  UNL1        0.1335
      2 C           7.0457   -3.9992   24.6617 C.ar    1  UNL1        0.0359
      3 C           6.4973   -3.5475   23.3406 C.ar    1  UNL1        0.0236
      4 C           5.3668   -2.5627   23.2949 C.ar    1  UNL1        0.1025
      5 C           4.7847   -2.0295   24.5704 C.ar    1  UNL1        0.1813
      6 N           5.3330   -2.4811   25.8914 N.ar    1  UNL1       -0.2104
      7 N           3.6830   -1.0760   24.2140 N.ar    1  UNL1       -0.2076
      8 C           3.5842   -1.0198   22.7183 C.ar    1  UNL1        0.1505
      9 N           4.6249   -1.9386   22.1502 N.ar    1  UNL1       -0.2735
     10 C           8.6566   -5.2726   31.2216 C.3     1  UNL1        0.0897
     11 N           8.1084   -4.8210   29.9005 N.3     1  UNL1       -0.2686
     12 C           8.8240   -3.7633   29.1136 C.3     1  UNL1        0.0939
     13 C           8.2757   -3.3117   27.7924 C.3     1  UNL1        0.1095
     14 N           7.0118   -3.9176   27.2583 N.pl3   1  UNL1       -0.2903
     15 C           6.2962   -4.9753   28.0452 C.3     1  UNL1        0.1095
     16 C           6.8445   -5.4270   29.3663 C.3     1  UNL1        0.0939
     17 C           2.6149   -0.1904   21.9292 C.ar    1  UNL1        0.0347
     18 C           1.7777   -0.8289   20.8608 C.ar    1  UNL1        0.0053
     19 C           0.8085    0.0004   20.0717 C.ar    1  UNL1        0.0297
     20 C           0.6764    1.4682   20.3510 C.ar    1  UNL1        0.1401
     21 F          -0.2929    2.2976   19.5619 F       1  UNL1       -0.2042
     22 C           1.5135    2.1067   21.4194 C.ar    1  UNL1        0.0297
     23 C           2.4828    1.2774   22.2085 C.ar    1  UNL1        0.0053
     24 C           4.8791   -2.1895   20.6934 C.ar    1  UNL1        0.1533
     25 C           4.7881   -3.5827   20.1452 C.ar    1  UNL1        0.0582
     26 C           5.0423   -3.8334   18.6883 C.ar    1  UNL1        0.1049
     27 N           5.3875   -2.6910   17.7797 N.ar    1  UNL1       -0.2122
     28 C           5.4784   -1.2977   18.3279 C.ar    1  UNL1        0.2182
     29 N           5.2242   -1.0470   19.7847 N.ar    1  UNL1       -0.1960
     30 N           5.8235   -0.1552   17.4192 N.pl3   1  UNL1       -0.3046
     31 H           6.4448   -0.2939   16.6682 H       1  UNL1        0.1496
     32 C           5.2220    1.1985   17.6548 C.3     1  UNL1        0.0718
     33 C           3.8594    1.4717   18.2193 C.3     1  UNL1        0.0196
     34 C           3.6727    2.9588   18.2807 C.3     1  UNL1        0.0017
     35 C           4.9199    3.6046   17.7540 C.3     1  UNL1        0.0017
     36 C           5.8774    2.5167   17.3672 C.3     1  UNL1        0.0196
@<TRIPOS>BOND
     1    10    11    1
     2    11    12    1
     3    12    13    1
     4    13    14    1
     5    14     1    1
     6     1     2   ar
     7     2     3   ar
     8     3     4   ar
     9     4     5   ar
    10     5     6   ar
    11     5     7   ar
    12     7     8   ar
    13     8    17    1
    14    17    18   ar
    15    18    19   ar
    16    19    20   ar
    17    20    21    1
    18    20    22   ar
    19    22    23   ar
    20     8     9   ar
    21     9    24    1
    22    24    25   ar
    23    25    26   ar
    24    26    27   ar
    25    27    28   ar
    26    28    30    1
    27    30    32    1
    28    32    33    1
    29    33    34    1
    30    34    35    1
    31    35    36    1
    32    28    29   ar
    33    14    15    1
    34    15    16    1
    35    16    11    1
    36     6     1   ar
    37    23    17   ar
    38    29    24   ar
    39     9     4   ar
    40    36    32    1
    41    30    31    1
@<TRIPOS>MOLECULE
*****
 36 41 0 0 0
SMALL
GASTEIGER

@<TRIPOS>ATOM
      1 C           1.6466    0.9500   22.0839 C.ar    1  UNL1        0.1335
      2 C           2.1209    0.3305   23.3650 C.ar    1  UNL1        0.0359
      3 C           1.5187    0.7553   24.6714 C.ar    1  UNL1        0.0236
      4 C           0.4422    1.7996   24.6968 C.ar    1  UNL1        0.1025
      5 C          -0.0320    2.4191   23.4157 C.ar    1  UNL1        0.1813
      6 N           0.5702    1.9943   22.1092 N.ar    1  UNL1       -0.2104
      7 N          -1.1003    3.4172   23.7511 N.ar    1  UNL1       -0.2076
      8 C          -1.2863    3.4146   25.2395 C.ar    1  UNL1        0.1505
      9 N          -0.3330    2.4149   25.8240 N.ar    1  UNL1       -0.2735
     10 C           4.0554   -0.7494   16.8580 C.3     1  UNL1        0.0897
     11 N           3.4533   -0.3245   18.1644 N.3     1  UNL1       -0.2686
     12 C           3.0709    1.1094   18.3830 C.3     1  UNL1        0.0939
     13 C           2.4687    1.5342   19.6895 C.3     1  UNL1        0.1095
     14 N           2.2489    0.5251   20.7774 N.pl3   1  UNL1       -0.2903
     15 C           2.6312   -0.9087   20.5588 C.3     1  UNL1        0.1095
     16 C           3.2334   -1.3336   19.2523 C.3     1  UNL1        0.0939
     17 C          -2.2556    4.2628   26.0084 C.ar    1  UNL1        0.0347
     18 C          -1.7740    5.4889   26.7259 C.ar    1  UNL1        0.0053
     19 C          -2.7432    6.3372   27.4948 C.ar    1  UNL1        0.0297
     20 C          -4.1938    5.9593   27.5462 C.ar    1  UNL1        0.1401
     21 F          -5.1631    6.8075   28.3151 F       1  UNL1       -0.2042
     22 C          -4.6754    4.7332   26.8287 C.ar    1  UNL1        0.0297
     23 C          -3.7062    3.8850   26.0598 C.ar    1  UNL1        0.0053
     24 C          -0.1814    2.0878   27.2801 C.ar    1  UNL1        0.1533
     25 C          -0.6363    0.7568   27.8011 C.ar    1  UNL1        0.0582
     26 C          -0.4847    0.4298   29.2571 C.ar    1  UNL1        0.1049
     27 N           0.1218    1.4338   30.1921 N.ar    1  UNL1       -0.2122
     28 C           0.5767    2.7648   29.6711 C.ar    1  UNL1        0.2182
     29 N           0.4251    3.0918   28.2151 N.ar    1  UNL1       -0.1960
     30 N           1.1832    3.7687   30.6061 N.pl3   1  UNL1       -0.3046
     31 H           2.1594    3.7984   30.7307 H       1  UNL1        0.1496
     32 C           0.3025    4.7275   31.3511 C.3     1  UNL1        0.0718
     33 C          -0.2224    6.0314   30.8276 C.3     1  UNL1        0.0196
     34 C          -1.0574    6.6605   31.9034 C.3     1  UNL1        0.0017
     35 C          -1.0484    5.7453   33.0917 C.3     1  UNL1        0.0017
     36 C          -0.2080    4.5506   32.7504 C.3     1  UNL1        0.0196
@<TRIPOS>BOND
     1    10    11    1
     2    11    12    1
     3    12    13    1
     4    13    14    1
     5    14     1    1
     6     1     2   ar
     7     2     3   ar
     8     3     4   ar
     9     4     5   ar
    10     5     6   ar
    11     5     7   ar
    12     7     8   ar
    13     8    17    1
    14    17    18   ar
    15    18    19   ar
    16    19    20   ar
    17    20    21    1
    18    20    22   ar
    19    22    23   ar
    20     8     9   ar
    21     9    24    1
    22    24    25   ar
    23    25    26   ar
    24    26    27   ar
    25    27    28   ar
    26    28    30    1
    27    30    32    1
    28    32    33    1
    29    33    34    1
    30    34    35    1
    31    35    36    1
    32    28    29   ar
    33    14    15    1
    34    15    16    1
    35    16    11    1
    36     6     1   ar
    37    23    17   ar
    38    29    24   ar
    39     9     4   ar
    40    36    32    1
    41    30    31    1
@<TRIPOS>MOLECULE
*****
 36 41 0 0 0
SMALL
GASTEIGER

@<TRIPOS>ATOM
      1 C          -2.3989    3.9411   19.0356 C.ar    1  UNL1        0.1335
      2 C          -1.3936    3.9026   17.9229 C.ar    1  UNL1        0.0359
      3 C          -0.1015    3.1629   18.1049 C.ar    1  UNL1        0.0236
      4 C           0.1854    2.4617   19.3995 C.ar    1  UNL1        0.1025
      5 C          -0.8198    2.5002   20.5121 C.ar    1  UNL1        0.1813
      6 N          -2.1119    3.2398   20.3301 N.ar    1  UNL1       -0.2104
      7 N          -0.2633    1.7208   21.6667 N.ar    1  UNL1       -0.2076
      8 C           1.0858    1.2007   21.2676 C.ar    1  UNL1        0.1505
      9 N           1.3632    1.6586   19.8664 N.ar    1  UNL1       -0.2735
     10 C          -7.5677    6.8997   18.3078 C.3     1  UNL1        0.0897
     11 N          -6.2755    6.1601   18.4898 N.3     1  UNL1       -0.2686
     12 C          -5.2155    6.7137   19.3952 C.3     1  UNL1        0.0939
     13 C          -3.9233    5.9740   19.5772 C.3     1  UNL1        0.1095
     14 N          -3.6911    4.6808   18.8536 N.pl3   1  UNL1       -0.2903
     15 C          -4.7511    4.1271   17.9482 C.3     1  UNL1        0.1095
     16 C          -6.0433    4.8668   17.7662 C.3     1  UNL1        0.0939
     17 C           1.9976    0.3688   22.1201 C.ar    1  UNL1        0.0347
     18 C           2.2822    0.7782   23.5348 C.ar    1  UNL1        0.0053
     19 C           3.1939   -0.0537   24.3873 C.ar    1  UNL1        0.0297
     20 C           3.8209   -1.2949   23.8252 C.ar    1  UNL1        0.1401
     21 F           4.7326   -2.1269   24.6777 F       1  UNL1       -0.2042
     22 C           3.5362   -1.7043   22.4105 C.ar    1  UNL1        0.0297
     23 C           2.6246   -0.8725   21.5579 C.ar    1  UNL1        0.0053
     24 C           2.6010    1.3649   19.0716 C.ar    1  UNL1        0.1533
     25 C           3.5317    2.4790   18.6940 C.ar    1  UNL1        0.0582
     26 C           4.7695    2.1853   17.8993 C.ar    1  UNL1        0.1049
     27 N           5.0765    0.7776   17.4821 N.ar    1  UNL1       -0.2122
     28 C           4.1457   -0.3365   17.8597 C.ar    1  UNL1        0.2182
     29 N           2.9080   -0.0428   18.6544 N.ar    1  UNL1       -0.1960
     30 N           4.4528   -1.7442   17.4425 N.pl3   1  UNL1       -0.3046
     31 H           4.5475   -1.9652   16.4878 H       1  UNL1        0.1496
     32 C           4.6155   -2.8153   18.4799 C.3     1  UNL1        0.0718
     33 C           3.5359   -3.7276   18.9820 C.3     1  UNL1        0.0196
     34 C           4.1394   -4.6384   20.0098 C.3     1  UNL1        0.0017
     35 C           5.5921   -4.2889   20.1429 C.3     1  UNL1        0.0017
     36 C           5.8863   -3.1621   19.1973 C.3     1  UNL1        0.0196
@<TRIPOS>BOND
     1    10    11    1
     2    11    12    1
     3    12    13    1
     4    13    14    1
     5    14     1    1
     6     1     2   ar
     7     2     3   ar
     8     3     4   ar
     9     4     5   ar
    10     5     6   ar
    11     5     7   ar
    12     7     8   ar
    13     8    17    1
    14    17    18   ar
    15    18    19   ar
    16    19    20   ar
    17    20    21    1
    18    20    22   ar
    19    22    23   ar
    20     8     9   ar
    21     9    24    1
    22    24    25   ar
    23    25    26   ar
    24    26    27   ar
    25    27    28   ar
    26    28    30    1
    27    30    32    1
    28    32    33    1
    29    33    34    1
    30    34    35    1
    31    35    36    1
    32    28    29   ar
    33    14    15    1
    34    15    16    1
    35    16    11    1
    36     6     1   ar
    37    23    17   ar
    38    29    24   ar
    39     9     4   ar
    40    36    32    1
    41    30    31    1
@<TRIPOS>MOLECULE
*****
 36 41 0 0 0
SMALL
GASTEIGER

@<TRIPOS>ATOM
      1 C           3.4918   -0.7133   25.1660 C.ar    1  UNL1        0.1335
      2 C           4.6255   -1.6884   25.0486 C.ar    1  UNL1        0.0359
      3 C           5.3711   -2.1228   26.2755 C.ar    1  UNL1        0.0236
      4 C           4.9829   -1.5821   27.6198 C.ar    1  UNL1        0.1025
      5 C           3.8492   -0.6070   27.7371 C.ar    1  UNL1        0.1813
      6 N           3.1036   -0.1726   26.5102 N.ar    1  UNL1       -0.2104
      7 N           3.6952   -0.2474   29.1852 N.ar    1  UNL1       -0.2076
      8 C           4.7337   -1.0003   29.9628 C.ar    1  UNL1        0.1505
      9 N           5.5296   -1.8252   28.9954 N.ar    1  UNL1       -0.2735
     10 C           0.5092    1.0246   20.2584 C.3     1  UNL1        0.0897
     11 N           1.2548    0.5902   21.4852 N.3     1  UNL1       -0.2686
     12 C           2.3264   -0.4543   21.3811 C.3     1  UNL1        0.0939
     13 C           3.0720   -0.8888   22.6080 C.3     1  UNL1        0.1095
     14 N           2.7461   -0.2788   23.9390 N.pl3   1  UNL1       -0.2903
     15 C           1.6746    0.7657   24.0432 C.3     1  UNL1        0.1095
     16 C           0.9289    1.2002   22.8164 C.3     1  UNL1        0.0939
     17 C           4.9401   -0.9389   31.4474 C.ar    1  UNL1        0.0347
     18 C           5.7820    0.1502   32.0431 C.ar    1  UNL1        0.0053
     19 C           5.9883    0.2116   33.5276 C.ar    1  UNL1        0.0297
     20 C           5.3528   -0.8162   34.4162 C.ar    1  UNL1        0.1401
     21 F           5.5592   -0.7548   35.9008 F       1  UNL1       -0.2042
     22 C           4.5109   -1.9053   33.8205 C.ar    1  UNL1        0.0297
     23 C           4.3046   -1.9667   32.3360 C.ar    1  UNL1        0.0053
     24 C           6.6717   -2.7336   29.3425 C.ar    1  UNL1        0.1533
     25 C           7.8967   -2.1782   30.0064 C.ar    1  UNL1        0.0582
     26 C           9.0387   -3.0867   30.3534 C.ar    1  UNL1        0.1049
     27 N           8.9557   -4.5505   30.0366 N.ar    1  UNL1       -0.2122
     28 C           7.7306   -5.1059   29.3727 C.ar    1  UNL1        0.2182
     29 N           6.5886   -4.1974   29.0256 N.ar    1  UNL1       -0.1960
     30 N           7.6475   -6.5697   29.0559 N.pl3   1  UNL1       -0.3046
     31 H           7.3644   -7.2082   29.7497 H       1  UNL1        0.1496
     32 C           7.9959   -7.0606   27.6820 C.3     1  UNL1        0.0718
     33 C           9.2691   -7.7490   27.2883 C.3     1  UNL1        0.0196
     34 C           9.1924   -8.0632   25.8235 C.3     1  UNL1        0.0017
     35 C           7.8718   -7.5690   25.3120 C.3     1  UNL1        0.0017
     36 C           7.1323   -6.9493   26.4606 C.3     1  UNL1        0.0196
@<TRIPOS>BOND
     1    10    11    1
     2    11    12    1
     3    12    13    1
     4    13    14    1
     5    14     1    1
     6     1     2   ar
     7     2     3   ar
     8     3     4   ar
     9     4     5   ar
    10     5     6   ar
    11     5     7   ar
    12     7     8   ar
    13     8    17    1
    14    17    18   ar
    15    18    19   ar
    16    19    20   ar
    17    20    21    1
    18    20    22   ar
    19    22    23   ar
    20     8     9   ar
    21     9    24    1
    22    24    25   ar
    23    25    26   ar
    24    26    27   ar
    25    27    28   ar
    26    28    30    1
    27    30    32    1
    28    32    33    1
    29    33    34    1
    30    34    35    1
    31    35    36    1
    32    28    29   ar
    33    14    15    1
    34    15    16    1
    35    16    11    1
    36     6     1   ar
    37    23    17   ar
    38    29    24   ar
    39     9     4   ar
    40    36    32    1
    41    30    31    1
@<TRIPOS>MOLECULE
*****
 36 41 0 0 0
SMALL
GASTEIGER

@<TRIPOS>ATOM
      1 C           6.7844   -3.8627   30.0805 C.ar    1  UNL1        0.1335
      2 C           7.3550   -3.9347   31.4658 C.ar    1  UNL1        0.0359
      3 C           6.9945   -2.8907   32.4806 C.ar    1  UNL1        0.0236
      4 C           6.0633   -1.7746   32.1101 C.ar    1  UNL1        0.1025
      5 C           5.4927   -1.7026   30.7248 C.ar    1  UNL1        0.1813
      6 N           5.8532   -2.7466   29.7100 N.ar    1  UNL1       -0.2104
      7 N           4.6070   -0.4942   30.6506 N.ar    1  UNL1       -0.2076
      8 C           4.6304    0.1806   31.9900 C.ar    1  UNL1        0.1505
      9 N           5.5304   -0.6107   32.8921 N.ar    1  UNL1       -0.2735
     10 C           8.2264   -8.0390   26.0210 C.3     1  UNL1        0.0897
     11 N           7.8659   -6.9949   27.0358 N.3     1  UNL1       -0.2686
     12 C           6.9110   -5.8960   26.6746 C.3     1  UNL1        0.0939
     13 C           6.5505   -4.8519   27.6895 C.3     1  UNL1        0.1095
     14 N           7.1449   -4.9068   29.0655 N.pl3   1  UNL1       -0.2903
     15 C           8.0998   -6.0057   29.4268 C.3     1  UNL1        0.1095
     16 C           8.4603   -7.0498   28.4120 C.3     1  UNL1        0.0939
     17 C           3.8846    1.4278   32.3621 C.ar    1  UNL1        0.0347
     18 C           4.6123    2.7358   32.4601 C.ar    1  UNL1        0.0053
     19 C           3.8666    3.9830   32.8321 C.ar    1  UNL1        0.0297
     20 C           2.3931    3.9222   33.1061 C.ar    1  UNL1        0.1401
     21 F           1.6473    5.1694   33.4781 F       1  UNL1       -0.2042
     22 C           1.6654    2.6142   33.0080 C.ar    1  UNL1        0.0297
     23 C           2.4111    1.3670   32.6360 C.ar    1  UNL1        0.0053
     24 C           5.8427   -0.2938   34.3246 C.ar    1  UNL1        0.1533
     25 C           7.2690   -0.1604   34.7695 C.ar    1  UNL1        0.0582
     26 C           7.5812    0.1564   36.2020 C.ar    1  UNL1        0.1049
     27 N           6.4673    0.3400   37.1896 N.ar    1  UNL1       -0.2122
     28 C           5.0410    0.2066   36.7447 C.ar    1  UNL1        0.2182
     29 N           4.7287   -0.1103   35.3122 N.ar    1  UNL1       -0.1960
     30 N           3.9270    0.3901   37.7323 N.pl3   1  UNL1       -0.3046
     31 H           3.7793   -0.2803   38.4379 H       1  UNL1        0.1496
     32 C           3.0380    1.5951   37.6447 C.3     1  UNL1        0.0718
     33 C           3.1079    2.6681   36.5988 C.3     1  UNL1        0.0196
     34 C           2.0361    3.6749   36.8953 C.3     1  UNL1        0.0017
     35 C           1.3038    3.2240   38.1243 C.3     1  UNL1        0.0017
     36 C           1.9230    1.9386   38.5874 C.3     1  UNL1        0.0196
@<TRIPOS>BOND
     1    10    11    1
     2    11    12    1
     3    12    13    1
     4    13    14    1
     5    14     1    1
     6     1     2   ar
     7     2     3   ar
     8     3     4   ar
     9     4     5   ar
    10     5     6   ar
    11     5     7   ar
    12     7     8   ar
    13     8    17    1
    14    17    18   ar
    15    18    19   ar
    16    19    20   ar
    17    20    21    1
    18    20    22   ar
    19    22    23   ar
    20     8     9   ar
    21     9    24    1
    22    24    25   ar
    23    25    26   ar
    24    26    27   ar
    25    27    28   ar
    26    28    30    1
    27    30    32    1
    28    32    33    1
    29    33    34    1
    30    34    35    1
    31    35    36    1
    32    28    29   ar
    33    14    15    1
    34    15    16    1
    35    16    11    1
    36     6     1   ar
    37    23    17   ar
    38    29    24   ar
    39     9     4   ar
    40    36    32    1
    41    30    31    1
@<TRIPOS>MOLECULE
*****
 36 41 0 0 0
SMALL
GASTEIGER

@<TRIPOS>ATOM
      1 C          -1.9582    3.2910   22.0302 C.ar    1  UNL1        0.1335
      2 C          -1.1235    3.2900   23.2765 C.ar    1  UNL1        0.0359
      3 C           0.1656    2.5241   23.3151 C.ar    1  UNL1        0.0236
      4 C           0.6200    1.7592   22.1075 C.ar    1  UNL1        0.1025
      5 C          -0.2146    1.7602   20.8612 C.ar    1  UNL1        0.1813
      6 N          -1.5037    2.5261   20.8225 N.ar    1  UNL1       -0.2104
      7 N           0.4849    0.9200   19.8342 N.ar    1  UNL1       -0.2076
      8 C           1.7519    0.3997   20.4458 C.ar    1  UNL1        0.1505
      9 N           1.8354    0.9183   21.8508 N.ar    1  UNL1       -0.2735
     10 C          -7.1149    6.3545   21.8753 C.3     1  UNL1        0.0897
     11 N          -5.8257    5.5887   21.9140 N.3     1  UNL1       -0.2686
     12 C          -4.5173    6.3184   21.8395 C.3     1  UNL1        0.0939
     13 C          -3.2281    5.5525   21.8782 C.3     1  UNL1        0.1095
     14 N          -3.2474    4.0569   21.9914 N.pl3   1  UNL1       -0.2903
     15 C          -4.5558    3.3272   22.0659 C.3     1  UNL1        0.1095
     16 C          -5.8449    4.0930   22.0272 C.3     1  UNL1        0.0939
     17 C           2.7586   -0.4842   19.7709 C.ar    1  UNL1        0.0347
     18 C           2.9256   -1.9068   20.2162 C.ar    1  UNL1        0.0053
     19 C           3.9322   -2.7906   19.5413 C.ar    1  UNL1        0.0297
     20 C           4.7718   -2.2519   18.4211 C.ar    1  UNL1        0.1401
     21 F           5.7785   -3.1357   17.7462 F       1  UNL1       -0.2042
     22 C           4.6048   -0.8293   17.9759 C.ar    1  UNL1        0.0297
     23 C           3.5981    0.0546   18.6507 C.ar    1  UNL1        0.0053
     24 C           2.9403    0.6443   22.8276 C.ar    1  UNL1        0.1533
     25 C           4.2365    1.3919   22.7228 C.ar    1  UNL1        0.0582
     26 C           5.3414    1.1178   23.6997 C.ar    1  UNL1        0.1049
     27 N           5.1500    0.0961   24.7812 N.ar    1  UNL1       -0.2122
     28 C           3.8538   -0.6514   24.8859 C.ar    1  UNL1        0.2182
     29 N           2.7490   -0.3773   23.9091 N.ar    1  UNL1       -0.1960
     30 N           3.6624   -1.6730   25.9674 N.pl3   1  UNL1       -0.3046
     31 H           3.5223   -2.6187   25.7321 H       1  UNL1        0.1496
     32 C           3.6847   -1.2538   27.4075 C.3     1  UNL1        0.0718
     33 C           2.5277   -0.6937   28.1806 C.3     1  UNL1        0.0196
     34 C           2.9957   -0.4148   29.5782 C.3     1  UNL1        0.0017
     35 C           4.4419   -0.8027   29.6688 C.3     1  UNL1        0.0017
     36 C           4.8677   -1.3212   28.3272 C.3     1  UNL1        0.0196
@<TRIPOS>BOND
     1    10    11    1
     2    11    12    1
     3    12    13    1
     4    13    14    1
     5    14     1    1
     6     1     2   ar
     7     2     3   ar
     8     3     4   ar
     9     4     5   ar
    10     5     6   ar
    11     5     7   ar
    12     7     8   ar
    13     8    17    1
    14    17    18   ar
    15    18    19   ar
    16    19    20   ar
    17    20    21    1
    18    20    22   ar
    19    22    23   ar
    20     8     9   ar
    21     9    24    1
    22    24    25   ar
    23    25    26   ar
    24    26    27   ar
    25    27    28   ar
    26    28    30    1
    27    30    32    1
    28    32    33    1
    29    33    34    1
    30    34    35    1
    31    35    36    1
    32    28    29   ar
    33    14    15    1
    34    15    16    1
    35    16    11    1
    36     6     1   ar
    37    23    17   ar
    38    29    24   ar
    39     9     4   ar
    40    36    32    1
    41    30    31    1
@<TRIPOS>MOLECULE
*****
 36 41 0 0 0
SMALL
GASTEIGER

@<TRIPOS>ATOM
      1 C          -2.0340    3.2474   21.6815 C.ar    1  UNL1        0.1335
      2 C          -1.2743    3.2798   22.9744 C.ar    1  UNL1        0.0359
      3 C           0.0303    2.5496   23.0963 C.ar    1  UNL1        0.0236
      4 C           0.5751    1.7868   21.9252 C.ar    1  UNL1        0.1025
      5 C          -0.1846    1.7544   20.6323 C.ar    1  UNL1        0.1813
      6 N          -1.4892    2.4846   20.5104 N.ar    1  UNL1       -0.2104
      7 N           0.5961    0.9245   19.6567 N.ar    1  UNL1       -0.2076
      8 C           1.8383    0.4441   20.3467 C.ar    1  UNL1        0.1505
      9 N           1.8254    0.9770   21.7487 N.ar    1  UNL1       -0.2735
     10 C          -7.2522    6.1684   21.1938 C.3     1  UNL1        0.0897
     11 N          -5.9477    5.4382   21.3157 N.3     1  UNL1       -0.2686
     12 C          -4.6796    6.0838   20.8413 C.3     1  UNL1        0.0939
     13 C          -3.3750    5.3535   20.9632 C.3     1  UNL1        0.1095
     14 N          -3.3386    3.9777   21.5596 N.pl3   1  UNL1       -0.2903
     15 C          -4.6067    3.3320   22.0340 C.3     1  UNL1        0.1095
     16 C          -5.9112    4.0623   21.9121 C.3     1  UNL1        0.0939
     17 C           2.9061   -0.4179   19.7409 C.ar    1  UNL1        0.0347
     18 C           2.8338   -1.9098   19.8793 C.ar    1  UNL1        0.0053
     19 C           3.9014   -2.7718   19.2735 C.ar    1  UNL1        0.0297
     20 C           5.0414   -2.1420   18.5294 C.ar    1  UNL1        0.1401
     21 F           6.1091   -3.0040   17.9236 F       1  UNL1       -0.2042
     22 C           5.1137   -0.6501   18.3910 C.ar    1  UNL1        0.0297
     23 C           4.0460    0.2119   18.9968 C.ar    1  UNL1        0.0053
     24 C           2.8778    0.7415   22.7912 C.ar    1  UNL1        0.1533
     25 C           3.5999    1.9047   23.4041 C.ar    1  UNL1        0.0582
     26 C           4.6524    1.6692   24.4466 C.ar    1  UNL1        0.1049
     27 N           4.9827    0.2705   24.8762 N.ar    1  UNL1       -0.2122
     28 C           4.2606   -0.8927   24.2634 C.ar    1  UNL1        0.2182
     29 N           3.2082   -0.6571   23.2209 N.ar    1  UNL1       -0.1960
     30 N           4.5910   -2.2913   24.6930 N.pl3   1  UNL1       -0.3046
     31 H           4.1573   -2.6775   25.4881 H       1  UNL1        0.1496
     32 C           5.5821   -3.1017   23.9114 C.3     1  UNL1        0.0718
     33 C           5.8745   -2.9632   22.4467 C.3     1  UNL1        0.0196
     34 C           6.9280   -3.9687   22.0872 C.3     1  UNL1        0.0017
     35 C           7.2867   -4.7285   23.3298 C.3     1  UNL1        0.0017
     36 C           6.4549   -4.1927   24.4572 C.3     1  UNL1        0.0196
@<TRIPOS>BOND
     1    10    11    1
     2    11    12    1
     3    12    13    1
     4    13    14    1
     5    14     1    1
     6     1     2   ar
     7     2     3   ar
     8     3     4   ar
     9     4     5   ar
    10     5     6   ar
    11     5     7   ar
    12     7     8   ar
    13     8    17    1
    14    17    18   ar
    15    18    19   ar
    16    19    20   ar
    17    20    21    1
    18    20    22   ar
    19    22    23   ar
    20     8     9   ar
    21     9    24    1
    22    24    25   ar
    23    25    26   ar
    24    26    27   ar
    25    27    28   ar
    26    28    30    1
    27    30    32    1
    28    32    33    1
    29    33    34    1
    30    34    35    1
    31    35    36    1
    32    28    29   ar
    33    14    15    1
    34    15    16    1
    35    16    11    1
    36     6     1   ar
    37    23    17   ar
    38    29    24   ar
    39     9     4   ar
    40    36    32    1
    41    30    31    1
