@<TRIPOS>MOLECULE
*****
 26 28 0 0 0
SMALL
GASTEIGER

@<TRIPOS>ATOM
      1 N           6.5563   -2.9483   29.9932 N.3     1  UNL1       -0.1549
      2 C           5.7837   -2.5201   28.7809 C.3     1  UNL1        0.1002
      3 C           6.0862   -3.1305   27.4445 C.3     1  UNL1        0.0418
      4 C           7.1613   -4.1691   27.3205 C.2     1  UNL1       -0.0331
      5 C           7.4638   -4.7795   25.9841 C.2     1  UNL1        0.0412
      6 C           7.9339   -4.5973   28.5328 C.3     1  UNL1        0.0418
      7 C           7.6314   -3.9869   29.8692 C.3     1  UNL1        0.1002
      8 S           6.2537   -2.3379   31.3296 S.O2    1  UNL1        0.0633
      9 O           5.9231   -1.0368   30.6604 O.2     1  UNL1       -0.1528
     10 O           6.5844   -3.6390   31.9987 O.2     1  UNL1       -0.1528
     11 C           5.0437    0.1038   36.6751 C.3     1  UNL1        0.0310
     12 C           5.3462   -0.5066   35.3387 C.ar    1  UNL1       -0.0218
     13 C           6.6826   -0.2806   34.6961 C.ar    1  UNL1       -0.0029
     14 C           6.9851   -0.8910   33.3598 C.ar    1  UNL1        0.0196
     15 C           5.9512   -1.7275   32.6660 C.ar    1  UNL1        0.1222
     16 C           4.6148   -1.9535   33.3085 C.ar    1  UNL1        0.0196
     17 C           4.3123   -1.3431   34.6449 C.ar    1  UNL1       -0.0029
     18 C           6.6912   -4.3514   24.7718 C.1     1  UNL1       -0.0583
     19 C           5.9186   -3.9232   23.5594 C.1     1  UNL1       -0.0405
     20 C           5.1460   -3.4951   22.3471 C.ar    1  UNL1        0.1224
     21 C           4.3244   -2.2406   22.3858 C.ar    1  UNL1        0.0276
     22 C           3.5518   -1.8125   21.1735 C.ar    1  UNL1        0.0034
     23 C           3.6008   -2.6387   19.9225 C.ar    1  UNL1        0.0148
     24 C           4.4223   -3.8930   19.8838 C.ar    1  UNL1        0.0600
     25 C           4.4713   -4.7192   18.6328 C.3     1  UNL1        0.0521
     26 N           5.1950   -4.3213   21.0961 N.ar    1  UNL1       -0.2414
@<TRIPOS>BOND
     1    11    12    1
     2    12    13   ar
     3    13    14   ar
     4    14    15   ar
     5    15     8    1
     6     8     9    2
     7     8    10    2
     8     8     1    1
     9     1     2    1
    10     2     3    1
    11     3     4    1
    12     4     5    2
    13     5    18    1
    14    18    19    3
    15    19    20    1
    16    20    21   ar
    17    21    22   ar
    18    22    23   ar
    19    23    24   ar
    20    24    25    1
    21    24    26   ar
    22     4     6    1
    23     6     7    1
    24    15    16   ar
    25    16    17   ar
    26    17    12   ar
    27     7     1    1
    28    26    20   ar
@<TRIPOS>MOLECULE
*****
 26 28 0 0 0
SMALL
GASTEIGER

@<TRIPOS>ATOM
      1 N           1.9292    0.9773   29.9685 N.3     1  UNL1       -0.1549
      2 C           0.6394    1.7407   29.9113 C.3     1  UNL1        0.1002
      3 C          -0.0323    1.9807   28.5917 C.3     1  UNL1        0.0418
      4 C           0.5859    1.4571   27.3293 C.2     1  UNL1       -0.0331
      5 C          -0.0858    1.6970   26.0097 C.2     1  UNL1        0.0412
      6 C           1.8758    0.6937   27.3865 C.3     1  UNL1        0.0418
      7 C           2.5474    0.4538   28.7061 C.3     1  UNL1        0.1002
      8 S           2.6009    0.7374   31.2880 S.O2    1  UNL1        0.0633
      9 O           2.8063    2.2142   31.4520 O.2     1  UNL1       -0.1528
     10 O           2.3955   -0.7394   31.1241 O.2     1  UNL1       -0.1528
     11 C           5.2876   -0.2223   36.5664 C.3     1  UNL1        0.0310
     12 C           4.6159    0.0176   35.2468 C.ar    1  UNL1       -0.0218
     13 C           4.6025   -1.0613   34.2049 C.ar    1  UNL1       -0.0029
     14 C           3.9309   -0.8214   32.8853 C.ar    1  UNL1        0.0196
     15 C           3.2726    0.4975   32.6076 C.ar    1  UNL1        0.1222
     16 C           3.2860    1.5764   33.6495 C.ar    1  UNL1        0.0196
     17 C           3.9577    1.3365   34.9691 C.ar    1  UNL1       -0.0029
     18 C          -1.3757    2.4605   25.9525 C.1     1  UNL1       -0.0583
     19 C          -2.6656    3.2240   25.8953 C.1     1  UNL1       -0.0405
     20 C          -3.9555    3.9874   25.8381 C.ar    1  UNL1        0.1224
     21 C          -4.3378    4.8995   26.9660 C.ar    1  UNL1        0.0276
     22 C          -5.6277    5.6630   26.9088 C.ar    1  UNL1        0.0034
     23 C          -6.5353    5.5144   25.7238 C.ar    1  UNL1        0.0148
     24 C          -6.1530    4.6024   24.5960 C.ar    1  UNL1        0.0600
     25 C          -7.0606    4.4538   23.4110 C.3     1  UNL1        0.0521
     26 N          -4.8631    3.8388   24.6531 N.ar    1  UNL1       -0.2414
@<TRIPOS>BOND
     1    11    12    1
     2    12    13   ar
     3    13    14   ar
     4    14    15   ar
     5    15     8    1
     6     8     9    2
     7     8    10    2
     8     8     1    1
     9     1     2    1
    10     2     3    1
    11     3     4    1
    12     4     5    2
    13     5    18    1
    14    18    19    3
    15    19    20    1
    16    20    21   ar
    17    21    22   ar
    18    22    23   ar
    19    23    24   ar
    20    24    25    1
    21    24    26   ar
    22     4     6    1
    23     6     7    1
    24    15    16   ar
    25    16    17   ar
    26    17    12   ar
    27     7     1    1
    28    26    20   ar
@<TRIPOS>MOLECULE
*****
 26 28 0 0 0
SMALL
GASTEIGER

@<TRIPOS>ATOM
      1 N           3.6390    0.2243   32.8344 N.3     1  UNL1       -0.1549
      2 C           3.8756   -0.4313   31.5062 C.3     1  UNL1        0.1002
      3 C           4.7828   -1.6219   31.4084 C.3     1  UNL1        0.0418
      4 C           5.4533   -2.1569   32.6389 C.2     1  UNL1       -0.0331
      5 C           6.3605   -3.3475   32.5412 C.2     1  UNL1        0.0412
      6 C           5.2168   -1.5013   33.9671 C.3     1  UNL1        0.0418
      7 C           4.3096   -0.3107   34.0648 C.3     1  UNL1        0.1002
      8 S           2.7319    1.4149   32.9321 S.O2    1  UNL1        0.0633
      9 O           3.5073    1.9083   34.1176 O.2     1  UNL1       -0.1528
     10 O           1.9565    0.9214   31.7467 O.2     1  UNL1       -0.1528
     11 C          -0.8967    6.1773   33.3231 C.3     1  UNL1        0.0310
     12 C           0.0105    4.9867   33.2253 C.ar    1  UNL1       -0.0218
     13 C           1.0141    4.7177   34.3071 C.ar    1  UNL1       -0.0029
     14 C           1.9213    3.5271   34.2093 C.ar    1  UNL1        0.0196
     15 C           1.8247    2.6055   33.0299 C.ar    1  UNL1        0.1222
     16 C           0.8211    2.8745   31.9481 C.ar    1  UNL1        0.0196
     17 C          -0.0861    4.0651   32.0458 C.ar    1  UNL1       -0.0029
     18 C           6.5971   -4.0031   31.2130 C.1     1  UNL1       -0.0583
     19 C           6.8337   -4.6588   29.8847 C.1     1  UNL1       -0.0405
     20 C           7.0703   -5.3144   28.5565 C.ar    1  UNL1        0.1224
     21 C           6.6646   -4.6160   27.2925 C.ar    1  UNL1        0.0276
     22 C           6.9012   -5.2716   25.9643 C.ar    1  UNL1        0.0034
     23 C           7.5434   -6.6256   25.9000 C.ar    1  UNL1        0.0148
     24 C           7.9490   -7.3240   27.1640 C.ar    1  UNL1        0.0600
     25 C           8.5913   -8.6781   27.0997 C.3     1  UNL1        0.0521
     26 N           7.7125   -6.6684   28.4923 N.ar    1  UNL1       -0.2414
@<TRIPOS>BOND
     1    11    12    1
     2    12    13   ar
     3    13    14   ar
     4    14    15   ar
     5    15     8    1
     6     8     9    2
     7     8    10    2
     8     8     1    1
     9     1     2    1
    10     2     3    1
    11     3     4    1
    12     4     5    2
    13     5    18    1
    14    18    19    3
    15    19    20    1
    16    20    21   ar
    17    21    22   ar
    18    22    23   ar
    19    23    24   ar
    20    24    25    1
    21    24    26   ar
    22     4     6    1
    23     6     7    1
    24    15    16   ar
    25    16    17   ar
    26    17    12   ar
    27     7     1    1
    28    26    20   ar
@<TRIPOS>MOLECULE
*****
 26 28 0 0 0
SMALL
GASTEIGER

@<TRIPOS>ATOM
      1 N           1.8601    0.8847   29.9170 N.3     1  UNL1       -0.1549
      2 C           2.5022    0.4435   28.6352 C.3     1  UNL1        0.1002
      3 C           1.8042    0.6758   27.3280 C.3     1  UNL1        0.0418
      4 C           0.4641    1.3493   27.3025 C.2     1  UNL1       -0.0331
      5 C          -0.2339    1.5816   25.9953 C.2     1  UNL1        0.0412
      6 C          -0.1779    1.7905   28.5844 C.3     1  UNL1        0.0418
      7 C           0.5201    1.5582   29.8916 C.3     1  UNL1        0.1002
      8 S           2.5581    0.6524   31.2242 S.O2    1  UNL1        0.0633
      9 O           2.6987    2.1339   31.4124 O.2     1  UNL1       -0.1528
     10 O           2.4175   -0.8291   31.0360 O.2     1  UNL1       -0.1528
     11 C           5.3501   -0.2768   36.4531 C.3     1  UNL1        0.0310
     12 C           4.6521   -0.0445   35.1459 C.ar    1  UNL1       -0.0218
     13 C           3.9659    1.2633   34.8841 C.ar    1  UNL1       -0.0029
     14 C           3.2679    1.4956   33.5769 C.ar    1  UNL1        0.0196
     15 C           3.2561    0.4201   32.5314 C.ar    1  UNL1        0.1222
     16 C           3.9424   -0.8877   32.7932 C.ar    1  UNL1        0.0196
     17 C           4.6404   -1.1200   34.1004 C.ar    1  UNL1       -0.0029
     18 C           0.4082    1.1404   24.7135 C.1     1  UNL1       -0.0583
     19 C           1.0503    0.6992   23.4316 C.1     1  UNL1       -0.0405
     20 C           1.6923    0.2581   22.1498 C.ar    1  UNL1        0.1224
     21 C           2.8676   -0.6736   22.1814 C.ar    1  UNL1        0.0276
     22 C           3.5096   -1.1148   20.8996 C.ar    1  UNL1        0.0034
     23 C           2.9765   -0.6243   19.5861 C.ar    1  UNL1        0.0148
     24 C           1.8013    0.3073   19.5545 C.ar    1  UNL1        0.0600
     25 C           1.2682    0.7978   18.2410 C.3     1  UNL1        0.0521
     26 N           1.1592    0.7485   20.8363 N.ar    1  UNL1       -0.2414
@<TRIPOS>BOND
     1    11    12    1
     2    12    13   ar
     3    13    14   ar
     4    14    15   ar
     5    15     8    1
     6     8     9    2
     7     8    10    2
     8     8     1    1
     9     1     2    1
    10     2     3    1
    11     3     4    1
    12     4     5    2
    13     5    18    1
    14    18    19    3
    15    19    20    1
    16    20    21   ar
    17    21    22   ar
    18    22    23   ar
    19    23    24   ar
    20    24    25    1
    21    24    26   ar
    22     4     6    1
    23     6     7    1
    24    15    16   ar
    25    16    17   ar
    26    17    12   ar
    27     7     1    1
    28    26    20   ar
@<TRIPOS>MOLECULE
*****
 26 28 0 0 0
SMALL
GASTEIGER

@<TRIPOS>ATOM
      1 N           6.5702   -4.3517   25.1421 N.3     1  UNL1       -0.1549
      2 C           6.1984   -3.3672   26.2110 C.3     1  UNL1        0.1002
      3 C           6.3999   -3.7169   27.6557 C.3     1  UNL1        0.0418
      4 C           6.9730   -5.0511   28.0315 C.2     1  UNL1       -0.0331
      5 C           7.1745   -5.4008   29.4762 C.2     1  UNL1        0.0412
      6 C           7.3448   -6.0356   26.9627 C.3     1  UNL1        0.0418
      7 C           7.1434   -5.6859   25.5180 C.3     1  UNL1        0.1002
      8 S           6.3688   -4.0020   23.6975 S.O2    1  UNL1        0.0633
      9 O           5.5675   -2.7996   24.1002 O.2     1  UNL1       -0.1528
     10 O           7.1701   -5.2043   23.2947 O.2     1  UNL1       -0.1528
     11 C           5.5632   -2.6031   17.9187 C.3     1  UNL1        0.0310
     12 C           5.7646   -2.9528   19.3634 C.ar    1  UNL1       -0.0218
     13 C           4.5835   -3.2845   20.2265 C.ar    1  UNL1       -0.0029
     14 C           4.7849   -3.6342   21.6712 C.ar    1  UNL1        0.0196
     15 C           6.1674   -3.6522   22.2528 C.ar    1  UNL1        0.1222
     16 C           7.3485   -3.3206   21.3897 C.ar    1  UNL1        0.0196
     17 C           7.1471   -2.9709   19.9450 C.ar    1  UNL1       -0.0029
     18 C           6.8027   -4.4163   30.5451 C.1     1  UNL1       -0.0583
     19 C           6.4309   -3.4318   31.6140 C.1     1  UNL1       -0.0405
     20 C           6.0592   -2.4473   32.6829 C.ar    1  UNL1        0.1224
     21 C           4.6760   -2.4572   33.2635 C.ar    1  UNL1        0.0276
     22 C           4.3043   -1.4727   34.3323 C.ar    1  UNL1        0.0034
     23 C           5.3155   -0.4783   34.8207 C.ar    1  UNL1        0.0148
     24 C           6.6986   -0.4684   34.2402 C.ar    1  UNL1        0.0600
     25 C           7.7099    0.5260   34.7285 C.3     1  UNL1        0.0521
     26 N           7.0704   -1.4529   33.1713 N.ar    1  UNL1       -0.2414
@<TRIPOS>BOND
     1    11    12    1
     2    12    13   ar
     3    13    14   ar
     4    14    15   ar
     5    15     8    1
     6     8     9    2
     7     8    10    2
     8     8     1    1
     9     1     2    1
    10     2     3    1
    11     3     4    1
    12     4     5    2
    13     5    18    1
    14    18    19    3
    15    19    20    1
    16    20    21   ar
    17    21    22   ar
    18    22    23   ar
    19    23    24   ar
    20    24    25    1
    21    24    26   ar
    22     4     6    1
    23     6     7    1
    24    15    16   ar
    25    16    17   ar
    26    17    12   ar
    27     7     1    1
    28    26    20   ar
@<TRIPOS>MOLECULE
*****
 26 28 0 0 0
SMALL
GASTEIGER

@<TRIPOS>ATOM
      1 N           7.5102   -2.6245   31.9344 N.3     1  UNL1       -0.1549
      2 C           6.2417   -2.1859   32.6040 C.3     1  UNL1        0.1002
      3 C           6.2912   -1.1950   33.7290 C.3     1  UNL1        0.0418
      4 C           7.6093   -0.6426   34.1844 C.2     1  UNL1       -0.0331
      5 C           7.6588    0.3483   35.3094 C.2     1  UNL1        0.0412
      6 C           8.8779   -1.0811   33.5148 C.3     1  UNL1        0.0418
      7 C           8.8283   -2.0720   32.3898 C.3     1  UNL1        0.1002
      8 S           7.4607   -3.6154   30.8094 S.O2    1  UNL1        0.0633
      9 O           6.1937   -2.9860   30.3108 O.2     1  UNL1       -0.1528
     10 O           8.7277   -4.2447   31.3080 O.2     1  UNL1       -0.1528
     11 C           7.2625   -7.5791   26.3094 C.3     1  UNL1        0.0310
     12 C           7.3120   -6.5882   27.4344 C.ar    1  UNL1       -0.0218
     13 C           8.1259   -6.8840   28.6591 C.ar    1  UNL1       -0.0029
     14 C           8.1755   -5.8930   29.7841 C.ar    1  UNL1        0.0196
     15 C           7.4111   -4.6063   29.6844 C.ar    1  UNL1        0.1222
     16 C           6.5972   -4.3105   28.4597 C.ar    1  UNL1        0.0196
     17 C           6.5477   -5.3014   27.3347 C.ar    1  UNL1       -0.0029
     18 C           6.3903    0.7868   35.9790 C.1     1  UNL1       -0.0583
     19 C           5.1217    1.2254   36.6486 C.1     1  UNL1       -0.0405
     20 C           3.8531    1.6639   37.3182 C.ar    1  UNL1        0.1224
     21 C           3.3548    3.0669   37.1355 C.ar    1  UNL1        0.0276
     22 C           2.0862    3.5055   37.8051 C.ar    1  UNL1        0.0034
     23 C           1.3160    2.5410   38.6575 C.ar    1  UNL1        0.0148
     24 C           1.8142    1.1381   38.8403 C.ar    1  UNL1        0.0600
     25 C           1.0439    0.1737   39.6926 C.3     1  UNL1        0.0521
     26 N           3.0828    0.6995   38.1706 N.ar    1  UNL1       -0.2414
@<TRIPOS>BOND
     1    11    12    1
     2    12    13   ar
     3    13    14   ar
     4    14    15   ar
     5    15     8    1
     6     8     9    2
     7     8    10    2
     8     8     1    1
     9     1     2    1
    10     2     3    1
    11     3     4    1
    12     4     5    2
    13     5    18    1
    14    18    19    3
    15    19    20    1
    16    20    21   ar
    17    21    22   ar
    18    22    23   ar
    19    23    24   ar
    20    24    25    1
    21    24    26   ar
    22     4     6    1
    23     6     7    1
    24    15    16   ar
    25    16    17   ar
    26    17    12   ar
    27     7     1    1
    28    26    20   ar
@<TRIPOS>MOLECULE
*****
 26 28 0 0 0
SMALL
GASTEIGER

@<TRIPOS>ATOM
      1 N           2.4785    0.3332   19.2938 N.3     1  UNL1       -0.1549
      2 C           2.8592   -0.3586   20.5691 C.3     1  UNL1        0.1002
      3 C           4.0070   -1.3242   20.5847 C.3     1  UNL1        0.0418
      4 C           4.7740   -1.5980   19.3251 C.2     1  UNL1       -0.0331
      5 C           5.9217   -2.5636   19.3408 C.2     1  UNL1        0.0412
      6 C           4.3932   -0.9062   18.0498 C.3     1  UNL1        0.0418
      7 C           3.2455    0.0594   18.0342 C.3     1  UNL1        0.1002
      8 S           1.3307    1.2988   19.2781 S.O2    1  UNL1        0.0633
      9 O           0.8108    0.6604   18.0243 O.2     1  UNL1       -0.1528
     10 O           1.8506    1.9372   20.5320 O.2     1  UNL1       -0.1528
     11 C          -3.2603    5.1612   19.2155 C.3     1  UNL1        0.0310
     12 C          -2.1126    4.1956   19.2311 C.ar    1  UNL1       -0.0218
     13 C          -1.8276    3.3893   20.4634 C.ar    1  UNL1       -0.0029
     14 C          -0.6798    2.4237   20.4791 C.ar    1  UNL1        0.0196
     15 C           0.1829    2.2644   19.2625 C.ar    1  UNL1        0.1222
     16 C          -0.1020    3.0707   18.0302 C.ar    1  UNL1        0.0196
     17 C          -1.2498    4.0363   18.0145 C.ar    1  UNL1       -0.0029
     18 C           6.3025   -3.2554   20.6161 C.1     1  UNL1       -0.0583
     19 C           6.6832   -3.9473   21.8914 C.1     1  UNL1       -0.0405
     20 C           7.0640   -4.6391   23.1667 C.ar    1  UNL1        0.1224
     21 C           6.5396   -4.1353   24.4787 C.ar    1  UNL1        0.0276
     22 C           6.9204   -4.8271   25.7540 C.ar    1  UNL1        0.0034
     23 C           7.8255   -6.0227   25.7174 C.ar    1  UNL1        0.0148
     24 C           8.3498   -6.5265   24.4054 C.ar    1  UNL1        0.0600
     25 C           9.2549   -7.7221   24.3688 C.3     1  UNL1        0.0521
     26 N           7.9691   -5.8347   23.1301 N.ar    1  UNL1       -0.2414
@<TRIPOS>BOND
     1    11    12    1
     2    12    13   ar
     3    13    14   ar
     4    14    15   ar
     5    15     8    1
     6     8     9    2
     7     8    10    2
     8     8     1    1
     9     1     2    1
    10     2     3    1
    11     3     4    1
    12     4     5    2
    13     5    18    1
    14    18    19    3
    15    19    20    1
    16    20    21   ar
    17    21    22   ar
    18    22    23   ar
    19    23    24   ar
    20    24    25    1
    21    24    26   ar
    22     4     6    1
    23     6     7    1
    24    15    16   ar
    25    16    17   ar
    26    17    12   ar
    27     7     1    1
    28    26    20   ar
@<TRIPOS>MOLECULE
*****
 26 28 0 0 0
SMALL
GASTEIGER

@<TRIPOS>ATOM
      1 N           4.3660   -1.8685   21.9182 N.3     1  UNL1       -0.1549
      2 C           4.3284   -1.8291   23.4172 C.3     1  UNL1        0.1002
      3 C           5.1965   -2.7574   24.2139 C.3     1  UNL1        0.0418
      4 C           6.1021   -3.7251   23.5116 C.2     1  UNL1       -0.0331
      5 C           6.9702   -4.6534   24.3083 C.2     1  UNL1        0.0412
      6 C           6.1397   -3.7645   22.0126 C.3     1  UNL1        0.0418
      7 C           5.2716   -2.8362   21.2159 C.3     1  UNL1        0.1002
      8 S           3.4979   -0.9402   21.1216 S.O2    1  UNL1        0.0633
      9 O           3.8461    0.1838   22.0519 O.2     1  UNL1       -0.1528
     10 O           3.1498   -2.0641   20.1912 O.2     1  UNL1       -0.1528
     11 C           0.0257    2.7731   17.9349 C.3     1  UNL1        0.0310
     12 C           0.8937    1.8448   18.7315 C.ar    1  UNL1       -0.0218
     13 C           2.3821    1.8660   18.5466 C.ar    1  UNL1       -0.0029
     14 C           3.2502    0.9376   19.3433 C.ar    1  UNL1        0.0196
     15 C           2.6299   -0.0119   20.3249 C.ar    1  UNL1        0.1222
     16 C           1.1415   -0.0330   20.5098 C.ar    1  UNL1        0.0196
     17 C           0.2734    0.8953   19.7131 C.ar    1  UNL1       -0.0029
     18 C           6.9326   -4.6140   25.8072 C.1     1  UNL1       -0.0583
     19 C           6.8950   -4.5746   27.3063 C.1     1  UNL1       -0.0405
     20 C           6.8574   -4.5352   28.8053 C.ar    1  UNL1        0.1224
     21 C           7.1447   -5.7773   29.5957 C.ar    1  UNL1        0.0276
     22 C           7.1071   -5.7379   31.0946 C.ar    1  UNL1        0.0034
     23 C           6.7823   -4.4564   31.8033 C.ar    1  UNL1        0.0148
     24 C           6.4950   -3.2143   31.0130 C.ar    1  UNL1        0.0600
     25 C           6.1702   -1.9328   31.7217 C.3     1  UNL1        0.0521
     26 N           6.5326   -3.2537   29.5140 N.ar    1  UNL1       -0.2414
@<TRIPOS>BOND
     1    11    12    1
     2    12    13   ar
     3    13    14   ar
     4    14    15   ar
     5    15     8    1
     6     8     9    2
     7     8    10    2
     8     8     1    1
     9     1     2    1
    10     2     3    1
    11     3     4    1
    12     4     5    2
    13     5    18    1
    14    18    19    3
    15    19    20    1
    16    20    21   ar
    17    21    22   ar
    18    22    23   ar
    19    23    24   ar
    20    24    25    1
    21    24    26   ar
    22     4     6    1
    23     6     7    1
    24    15    16   ar
    25    16    17   ar
    26    17    12   ar
    27     7     1    1
    28    26    20   ar
@<TRIPOS>MOLECULE
*****
 26 28 0 0 0
SMALL
GASTEIGER

@<TRIPOS>ATOM
      1 N           4.4661   -2.5532   22.2157 N.3     1  UNL1       -0.1549
      2 C           3.5974   -1.4508   22.7449 C.3     1  UNL1        0.1002
      3 C           2.6208   -0.7639   21.8368 C.3     1  UNL1        0.0418
      4 C           2.5130   -1.1794   20.3996 C.2     1  UNL1       -0.0331
      5 C           1.5365   -0.4926   19.4915 C.2     1  UNL1        0.0412
      6 C           3.3818   -2.2818   19.8704 C.3     1  UNL1        0.0418
      7 C           4.3583   -2.9687   20.7785 C.3     1  UNL1        0.1002
      8 S           5.4426   -3.2400   23.1238 S.O2    1  UNL1        0.0633
      9 O           5.0716   -2.3010   24.2331 O.2     1  UNL1       -0.1528
     10 O           5.8136   -4.1791   22.0145 O.2     1  UNL1       -0.1528
     11 C           9.3487   -5.9875   26.7561 C.3     1  UNL1        0.0310
     12 C           8.3722   -5.3006   25.8480 C.ar    1  UNL1       -0.0218
     13 C           7.4143   -4.2892   26.4043 C.ar    1  UNL1       -0.0029
     14 C           6.4378   -3.6023   25.4962 C.ar    1  UNL1        0.0196
     15 C           6.4191   -3.9269   24.0319 C.ar    1  UNL1        0.1222
     16 C           7.3770   -4.9384   23.4757 C.ar    1  UNL1        0.0196
     17 C           8.3535   -5.6252   24.3837 C.ar    1  UNL1       -0.0029
     18 C           0.6678    0.6098   20.0206 C.1     1  UNL1       -0.0583
     19 C          -0.2010    1.7123   20.5498 C.1     1  UNL1       -0.0405
     20 C          -1.0697    2.8147   21.0789 C.ar    1  UNL1        0.1224
     21 C          -0.4632    3.9288   21.8796 C.ar    1  UNL1        0.0276
     22 C          -1.3320    5.0312   22.4088 C.ar    1  UNL1        0.0034
     23 C          -2.8071    5.0195   22.1373 C.ar    1  UNL1        0.0148
     24 C          -3.4136    3.9055   21.3366 C.ar    1  UNL1        0.0600
     25 C          -4.8888    3.8938   21.0651 C.3     1  UNL1        0.0521
     26 N          -2.5449    2.8030   20.8074 N.ar    1  UNL1       -0.2414
@<TRIPOS>BOND
     1    11    12    1
     2    12    13   ar
     3    13    14   ar
     4    14    15   ar
     5    15     8    1
     6     8     9    2
     7     8    10    2
     8     8     1    1
     9     1     2    1
    10     2     3    1
    11     3     4    1
    12     4     5    2
    13     5    18    1
    14    18    19    3
    15    19    20    1
    16    20    21   ar
    17    21    22   ar
    18    22    23   ar
    19    23    24   ar
    20    24    25    1
    21    24    26   ar
    22     4     6    1
    23     6     7    1
    24    15    16   ar
    25    16    17   ar
    26    17    12   ar
    27     7     1    1
    28    26    20   ar
