@<TRIPOS>MOLECULE
*****
 30 32 0 0 0
SMALL
GASTEIGER

@<TRIPOS>ATOM
      1 C          -7.1542  -19.7759   21.3466 C.ar    1  UNL1        0.1344
      2 C          -7.6888  -20.4851   22.5554 C.ar    1  UNL1        0.0310
      3 C          -8.9760  -20.0355   23.1805 C.ar    1  UNL1       -0.0067
      4 C          -9.5107  -20.7447   24.3894 C.3     1  UNL1        0.0319
      5 C          -9.7287  -18.8767   22.5968 C.ar    1  UNL1        0.0959
      6 C          -9.1941  -18.1676   21.3880 C.ar    1  UNL1        0.1393
      7 N          -7.9069  -18.6172   20.7629 N.ar    1  UNL1       -0.2154
      8 N          -5.8669  -20.2255   20.7214 N.pl3   1  UNL1       -0.2819
      9 H          -5.7975  -21.1268   20.3313 H       1  UNL1        0.1551
     10 C          -1.4291  -17.7973   19.2080 C.3     1  UNL1        0.0515
     11 C          -2.6455  -18.1859   19.9951 C.ar    1  UNL1        0.0548
     12 C          -3.6323  -19.2527   19.6236 C.ar    1  UNL1        0.0502
     13 C          -4.6853  -19.3020   20.6907 C.ar    1  UNL1        0.1539
     14 N          -4.3493  -18.2656   21.7218 N.ar    1  UNL1       -0.1577
     15 N          -3.0886  -17.5758   21.2919 N.ar    1  UNL1       -0.2786
     16 H          -2.6321  -16.8501   21.7758 H       1  UNL1        0.1886
     17 C         -11.0160  -18.4271   23.2219 C.1     1  UNL1        0.1029
     18 N         -12.3033  -17.9776   23.8470 N.1     1  UNL1       -0.1907
     19 N          -9.9468  -17.0088   20.8042 N.pl3   1  UNL1       -0.3145
     20 H         -10.5129  -17.1397   20.0095 H       1  UNL1        0.1483
     21 C          -9.8369  -15.6506   21.4313 C.3     1  UNL1        0.1362
     22 C          -8.4888  -15.0912   21.7773 C.3     1  UNL1        0.2265
     23 O          -7.4989  -15.9306   22.5293 O.3     1  UNL1       -0.4728
     24 C          -7.3560  -15.7721   24.0141 C.ar    1  UNL1        0.1491
     25 C          -8.5572  -15.9092   24.9021 C.ar    1  UNL1        0.0378
     26 C          -8.4143  -15.7507   26.3868 C.ar    1  UNL1        0.0032
     27 C          -7.0702  -15.4551   26.9836 C.ar    1  UNL1        0.0011
     28 C          -5.8691  -15.3180   26.0956 C.ar    1  UNL1        0.0145
     29 C          -6.0120  -15.4765   24.6109 C.ar    1  UNL1        0.0915
     30 CL         -4.8108  -15.3394   23.7229 Cl      1  UNL1       -0.0791
@<TRIPOS>BOND
     1    10    11    1
     2    11    12   ar
     3    12    13   ar
     4    13     8    1
     5     8     1    1
     6     1     2   ar
     7     2     3   ar
     8     3     4    1
     9     3     5   ar
    10     5    17    1
    11    17    18    3
    12     5     6   ar
    13     6    19    1
    14    19    21    1
    15    21    22    1
    16    22    23    1
    17    23    24    1
    18    24    25   ar
    19    25    26   ar
    20    26    27   ar
    21    27    28   ar
    22    28    29   ar
    23    29    30    1
    24     6     7   ar
    25    13    14   ar
    26    14    15   ar
    27    15    11   ar
    28     7     1   ar
    29    29    24   ar
    30     8     9    1
    31    19    20    1
    32    15    16    1
@<TRIPOS>MOLECULE
*****
 30 32 0 0 0
SMALL
GASTEIGER

@<TRIPOS>ATOM
      1 C          -3.9705  -18.2802   22.4609 C.ar    1  UNL1        0.1344
      2 C          -4.0325  -17.1377   23.4308 C.ar    1  UNL1        0.0310
      3 C          -5.3589  -16.5550   23.8195 C.ar    1  UNL1       -0.0067
      4 C          -5.4209  -15.4125   24.7895 C.3     1  UNL1        0.0319
      5 C          -6.6233  -17.1148   23.2382 C.ar    1  UNL1        0.0959
      6 C          -6.5613  -18.2573   22.2683 C.ar    1  UNL1        0.1393
      7 N          -5.2350  -18.8400   21.8796 N.ar    1  UNL1       -0.2154
      8 N          -2.6441  -18.8630   22.0721 N.pl3   1  UNL1       -0.2819
      9 H          -2.1903  -19.4977   22.6726 H       1  UNL1        0.1551
     10 C          -1.9965  -17.3754   17.0474 C.3     1  UNL1        0.0515
     11 C          -1.7115  -17.7950   18.4591 C.ar    1  UNL1        0.0548
     12 C          -2.7353  -18.1033   19.5110 C.ar    1  UNL1        0.0502
     13 C          -2.0091  -18.4787   20.7687 C.ar    1  UNL1        0.1539
     14 N          -0.5364  -18.4024   20.4940 N.ar    1  UNL1       -0.1577
     15 N          -0.3524  -17.9798   19.0665 N.ar    1  UNL1       -0.2786
     16 H           0.5090  -17.8471   18.6088 H       1  UNL1        0.1886
     17 C          -7.9497  -16.5320   23.6270 C.1     1  UNL1        0.1029
     18 N          -9.2761  -15.9493   24.0156 N.1     1  UNL1       -0.1907
     19 N          -7.8258  -18.8170   21.6870 N.pl3   1  UNL1       -0.3145
     20 H          -8.6888  -18.6451   22.1285 H       1  UNL1        0.1483
     21 C          -7.7753  -19.6388   20.4332 C.3     1  UNL1        0.1362
     22 C          -8.7943  -19.4233   19.3537 C.3     1  UNL1        0.2265
     23 O         -10.2514  -19.6265   19.6464 O.3     1  UNL1       -0.4728
     24 C         -10.9961  -18.6246   20.4781 C.ar    1  UNL1        0.1491
     25 C         -11.3776  -17.2980   19.8911 C.ar    1  UNL1        0.0378
     26 C         -12.1223  -16.2961   20.7227 C.ar    1  UNL1        0.0032
     27 C         -12.4855  -16.6209   22.1414 C.ar    1  UNL1        0.0011
     28 C         -12.1040  -17.9474   22.7284 C.ar    1  UNL1        0.0145
     29 C         -11.3593  -18.9493   21.8968 C.ar    1  UNL1        0.0915
     30 CL        -10.9778  -20.2760   22.4838 Cl      1  UNL1       -0.0791
@<TRIPOS>BOND
     1    10    11    1
     2    11    12   ar
     3    12    13   ar
     4    13     8    1
     5     8     1    1
     6     1     2   ar
     7     2     3   ar
     8     3     4    1
     9     3     5   ar
    10     5    17    1
    11    17    18    3
    12     5     6   ar
    13     6    19    1
    14    19    21    1
    15    21    22    1
    16    22    23    1
    17    23    24    1
    18    24    25   ar
    19    25    26   ar
    20    26    27   ar
    21    27    28   ar
    22    28    29   ar
    23    29    30    1
    24     6     7   ar
    25    13    14   ar
    26    14    15   ar
    27    15    11   ar
    28     7     1   ar
    29    29    24   ar
    30     8     9    1
    31    19    20    1
    32    15    16    1
@<TRIPOS>MOLECULE
*****
 30 32 0 0 0
SMALL
GASTEIGER

@<TRIPOS>ATOM
      1 C          -7.1524  -20.0760   21.1556 C.ar    1  UNL1        0.1344
      2 C          -8.0116  -19.7855   19.9608 C.ar    1  UNL1        0.0310
      3 C          -9.4330  -19.3449   20.1486 C.ar    1  UNL1       -0.0067
      4 C         -10.2922  -19.0544   18.9538 C.3     1  UNL1        0.0319
      5 C          -9.9954  -19.1949   21.5310 C.ar    1  UNL1        0.0959
      6 C          -9.1363  -19.4854   22.7258 C.ar    1  UNL1        0.1393
      7 N          -7.7148  -19.9259   22.5381 N.ar    1  UNL1       -0.2154
      8 N          -5.7309  -20.5165   20.9679 N.pl3   1  UNL1       -0.2819
      9 H          -5.5079  -21.4754   20.9731 H       1  UNL1        0.1551
     10 C          -1.6841  -17.8195   18.9112 C.3     1  UNL1        0.0515
     11 C          -2.7890  -18.2564   19.8269 C.ar    1  UNL1        0.0548
     12 C          -3.6972  -19.4312   19.6148 C.ar    1  UNL1        0.0502
     13 C          -4.6491  -19.4961   20.7723 C.ar    1  UNL1        0.1539
     14 N          -4.3292  -18.3614   21.6997 N.ar    1  UNL1       -0.1577
     15 N          -3.1796  -17.5952   21.1155 N.ar    1  UNL1       -0.2786
     16 H          -2.7558  -16.7983   21.5087 H       1  UNL1        0.1886
     17 C         -11.4169  -18.7543   21.7187 C.1     1  UNL1        0.1029
     18 N         -12.8384  -18.3137   21.9064 N.1     1  UNL1       -0.1907
     19 N          -9.6986  -19.3353   24.1083 N.pl3   1  UNL1       -0.3145
     20 H         -10.1481  -20.0962   24.5421 H       1  UNL1        0.1483
     21 C          -9.5761  -18.0260   24.8297 C.3     1  UNL1        0.1362
     22 C          -9.9395  -16.7486   24.1325 C.3     1  UNL1        0.2265
     23 O          -9.2816  -15.4616   24.5339 O.3     1  UNL1       -0.4728
     24 C          -7.8295  -15.4469   24.9096 C.ar    1  UNL1        0.1491
     25 C          -6.7783  -15.4210   23.8398 C.ar    1  UNL1        0.0378
     26 C          -5.3262  -15.4063   24.2155 C.ar    1  UNL1        0.0032
     27 C          -4.9253  -15.4175   25.6609 C.ar    1  UNL1        0.0011
     28 C          -5.9764  -15.4434   26.7306 C.ar    1  UNL1        0.0145
     29 C          -7.4286  -15.4581   26.3549 C.ar    1  UNL1        0.0915
     30 CL         -8.4798  -15.4840   27.4247 Cl      1  UNL1       -0.0791
@<TRIPOS>BOND
     1    10    11    1
     2    11    12   ar
     3    12    13   ar
     4    13     8    1
     5     8     1    1
     6     1     2   ar
     7     2     3   ar
     8     3     4    1
     9     3     5   ar
    10     5    17    1
    11    17    18    3
    12     5     6   ar
    13     6    19    1
    14    19    21    1
    15    21    22    1
    16    22    23    1
    17    23    24    1
    18    24    25   ar
    19    25    26   ar
    20    26    27   ar
    21    27    28   ar
    22    28    29   ar
    23    29    30    1
    24     6     7   ar
    25    13    14   ar
    26    14    15   ar
    27    15    11   ar
    28     7     1   ar
    29    29    24   ar
    30     8     9    1
    31    19    20    1
    32    15    16    1
@<TRIPOS>MOLECULE
*****
 30 32 0 0 0
SMALL
GASTEIGER

@<TRIPOS>ATOM
      1 C          -6.7451  -19.7570   21.8442 C.ar    1  UNL1        0.1344
      2 C          -5.9957  -20.5465   20.8122 C.ar    1  UNL1        0.0310
      3 C          -4.5544  -20.2386   20.5333 C.ar    1  UNL1       -0.0067
      4 C          -3.8049  -21.0280   19.5012 C.3     1  UNL1        0.0319
      5 C          -3.8625  -19.1413   21.2865 C.ar    1  UNL1        0.0959
      6 C          -4.6120  -18.3518   22.3185 C.ar    1  UNL1        0.1393
      7 N          -6.0533  -18.6597   22.5973 N.ar    1  UNL1       -0.2154
      8 N          -8.1865  -20.0649   22.1231 N.pl3   1  UNL1       -0.2819
      9 H          -8.4245  -20.8265   22.6997 H       1  UNL1        0.1551
     10 C         -12.7668  -17.5436   21.3853 C.3     1  UNL1        0.0515
     11 C         -11.3705  -18.0535   21.1842 C.ar    1  UNL1        0.0548
     12 C         -10.6199  -18.9588   22.1153 C.ar    1  UNL1        0.0502
     13 C          -9.2652  -19.2124   21.5234 C.ar    1  UNL1        0.1539
     14 N          -9.1786  -18.4639   20.2263 N.ar    1  UNL1       -0.1577
     15 N         -10.4797  -17.7476   20.0167 N.ar    1  UNL1       -0.2786
     16 H         -10.7088  -17.1769   19.2479 H       1  UNL1        0.1886
     17 C          -2.4212  -18.8334   21.0076 C.1     1  UNL1        0.1029
     18 N          -0.9798  -18.5256   20.7287 N.1     1  UNL1       -0.1907
     19 N          -3.9201  -17.2545   23.0716 N.pl3   1  UNL1       -0.3145
     20 H          -2.9735  -17.0540   22.8902 H       1  UNL1        0.1483
     21 C          -4.6705  -16.4628   24.1012 C.3     1  UNL1        0.1362
     22 C          -5.1980  -15.1003   23.7617 C.3     1  UNL1        0.2265
     23 O          -6.4086  -14.5671   24.4690 O.3     1  UNL1       -0.4728
     24 C          -7.3521  -15.5098   25.1555 C.ar    1  UNL1        0.1491
     25 C          -7.2861  -15.6854   26.6438 C.ar    1  UNL1        0.0378
     26 C          -8.2296  -16.6281   27.3303 C.ar    1  UNL1        0.0032
     27 C          -9.2389  -17.3952   26.5285 C.ar    1  UNL1        0.0011
     28 C          -9.3048  -17.2196   25.0403 C.ar    1  UNL1        0.0145
     29 C          -8.3614  -16.2769   24.3538 C.ar    1  UNL1        0.0915
     30 CL         -8.4273  -16.1013   22.8655 Cl      1  UNL1       -0.0791
@<TRIPOS>BOND
     1    10    11    1
     2    11    12   ar
     3    12    13   ar
     4    13     8    1
     5     8     1    1
     6     1     2   ar
     7     2     3   ar
     8     3     4    1
     9     3     5   ar
    10     5    17    1
    11    17    18    3
    12     5     6   ar
    13     6    19    1
    14    19    21    1
    15    21    22    1
    16    22    23    1
    17    23    24    1
    18    24    25   ar
    19    25    26   ar
    20    26    27   ar
    21    27    28   ar
    22    28    29   ar
    23    29    30    1
    24     6     7   ar
    25    13    14   ar
    26    14    15   ar
    27    15    11   ar
    28     7     1   ar
    29    29    24   ar
    30     8     9    1
    31    19    20    1
    32    15    16    1
@<TRIPOS>MOLECULE
*****
 30 32 0 0 0
SMALL
GASTEIGER

@<TRIPOS>ATOM
      1 C          -7.1148  -15.6479   23.4305 C.ar    1  UNL1        0.1344
      2 C          -7.6835  -16.4283   24.5783 C.ar    1  UNL1        0.0310
      3 C          -9.1158  -16.8728   24.5464 C.ar    1  UNL1       -0.0067
      4 C          -9.6846  -17.6532   25.6942 C.3     1  UNL1        0.0319
      5 C          -9.9792  -16.5370   23.3667 C.ar    1  UNL1        0.0959
      6 C          -9.4104  -15.7566   22.2189 C.ar    1  UNL1        0.1393
      7 N          -7.9782  -15.3120   22.2508 N.ar    1  UNL1       -0.2154
      8 N          -5.6825  -15.2033   23.4624 N.pl3   1  UNL1       -0.2819
      9 H          -5.4490  -14.3210   23.8316 H       1  UNL1        0.1551
     10 C          -2.9776  -19.5203   22.0739 C.3     1  UNL1        0.0515
     11 C          -3.3627  -18.0873   22.2935 C.ar    1  UNL1        0.0548
     12 C          -4.6419  -17.6023   22.9085 C.ar    1  UNL1        0.0502
     13 C          -4.6059  -16.1030   22.9317 C.ar    1  UNL1        0.1539
     14 N          -3.3044  -15.6612   22.3310 N.ar    1  UNL1       -0.1577
     15 N          -2.5359  -16.8876   21.9366 N.ar    1  UNL1       -0.2786
     16 H          -1.6454  -16.9024   21.5171 H       1  UNL1        0.1886
     17 C         -11.4115  -16.9815   23.3348 C.1     1  UNL1        0.1029
     18 N         -12.8437  -17.4261   23.3029 N.1     1  UNL1       -0.1907
     19 N         -10.2739  -15.4207   21.0392 N.pl3   1  UNL1       -0.3145
     20 H         -10.8283  -14.6072   21.0507 H       1  UNL1        0.1483
     21 C         -10.2926  -16.3243   19.8420 C.3     1  UNL1        0.1362
     22 C         -11.1769  -17.5359   19.8306 C.3     1  UNL1        0.2265
     23 O         -10.5706  -18.9073   19.8747 O.3     1  UNL1       -0.4728
     24 C         -10.0396  -19.4513   21.1678 C.ar    1  UNL1        0.1491
     25 C         -10.9775  -20.0640   22.1652 C.ar    1  UNL1        0.0378
     26 C         -10.4465  -20.6080   23.4583 C.ar    1  UNL1        0.0032
     27 C          -8.9775  -20.5393   23.7539 C.ar    1  UNL1        0.0011
     28 C          -8.0396  -19.9266   22.7565 C.ar    1  UNL1        0.0145
     29 C          -8.5706  -19.3826   21.4634 C.ar    1  UNL1        0.0915
     30 CL         -7.6326  -18.7698   20.4660 Cl      1  UNL1       -0.0791
@<TRIPOS>BOND
     1    10    11    1
     2    11    12   ar
     3    12    13   ar
     4    13     8    1
     5     8     1    1
     6     1     2   ar
     7     2     3   ar
     8     3     4    1
     9     3     5   ar
    10     5    17    1
    11    17    18    3
    12     5     6   ar
    13     6    19    1
    14    19    21    1
    15    21    22    1
    16    22    23    1
    17    23    24    1
    18    24    25   ar
    19    25    26   ar
    20    26    27   ar
    21    27    28   ar
    22    28    29   ar
    23    29    30    1
    24     6     7   ar
    25    13    14   ar
    26    14    15   ar
    27    15    11   ar
    28     7     1   ar
    29    29    24   ar
    30     8     9    1
    31    19    20    1
    32    15    16    1
@<TRIPOS>MOLECULE
*****
 30 32 0 0 0
SMALL
GASTEIGER

@<TRIPOS>ATOM
      1 C         -11.7563   -2.4041   18.9603 C.ar    1  UNL1        0.1344
      2 C         -12.1349   -1.0578   18.4180 C.ar    1  UNL1        0.0310
      3 C         -13.5122   -0.5135   18.6565 C.ar    1  UNL1       -0.0067
      4 C         -13.8909    0.8328   18.1142 C.3     1  UNL1        0.0319
      5 C         -14.5108   -1.3156   19.4372 C.ar    1  UNL1        0.0959
      6 C         -14.1321   -2.6618   19.9795 C.ar    1  UNL1        0.1393
      7 N         -12.7549   -3.2061   19.7410 N.ar    1  UNL1       -0.2154
      8 N         -10.3790   -2.9484   18.7218 N.pl3   1  UNL1       -0.2819
      9 H          -9.6210   -2.3326   18.5976 H       1  UNL1        0.1551
     10 C         -10.5982   -8.0128   17.2440 C.3     1  UNL1        0.0515
     11 C         -10.2574   -6.7588   17.9932 C.ar    1  UNL1        0.0548
     12 C         -10.7426   -5.3774   17.6672 C.ar    1  UNL1        0.0502
     13 C         -10.1566   -4.4310   18.6725 C.ar    1  UNL1        0.1539
     14 N          -9.3091   -5.2274   19.6199 N.ar    1  UNL1       -0.1577
     15 N          -9.3714   -6.6661   19.2001 N.ar    1  UNL1       -0.2786
     16 H          -8.9116   -7.4176   19.6396 H       1  UNL1        0.1886
     17 C         -15.8881   -0.7712   19.6757 C.1     1  UNL1        0.1029
     18 N         -17.2653   -0.2269   19.9141 N.1     1  UNL1       -0.1907
     19 N         -15.1307   -3.4639   20.7603 N.pl3   1  UNL1       -0.3145
     20 H         -15.1073   -3.4555   21.7445 H       1  UNL1        0.1483
     21 C         -16.1649   -4.2786   20.0416 C.3     1  UNL1        0.1362
     22 C         -15.7411   -5.3544   19.0860 C.3     1  UNL1        0.2265
     23 O         -15.2069   -6.6547   19.6094 O.3     1  UNL1       -0.4728
     24 C         -15.9372   -7.9339   19.3262 C.ar    1  UNL1        0.1491
     25 C         -17.2663   -8.1971   19.9699 C.ar    1  UNL1        0.0378
     26 C         -17.9966   -9.4763   19.6867 C.ar    1  UNL1        0.0032
     27 C         -17.3978  -10.4924   18.7597 C.ar    1  UNL1        0.0011
     28 C         -16.0688  -10.2292   18.1161 C.ar    1  UNL1        0.0145
     29 C         -15.3385   -8.9499   18.3993 C.ar    1  UNL1        0.0915
     30 CL        -14.0094   -8.6867   17.7556 Cl      1  UNL1       -0.0791
@<TRIPOS>BOND
     1    10    11    1
     2    11    12   ar
     3    12    13   ar
     4    13     8    1
     5     8     1    1
     6     1     2   ar
     7     2     3   ar
     8     3     4    1
     9     3     5   ar
    10     5    17    1
    11    17    18    3
    12     5     6   ar
    13     6    19    1
    14    19    21    1
    15    21    22    1
    16    22    23    1
    17    23    24    1
    18    24    25   ar
    19    25    26   ar
    20    26    27   ar
    21    27    28   ar
    22    28    29   ar
    23    29    30    1
    24     6     7   ar
    25    13    14   ar
    26    14    15   ar
    27    15    11   ar
    28     7     1   ar
    29    29    24   ar
    30     8     9    1
    31    19    20    1
    32    15    16    1
@<TRIPOS>MOLECULE
*****
 30 32 0 0 0
SMALL
GASTEIGER

@<TRIPOS>ATOM
      1 C         -13.7028   -7.7659   18.4592 C.ar    1  UNL1        0.1344
      2 C         -12.3494   -7.2221   18.8092 C.ar    1  UNL1        0.0310
      3 C         -11.8871   -5.9235   18.2177 C.ar    1  UNL1       -0.0067
      4 C         -10.5336   -5.3796   18.5676 C.3     1  UNL1        0.0319
      5 C         -12.7782   -5.1687   17.2763 C.ar    1  UNL1        0.0959
      6 C         -14.1316   -5.7125   16.9264 C.ar    1  UNL1        0.1393
      7 N         -14.5939   -7.0111   17.5178 N.ar    1  UNL1       -0.2154
      8 N         -14.1652   -9.0646   19.0507 N.pl3   1  UNL1       -0.2819
      9 H         -13.5070   -9.7102   19.3961 H       1  UNL1        0.1551
     10 C         -19.3058   -8.8229   20.2322 C.3     1  UNL1        0.0515
     11 C         -17.9932   -9.2685   19.6590 C.ar    1  UNL1        0.0548
     12 C         -16.6667   -8.6008   19.8705 C.ar    1  UNL1        0.0502
     13 C         -15.6303   -9.3795   19.1160 C.ar    1  UNL1        0.1539
     14 N         -16.3162  -10.5285   18.4382 N.ar    1  UNL1       -0.1577
     15 N         -17.7765  -10.4599   18.7738 N.ar    1  UNL1       -0.2786
     16 H         -18.4709  -11.0868   18.4670 H       1  UNL1        0.1886
     17 C         -12.3158   -3.8701   16.6848 C.1     1  UNL1        0.1029
     18 N         -11.8535   -2.5715   16.0934 N.1     1  UNL1       -0.1907
     19 N         -15.0227   -4.9577   15.9850 N.pl3   1  UNL1       -0.3145
     20 H         -14.6577   -4.5956   15.1454 H       1  UNL1        0.1483
     21 C         -16.4700   -4.7547   16.3227 C.3     1  UNL1        0.1362
     22 C         -16.9920   -3.3733   16.5862 C.3     1  UNL1        0.2265
     23 O         -16.9856   -2.8226   17.9816 O.3     1  UNL1       -0.4728
     24 C         -15.7491   -2.9287   18.8240 C.ar    1  UNL1        0.1491
     25 C         -14.6753   -1.8871   18.7145 C.ar    1  UNL1        0.0378
     26 C         -13.4387   -1.9932   19.5569 C.ar    1  UNL1        0.0032
     27 C         -13.2761   -3.1409   20.5090 C.ar    1  UNL1        0.0011
     28 C         -14.3499   -4.1825   20.6185 C.ar    1  UNL1        0.0145
     29 C         -15.5864   -4.0764   19.7761 C.ar    1  UNL1        0.0915
     30 CL        -16.6602   -5.1180   19.8856 Cl      1  UNL1       -0.0791
@<TRIPOS>BOND
     1    10    11    1
     2    11    12   ar
     3    12    13   ar
     4    13     8    1
     5     8     1    1
     6     1     2   ar
     7     2     3   ar
     8     3     4    1
     9     3     5   ar
    10     5    17    1
    11    17    18    3
    12     5     6   ar
    13     6    19    1
    14    19    21    1
    15    21    22    1
    16    22    23    1
    17    23    24    1
    18    24    25   ar
    19    25    26   ar
    20    26    27   ar
    21    27    28   ar
    22    28    29   ar
    23    29    30    1
    24     6     7   ar
    25    13    14   ar
    26    14    15   ar
    27    15    11   ar
    28     7     1   ar
    29    29    24   ar
    30     8     9    1
    31    19    20    1
    32    15    16    1
@<TRIPOS>MOLECULE
*****
 30 32 0 0 0
SMALL
GASTEIGER

@<TRIPOS>ATOM
      1 C         -14.2659   -8.0471   17.8955 C.ar    1  UNL1        0.1344
      2 C         -15.0081   -9.3372   18.0822 C.ar    1  UNL1        0.0310
      3 C         -16.3151   -9.3507   18.8179 C.ar    1  UNL1       -0.0067
      4 C         -17.0573  -10.6409   19.0047 C.3     1  UNL1        0.0319
      5 C         -16.8801   -8.0742   19.3669 C.ar    1  UNL1        0.0959
      6 C         -16.1379   -6.7842   19.1801 C.ar    1  UNL1        0.1393
      7 N         -14.8309   -6.7706   18.4444 N.ar    1  UNL1       -0.2154
      8 N         -12.9588   -8.0335   17.1597 N.pl3   1  UNL1       -0.2819
      9 H         -12.8040   -8.6637   16.4194 H       1  UNL1        0.1551
     10 C          -9.2862   -4.2466   16.9310 C.3     1  UNL1        0.0515
     11 C         -10.1994   -5.3191   17.4469 C.ar    1  UNL1        0.0548
     12 C         -11.1939   -6.0956   16.6358 C.ar    1  UNL1        0.0502
     13 C         -11.8874   -7.0597   17.5520 C.ar    1  UNL1        0.1539
     14 N         -11.3215   -6.8790   18.9294 N.ar    1  UNL1       -0.1577
     15 N         -10.2782   -5.8033   18.8644 N.ar    1  UNL1       -0.2786
     16 H          -9.7398   -5.4730   19.6196 H       1  UNL1        0.1886
     17 C         -18.1872   -8.0878   20.1026 C.1     1  UNL1        0.1029
     18 N         -19.4943   -8.1014   20.8384 N.1     1  UNL1       -0.1907
     19 N         -16.7029   -5.5077   19.7291 N.pl3   1  UNL1       -0.3145
     20 H         -16.6595   -5.3257   20.6957 H       1  UNL1        0.1483
     21 C         -17.3339   -4.5084   18.8054 C.3     1  UNL1        0.1362
     22 C         -16.6634   -3.1900   18.5557 C.3     1  UNL1        0.2265
     23 O         -15.7945   -2.5781   19.6143 O.3     1  UNL1       -0.4728
     24 C         -14.4282   -2.0692   19.2614 C.ar    1  UNL1        0.1491
     25 C         -14.2727   -0.7254   18.6132 C.ar    1  UNL1        0.0378
     26 C         -12.9065   -0.2166   18.2604 C.ar    1  UNL1        0.0032
     27 C         -11.6958   -1.0516   18.5557 C.ar    1  UNL1        0.0011
     28 C         -11.8514   -2.3953   19.2039 C.ar    1  UNL1        0.0145
     29 C         -13.2176   -2.9041   19.5568 C.ar    1  UNL1        0.0915
     30 CL        -13.3732   -4.2479   20.2050 Cl      1  UNL1       -0.0791
@<TRIPOS>BOND
     1    10    11    1
     2    11    12   ar
     3    12    13   ar
     4    13     8    1
     5     8     1    1
     6     1     2   ar
     7     2     3   ar
     8     3     4    1
     9     3     5   ar
    10     5    17    1
    11    17    18    3
    12     5     6   ar
    13     6    19    1
    14    19    21    1
    15    21    22    1
    16    22    23    1
    17    23    24    1
    18    24    25   ar
    19    25    26   ar
    20    26    27   ar
    21    27    28   ar
    22    28    29   ar
    23    29    30    1
    24     6     7   ar
    25    13    14   ar
    26    14    15   ar
    27    15    11   ar
    28     7     1   ar
    29    29    24   ar
    30     8     9    1
    31    19    20    1
    32    15    16    1
@<TRIPOS>MOLECULE
*****
 30 32 0 0 0
SMALL
GASTEIGER

@<TRIPOS>ATOM
      1 C           7.0411   -3.6135   20.7462 C.ar    1  UNL1        0.1344
      2 C           5.6807   -4.1486   20.4101 C.ar    1  UNL1        0.0310
      3 C           4.8699   -3.5071   19.3234 C.ar    1  UNL1       -0.0067
      4 C           3.5095   -4.0422   18.9873 C.3     1  UNL1        0.0319
      5 C           5.4195   -2.3304   18.5728 C.ar    1  UNL1        0.0959
      6 C           6.7799   -1.7953   18.9089 C.ar    1  UNL1        0.1393
      7 N           7.5907   -2.4369   19.9956 N.ar    1  UNL1       -0.2154
      8 N           7.8520   -4.2551   21.8330 N.pl3   1  UNL1       -0.2819
      9 H           8.7372   -4.6341   21.6282 H       1  UNL1        0.1551
     10 C           6.8911   -5.8443   26.7758 C.3     1  UNL1        0.0515
     11 C           6.8724   -5.0497   25.5037 C.ar    1  UNL1        0.0548
     12 C           7.6226   -5.3792   24.2473 C.ar    1  UNL1        0.0502
     13 C           7.3140   -4.3192   23.2317 C.ar    1  UNL1        0.1539
     14 N           6.3731   -3.3347   23.8605 N.ar    1  UNL1       -0.1577
     15 N           6.1001   -3.7862   25.2647 N.ar    1  UNL1       -0.2786
     16 H           5.5165   -3.3328   25.9152 H       1  UNL1        0.1886
     17 C           4.6087   -1.6888   17.4861 C.1     1  UNL1        0.1029
     18 N           3.7978   -1.0472   16.3994 N.1     1  UNL1       -0.1907
     19 N           7.3295   -0.6186   18.1584 N.pl3   1  UNL1       -0.3145
     20 H           7.7303   -0.7461   17.2682 H       1  UNL1        0.1483
     21 C           7.2683    0.7523   18.7639 C.3     1  UNL1        0.1362
     22 C           6.0262    1.5810   18.6204 C.3     1  UNL1        0.2265
     23 O           5.0997    1.7520   19.7876 O.3     1  UNL1       -0.4728
     24 C           3.8662    0.9054   19.8963 C.ar    1  UNL1        0.1491
     25 C           2.6935    1.1700   18.9992 C.ar    1  UNL1        0.0378
     26 C           1.4600    0.3235   19.1080 C.ar    1  UNL1        0.0032
     27 C           1.3992   -0.7878   20.1138 C.ar    1  UNL1        0.0011
     28 C           2.5720   -1.0523   21.0108 C.ar    1  UNL1        0.0145
     29 C           3.8054   -0.2058   20.9021 C.ar    1  UNL1        0.0915
     30 CL          4.9782   -0.4704   21.7992 Cl      1  UNL1       -0.0791
@<TRIPOS>BOND
     1    10    11    1
     2    11    12   ar
     3    12    13   ar
     4    13     8    1
     5     8     1    1
     6     1     2   ar
     7     2     3   ar
     8     3     4    1
     9     3     5   ar
    10     5    17    1
    11    17    18    3
    12     5     6   ar
    13     6    19    1
    14    19    21    1
    15    21    22    1
    16    22    23    1
    17    23    24    1
    18    24    25   ar
    19    25    26   ar
    20    26    27   ar
    21    27    28   ar
    22    28    29   ar
    23    29    30    1
    24     6     7   ar
    25    13    14   ar
    26    14    15   ar
    27    15    11   ar
    28     7     1   ar
    29    29    24   ar
    30     8     9    1
    31    19    20    1
    32    15    16    1
