@<TRIPOS>MOLECULE
*****
 35 38 0 0 0
SMALL
GASTEIGER

@<TRIPOS>ATOM
      1 S           1.2589    0.9982   21.2629 S.O2    1  UNL1        0.0634
      2 O           0.0182    0.2720   20.8346 O.2     1  UNL1       -0.1528
      3 O           2.4995    1.7243   21.6911 O.2     1  UNL1       -0.1528
      4 C           2.0559    0.2363   20.2459 C.ar    1  UNL1        0.1254
      5 C           2.4104    0.8777   18.9370 C.ar    1  UNL1        0.0232
      6 C           3.2074    0.1158   17.9200 C.ar    1  UNL1        0.0412
      7 C           3.6499   -1.2874   18.2118 C.ar    1  UNL1        0.1684
      8 O           4.4468   -2.0492   17.1948 O.3     1  UNL1       -0.5028
      9 C           3.2954   -1.9288   19.5205 C.ar    1  UNL1        0.1800
     10 C           2.4983   -1.1669   20.5376 C.ar    1  UNL1        0.0605
     11 H           4.6683   -1.6486   16.3772 H       1  UNL1        0.2923
     12 O           3.7378   -3.3320   19.8123 O.3     1  UNL1       -0.4504
     13 C           4.8793   -3.5780   20.7540 C.ar    1  UNL1        0.1463
     14 C           4.6293   -3.6574   22.2309 C.ar    1  UNL1        0.0375
     15 C           5.7706   -3.9034   23.1726 C.ar    1  UNL1        0.0040
     16 C           7.1619   -4.0700   22.6374 C.ar    1  UNL1        0.0116
     17 C           7.4119   -3.9906   21.1605 C.ar    1  UNL1        0.0607
     18 CL          8.8033   -4.1572   20.6253 Cl      1  UNL1       -0.0821
     19 C           6.2706   -3.7446   20.2188 C.ar    1  UNL1        0.0489
     20 C          -0.1272    2.2632   24.7598 C.3     1  UNL1        0.1076
     21 C          -1.1321    3.2837   24.3140 C.3     1  UNL1        0.0257
     22 C          -1.3400    3.5425   22.8512 C.3     1  UNL1        0.0211
     23 C          -0.5430    2.7806   21.8341 C.3     1  UNL1        0.0959
     24 N           0.4619    1.7600   22.2799 N.3     1  UNL1       -0.1536
     25 C           0.6697    1.5013   23.7428 C.3     1  UNL1        0.1184
     26 C          -1.5331   -0.1352   29.1497 C.3     1  UNL1        0.0376
     27 C          -0.6224    0.8053   28.4176 C.ar    1  UNL1        0.0514
     28 C          -0.8302    1.0640   26.9548 C.ar    1  UNL1        0.0801
     29 N           0.0806    2.0045   26.2227 N.ar    1  UNL1       -0.2806
     30 C           1.1992    2.6863   26.9533 C.ar    1  UNL1        0.3305
     31 O           2.1099    3.6268   26.2212 O.2     1  UNL1       -0.2464
     32 N           1.4070    2.4276   28.4161 N.ar    1  UNL1       -0.2746
     33 C           0.4962    1.4871   29.1483 C.ar    1  UNL1        0.2584
     34 O           0.7040    1.2284   30.6111 O.2     1  UNL1       -0.2674
     35 H           2.1411    2.8751   28.8957 H       1  UNL1        0.1734
@<TRIPOS>BOND
     1    26    27    1
     2    27    28   ar
     3    28    29   ar
     4    20    29    1
     5    20    21    1
     6    21    22    1
     7    22    23    1
     8    23    24    1
     9    24     1    1
    10     1     2    2
    11     1     3    2
    12     1     4    1
    13     4     5   ar
    14     5     6   ar
    15     6     7   ar
    16     7     8    1
    17     7     9   ar
    18     9    12    1
    19    12    13    1
    20    13    14   ar
    21    14    15   ar
    22    15    16   ar
    23    16    17   ar
    24    17    18    1
    25    17    19   ar
    26     9    10   ar
    27    24    25    1
    28    29    30   ar
    29    30    31    2
    30    30    32   ar
    31    32    33   ar
    32    33    34    2
    33    33    27   ar
    34    25    20    1
    35    10     4   ar
    36    19    13   ar
    37     8    11    1
    38    32    35    1
@<TRIPOS>MOLECULE
*****
 35 38 0 0 0
SMALL
GASTEIGER

@<TRIPOS>ATOM
      1 S           1.1528    0.9661   20.0871 S.O2    1  UNL1        0.0634
      2 O           0.6753    1.4090   18.7359 O.2     1  UNL1       -0.1528
      3 O           1.6304    0.5231   21.4383 O.2     1  UNL1       -0.1528
      4 C           2.1254    0.0280   19.4359 C.ar    1  UNL1        0.1254
      5 C           2.7827    0.4082   18.1422 C.ar    1  UNL1        0.0232
      6 C           3.7552   -0.5298   17.4910 C.ar    1  UNL1        0.0412
      7 C           4.0705   -1.8482   18.1333 C.ar    1  UNL1        0.1684
      8 O           5.0430   -2.7862   17.4821 O.3     1  UNL1       -0.5028
      9 C           3.4132   -2.2284   19.4269 C.ar    1  UNL1        0.1800
     10 C           2.4406   -1.2903   20.0782 C.ar    1  UNL1        0.0605
     11 H           5.4536   -2.5487   16.6741 H       1  UNL1        0.2923
     12 O           3.7285   -3.5468   20.0692 O.3     1  UNL1       -0.4504
     13 C           4.8862   -3.6619   21.0161 C.ar    1  UNL1        0.1463
     14 C           4.6614   -3.5389   22.4941 C.ar    1  UNL1        0.0375
     15 C           5.8190   -3.6540   23.4409 C.ar    1  UNL1        0.0040
     16 C           7.2015   -3.8922   22.9099 C.ar    1  UNL1        0.0116
     17 C           7.4263   -4.0151   21.4319 C.ar    1  UNL1        0.0607
     18 CL          8.8088   -4.2533   20.9008 Cl      1  UNL1       -0.0821
     19 C           6.2687   -3.9000   20.4850 C.ar    1  UNL1        0.0489
     20 C          -2.0616    3.2160   20.6830 C.3     1  UNL1        0.1076
     21 C          -1.7649    3.7803   22.0408 C.3     1  UNL1        0.0257
     22 C          -0.4957    3.4065   22.7474 C.3     1  UNL1        0.0211
     23 C           0.4770    2.4684   22.0961 C.3     1  UNL1        0.0959
     24 N           0.1803    1.9041   20.7383 N.3     1  UNL1       -0.1536
     25 C          -1.0890    2.2780   20.0318 C.3     1  UNL1        0.1184
     26 C          -4.4862    5.4665   16.6759 C.3     1  UNL1        0.0376
     27 C          -4.5432    4.7151   17.9729 C.ar    1  UNL1        0.0514
     28 C          -3.2740    4.3412   18.6795 C.ar    1  UNL1        0.0801
     29 N          -3.3309    3.5899   19.9765 N.ar    1  UNL1       -0.2806
     30 C          -4.6571    3.2124   20.5669 C.ar    1  UNL1        0.3305
     31 O          -4.7140    2.4610   21.8639 O.2     1  UNL1       -0.2464
     32 N          -5.9263    3.5862   19.8604 N.ar    1  UNL1       -0.2746
     33 C          -5.8694    4.3376   18.5634 C.ar    1  UNL1        0.2584
     34 O          -7.1387    4.7114   17.8568 O.2     1  UNL1       -0.2674
     35 H          -6.7968    3.3384   20.2479 H       1  UNL1        0.1734
@<TRIPOS>BOND
     1    26    27    1
     2    27    28   ar
     3    28    29   ar
     4    20    29    1
     5    20    21    1
     6    21    22    1
     7    22    23    1
     8    23    24    1
     9    24     1    1
    10     1     2    2
    11     1     3    2
    12     1     4    1
    13     4     5   ar
    14     5     6   ar
    15     6     7   ar
    16     7     8    1
    17     7     9   ar
    18     9    12    1
    19    12    13    1
    20    13    14   ar
    21    14    15   ar
    22    15    16   ar
    23    16    17   ar
    24    17    18    1
    25    17    19   ar
    26     9    10   ar
    27    24    25    1
    28    29    30   ar
    29    30    31    2
    30    30    32   ar
    31    32    33   ar
    32    33    34    2
    33    33    27   ar
    34    25    20    1
    35    10     4   ar
    36    19    13   ar
    37     8    11    1
    38    32    35    1
@<TRIPOS>MOLECULE
*****
 35 38 0 0 0
SMALL
GASTEIGER

@<TRIPOS>ATOM
      1 S           0.1463    3.1239   18.9994 S.O2    1  UNL1        0.0634
      2 O           0.2965    4.1551   17.9206 O.2     1  UNL1       -0.1528
      3 O          -0.0039    2.0926   20.0782 O.2     1  UNL1       -0.1528
      4 C          -1.2711    3.5619   19.2208 C.ar    1  UNL1        0.1254
      5 C          -1.8359    4.7033   18.4281 C.ar    1  UNL1        0.0232
      6 C          -3.2533    5.1414   18.6495 C.ar    1  UNL1        0.0412
      7 C          -4.1060    4.4380   19.6635 C.ar    1  UNL1        0.1684
      8 O          -5.5234    4.8760   19.8848 O.3     1  UNL1       -0.5028
      9 C          -3.5413    3.2966   20.4561 C.ar    1  UNL1        0.1800
     10 C          -2.1238    2.8585   20.2348 C.ar    1  UNL1        0.0605
     11 H          -5.8762    5.5890   19.3897 H       1  UNL1        0.2923
     12 O          -4.3940    2.5932   21.4701 O.3     1  UNL1       -0.4504
     13 C          -4.6999    3.2547   22.7812 C.ar    1  UNL1        0.1463
     14 C          -6.0218    3.9325   22.9889 C.ar    1  UNL1        0.0375
     15 C          -6.3276    4.5939   24.3000 C.ar    1  UNL1        0.0040
     16 C          -5.3116    4.5776   25.4033 C.ar    1  UNL1        0.0116
     17 C          -3.9897    3.8997   25.1956 C.ar    1  UNL1        0.0607
     18 CL         -2.9736    3.8834   26.2990 Cl      1  UNL1       -0.0821
     19 C          -3.6838    3.2383   23.8845 C.ar    1  UNL1        0.0489
     20 C           3.3616    0.8105   18.7550 C.3     1  UNL1        0.1076
     21 C           4.3986    1.8098   18.3354 C.3     1  UNL1        0.0257
     22 C           4.0182    3.2471   18.1371 C.3     1  UNL1        0.0211
     23 C           2.6007    3.6852   18.3584 C.3     1  UNL1        0.0959
     24 N           1.5637    2.6859   18.7781 N.3     1  UNL1       -0.1536
     25 C           1.9442    1.2485   18.9764 C.3     1  UNL1        0.1184
     26 C           4.3998   -3.1735   21.9252 C.3     1  UNL1        0.0376
     27 C           4.2612   -2.6189   20.5384 C.ar    1  UNL1        0.0514
     28 C           3.8807   -1.1816   20.3401 C.ar    1  UNL1        0.0801
     29 N           3.7421   -0.6269   18.9533 N.ar    1  UNL1       -0.2806
     30 C           3.9840   -1.5095   17.7649 C.ar    1  UNL1        0.3305
     31 O           3.8454   -0.9549   16.3781 O.2     1  UNL1       -0.2464
     32 N           4.3645   -2.9468   17.9632 N.ar    1  UNL1       -0.2746
     33 C           4.5031   -3.5015   19.3500 C.ar    1  UNL1        0.2584
     34 O           4.8836   -4.9389   19.5483 O.2     1  UNL1       -0.2674
     35 H           4.5233   -3.5261   17.1832 H       1  UNL1        0.1734
@<TRIPOS>BOND
     1    26    27    1
     2    27    28   ar
     3    28    29   ar
     4    20    29    1
     5    20    21    1
     6    21    22    1
     7    22    23    1
     8    23    24    1
     9    24     1    1
    10     1     2    2
    11     1     3    2
    12     1     4    1
    13     4     5   ar
    14     5     6   ar
    15     6     7   ar
    16     7     8    1
    17     7     9   ar
    18     9    12    1
    19    12    13    1
    20    13    14   ar
    21    14    15   ar
    22    15    16   ar
    23    16    17   ar
    24    17    18    1
    25    17    19   ar
    26     9    10   ar
    27    24    25    1
    28    29    30   ar
    29    30    31    2
    30    30    32   ar
    31    32    33   ar
    32    33    34    2
    33    33    27   ar
    34    25    20    1
    35    10     4   ar
    36    19    13   ar
    37     8    11    1
    38    32    35    1
@<TRIPOS>MOLECULE
*****
 35 38 0 0 0
SMALL
GASTEIGER

@<TRIPOS>ATOM
      1 S           7.7675   -4.7187   22.8239 S.O2    1  UNL1        0.0634
      2 O           7.2166   -3.5717   23.6182 O.2     1  UNL1       -0.1528
      3 O           8.3184   -5.8656   22.0295 O.2     1  UNL1       -0.1528
      4 C           7.7084   -5.5911   24.0426 C.ar    1  UNL1        0.1254
      5 C           8.4154   -6.9141   24.0529 C.ar    1  UNL1        0.0232
      6 C           8.3563   -7.7865   25.2716 C.ar    1  UNL1        0.0412
      7 C           7.5902   -7.3361   26.4800 C.ar    1  UNL1        0.1684
      8 O           7.5311   -8.2085   27.6988 O.3     1  UNL1       -0.5028
      9 C           6.8833   -6.0132   26.4698 C.ar    1  UNL1        0.1800
     10 C           6.9423   -5.1407   25.2510 C.ar    1  UNL1        0.0605
     11 H           7.9728   -9.0349   27.7052 H       1  UNL1        0.2923
     12 O           6.1172   -5.5628   27.6782 O.3     1  UNL1       -0.4504
     13 C           6.8412   -4.9465   28.8384 C.ar    1  UNL1        0.1463
     14 C           6.8787   -5.6541   30.1605 C.ar    1  UNL1        0.0375
     15 C           7.6027   -5.0378   31.3207 C.ar    1  UNL1        0.0040
     16 C           8.2890   -3.7139   31.1588 C.ar    1  UNL1        0.0116
     17 C           8.2515   -3.0064   29.8367 C.ar    1  UNL1        0.0607
     18 CL          8.9379   -1.6824   29.6748 Cl      1  UNL1       -0.0821
     19 C           7.5275   -3.6226   28.6765 C.ar    1  UNL1        0.0489
     20 C           6.6470   -2.2833   19.8976 C.3     1  UNL1        0.1076
     21 C           7.9448   -2.1012   19.1677 C.3     1  UNL1        0.0257
     22 C           9.1834   -2.7917   19.6565 C.3     1  UNL1        0.0211
     23 C           9.1244   -3.6642   20.8753 C.3     1  UNL1        0.0959
     24 N           7.8266   -3.8462   21.6052 N.3     1  UNL1       -0.1536
     25 C           6.5879   -3.1557   21.1163 C.3     1  UNL1        0.1184
     26 C           1.7771   -0.6655   20.7141 C.3     1  UNL1        0.0376
     27 C           2.9734   -0.7839   19.8170 C.ar    1  UNL1        0.0514
     28 C           4.2120   -1.4744   20.3058 C.ar    1  UNL1        0.0801
     29 N           5.4083   -1.5928   19.4087 N.ar    1  UNL1       -0.2806
     30 C           5.3660   -1.0208   18.0227 C.ar    1  UNL1        0.3305
     31 O           6.5623   -1.1392   17.1256 O.2     1  UNL1       -0.2464
     32 N           4.1273   -0.3303   17.5339 N.ar    1  UNL1       -0.2746
     33 C           2.9310   -0.2119   18.4310 C.ar    1  UNL1        0.2584
     34 O           1.6923    0.4786   17.9421 O.2     1  UNL1       -0.2674
     35 H           4.0995    0.0451   16.6242 H       1  UNL1        0.1734
@<TRIPOS>BOND
     1    26    27    1
     2    27    28   ar
     3    28    29   ar
     4    20    29    1
     5    20    21    1
     6    21    22    1
     7    22    23    1
     8    23    24    1
     9    24     1    1
    10     1     2    2
    11     1     3    2
    12     1     4    1
    13     4     5   ar
    14     5     6   ar
    15     6     7   ar
    16     7     8    1
    17     7     9   ar
    18     9    12    1
    19    12    13    1
    20    13    14   ar
    21    14    15   ar
    22    15    16   ar
    23    16    17   ar
    24    17    18    1
    25    17    19   ar
    26     9    10   ar
    27    24    25    1
    28    29    30   ar
    29    30    31    2
    30    30    32   ar
    31    32    33   ar
    32    33    34    2
    33    33    27   ar
    34    25    20    1
    35    10     4   ar
    36    19    13   ar
    37     8    11    1
    38    32    35    1
@<TRIPOS>MOLECULE
*****
 35 38 0 0 0
SMALL
GASTEIGER

@<TRIPOS>ATOM
      1 S           6.9944   -4.0046   21.3178 S.O2    1  UNL1        0.0634
      2 O           5.6828   -4.2878   21.9883 O.2     1  UNL1       -0.1528
      3 O           8.3059   -3.7214   20.6474 O.2     1  UNL1       -0.1528
      4 C           6.2764   -3.2749   20.2215 C.ar    1  UNL1        0.1254
      5 C           7.0372   -2.7768   19.0285 C.ar    1  UNL1        0.0232
      6 C           6.3193   -2.0470   17.9323 C.ar    1  UNL1        0.0412
      7 C           4.8404   -1.8152   18.0289 C.ar    1  UNL1        0.1684
      8 O           4.1225   -1.0855   16.9326 O.3     1  UNL1       -0.5028
      9 C           4.0796   -2.3132   19.2218 C.ar    1  UNL1        0.1800
     10 C           4.7976   -3.0431   20.3181 C.ar    1  UNL1        0.0605
     11 H           4.5977   -0.7744   16.1874 H       1  UNL1        0.2923
     12 O           2.6008   -2.0814   19.3184 O.3     1  UNL1       -0.4504
     13 C           2.0786   -0.7628   19.8071 C.ar    1  UNL1        0.1463
     14 C           2.1460   -0.4240   21.2668 C.ar    1  UNL1        0.0375
     15 C           1.6239    0.8945   21.7555 C.ar    1  UNL1        0.0040
     16 C           1.0345    1.8742   20.7846 C.ar    1  UNL1        0.0116
     17 C           0.9671    1.5353   19.3249 C.ar    1  UNL1        0.0607
     18 CL          0.3776    2.5151   18.3539 Cl      1  UNL1       -0.0821
     19 C           1.4892    0.2168   18.8362 C.ar    1  UNL1        0.0489
     20 C           8.0427   -5.2372   24.9416 C.3     1  UNL1        0.1076
     21 C           9.1483   -6.1940   24.6067 C.3     1  UNL1        0.0257
     22 C           9.5359   -6.4210   23.1756 C.3     1  UNL1        0.0211
     23 C           8.8179   -5.6912   22.0792 C.3     1  UNL1        0.0959
     24 N           7.7123   -4.7344   22.4141 N.3     1  UNL1       -0.1536
     25 C           7.3247   -4.5074   23.8453 C.3     1  UNL1        0.1184
     26 C           7.9218   -2.1780   29.1400 C.3     1  UNL1        0.0376
     27 C           7.5946   -3.4806   28.4720 C.ar    1  UNL1        0.0514
     28 C           7.9822   -3.7076   27.0408 C.ar    1  UNL1        0.0801
     29 N           7.6550   -5.0102   26.3728 N.ar    1  UNL1       -0.2806
     30 C           6.9403   -6.0857   27.1359 C.ar    1  UNL1        0.3305
     31 O           6.6131   -7.3883   26.4678 O.2     1  UNL1       -0.2464
     32 N           6.5527   -5.8586   28.5670 N.ar    1  UNL1       -0.2746
     33 C           6.8799   -4.5561   29.2350 C.ar    1  UNL1        0.2584
     34 O           6.4923   -4.3291   30.6663 O.2     1  UNL1       -0.2674
     35 H           6.0836   -6.5645   29.0679 H       1  UNL1        0.1734
@<TRIPOS>BOND
     1    26    27    1
     2    27    28   ar
     3    28    29   ar
     4    20    29    1
     5    20    21    1
     6    21    22    1
     7    22    23    1
     8    23    24    1
     9    24     1    1
    10     1     2    2
    11     1     3    2
    12     1     4    1
    13     4     5   ar
    14     5     6   ar
    15     6     7   ar
    16     7     8    1
    17     7     9   ar
    18     9    12    1
    19    12    13    1
    20    13    14   ar
    21    14    15   ar
    22    15    16   ar
    23    16    17   ar
    24    17    18    1
    25    17    19   ar
    26     9    10   ar
    27    24    25    1
    28    29    30   ar
    29    30    31    2
    30    30    32   ar
    31    32    33   ar
    32    33    34    2
    33    33    27   ar
    34    25    20    1
    35    10     4   ar
    36    19    13   ar
    37     8    11    1
    38    32    35    1
@<TRIPOS>MOLECULE
*****
 35 38 0 0 0
SMALL
GASTEIGER

@<TRIPOS>ATOM
      1 S           5.9805   -2.8452   26.4055 S.O2    1  UNL1        0.0634
      2 O           5.4852   -1.8452   25.4033 O.2     1  UNL1       -0.1528
      3 O           6.4759   -3.8453   27.4077 O.2     1  UNL1       -0.1528
      4 C           6.6204   -3.6342   25.3019 C.ar    1  UNL1        0.1254
      5 C           7.3142   -4.9280   25.6098 C.ar    1  UNL1        0.0232
      6 C           7.9541   -5.7170   24.5062 C.ar    1  UNL1        0.0412
      7 C           7.9003   -5.2122   23.0947 C.ar    1  UNL1        0.1684
      8 O           8.5403   -6.0012   21.9911 O.3     1  UNL1       -0.5028
      9 C           7.2066   -3.9185   22.7868 C.ar    1  UNL1        0.1800
     10 C           6.5666   -3.1294   23.8904 C.ar    1  UNL1        0.0605
     11 H           8.9736   -6.8094   22.1835 H       1  UNL1        0.2923
     12 O           7.1528   -3.4137   21.3753 O.3     1  UNL1       -0.4504
     13 C           5.8683   -3.4802   20.6035 C.ar    1  UNL1        0.1463
     14 C           5.6221   -4.6146   19.6535 C.ar    1  UNL1        0.0375
     15 C           4.3377   -4.6812   18.8816 C.ar    1  UNL1        0.0040
     16 C           3.2995   -3.6134   19.0598 C.ar    1  UNL1        0.0116
     17 C           3.5457   -2.4790   20.0098 C.ar    1  UNL1        0.0607
     18 CL          2.5074   -1.4111   20.1879 Cl      1  UNL1       -0.0821
     19 C           4.8301   -2.4124   20.7816 C.ar    1  UNL1        0.0489
     20 C           3.4131   -0.5387   28.3647 C.3     1  UNL1        0.1076
     21 C           4.0607   -0.4782   29.7163 C.3     1  UNL1        0.0257
     22 C           5.3482   -1.2067   29.9644 C.3     1  UNL1        0.0211
     23 C           5.9882   -1.9957   28.8608 C.3     1  UNL1        0.0959
     24 N           5.3406   -2.0562   27.5091 N.3     1  UNL1       -0.1536
     25 C           4.0530   -1.3277   27.2611 C.3     1  UNL1        0.1184
     26 C          -1.6943   -0.0251   29.1717 C.3     1  UNL1        0.0376
     27 C          -0.4282    0.4466   28.5201 C.ar    1  UNL1        0.0514
     28 C           0.8594   -0.2819   28.7681 C.ar    1  UNL1        0.0801
     29 N           2.1255    0.1898   28.1166 N.ar    1  UNL1       -0.2806
     30 C           2.1041    1.3900   27.2171 C.ar    1  UNL1        0.3305
     31 O           3.3702    1.8616   26.5656 O.2     1  UNL1       -0.2464
     32 N           0.8165    2.1184   26.9691 N.ar    1  UNL1       -0.2746
     33 C          -0.4496    1.6467   27.6206 C.ar    1  UNL1        0.2584
     34 O          -1.7372    2.3753   27.3726 O.2     1  UNL1       -0.2674
     35 H           0.8025    2.9061   26.3787 H       1  UNL1        0.1734
@<TRIPOS>BOND
     1    26    27    1
     2    27    28   ar
     3    28    29   ar
     4    20    29    1
     5    20    21    1
     6    21    22    1
     7    22    23    1
     8    23    24    1
     9    24     1    1
    10     1     2    2
    11     1     3    2
    12     1     4    1
    13     4     5   ar
    14     5     6   ar
    15     6     7   ar
    16     7     8    1
    17     7     9   ar
    18     9    12    1
    19    12    13    1
    20    13    14   ar
    21    14    15   ar
    22    15    16   ar
    23    16    17   ar
    24    17    18    1
    25    17    19   ar
    26     9    10   ar
    27    24    25    1
    28    29    30   ar
    29    30    31    2
    30    30    32   ar
    31    32    33   ar
    32    33    34    2
    33    33    27   ar
    34    25    20    1
    35    10     4   ar
    36    19    13   ar
    37     8    11    1
    38    32    35    1
@<TRIPOS>MOLECULE
*****
 35 38 0 0 0
SMALL
GASTEIGER

@<TRIPOS>ATOM
      1 S           7.5443   -5.3261   27.7133 S.O2    1  UNL1        0.0634
      2 O           7.7786   -6.7363   28.1675 O.2     1  UNL1       -0.1528
      3 O           7.3100   -3.9158   27.2591 O.2     1  UNL1       -0.1528
      4 C           7.8255   -5.7352   26.2979 C.ar    1  UNL1        0.1254
      5 C           8.1305   -7.1687   25.9780 C.ar    1  UNL1        0.0232
      6 C           8.4117   -7.5778   24.5626 C.ar    1  UNL1        0.0412
      7 C           8.3879   -6.5536   23.4669 C.ar    1  UNL1        0.1684
      8 O           8.6692   -6.9628   22.0515 O.3     1  UNL1       -0.5028
      9 C           8.0830   -5.1202   23.7867 C.ar    1  UNL1        0.1800
     10 C           7.8017   -4.7110   25.2022 C.ar    1  UNL1        0.0605
     11 H           8.8597   -7.8582   21.8517 H       1  UNL1        0.2923
     12 O           8.0592   -4.0960   22.6911 O.3     1  UNL1       -0.4504
     13 C           6.7612   -3.7310   22.0337 C.ar    1  UNL1        0.1463
     14 C           5.6041   -3.2639   22.8662 C.ar    1  UNL1        0.0375
     15 C           4.3062   -2.8989   22.2089 C.ar    1  UNL1        0.0040
     16 C           4.1654   -3.0010   20.7191 C.ar    1  UNL1        0.0116
     17 C           5.3224   -3.4680   19.8865 C.ar    1  UNL1        0.0607
     18 CL          5.1815   -3.5701   18.3966 Cl      1  UNL1       -0.0821
     19 C           6.6203   -3.8330   20.5439 C.ar    1  UNL1        0.0489
     20 C           6.6039   -3.0895   30.8539 C.3     1  UNL1        0.1076
     21 C           6.7007   -4.0985   31.9596 C.3     1  UNL1        0.0257
     22 C           7.0786   -5.5167   31.6499 C.3     1  UNL1        0.0211
     23 C           7.3598   -5.9259   30.2344 C.3     1  UNL1        0.0959
     24 N           7.2631   -4.9169   29.1287 N.3     1  UNL1       -0.1536
     25 C           6.8851   -3.4987   29.4385 C.3     1  UNL1        0.1184
     26 C           2.9589    0.4987   31.7694 C.3     1  UNL1        0.0376
     27 C           4.4034    0.1228   31.6214 C.ar    1  UNL1        0.0514
     28 C           4.7814   -1.2953   31.3117 C.ar    1  UNL1        0.0801
     29 N           6.2260   -1.6713   31.1637 N.ar    1  UNL1       -0.2806
     30 C           7.2926   -0.6291   31.3254 C.ar    1  UNL1        0.3305
     31 O           8.7371   -1.0051   31.1774 O.2     1  UNL1       -0.2464
     32 N           6.9146    0.7890   31.6352 N.ar    1  UNL1       -0.2746
     33 C           5.4700    1.1650   31.7832 C.ar    1  UNL1        0.2584
     34 O           5.0920    2.5832   32.0930 O.2     1  UNL1       -0.2674
     35 H           7.6146    1.4731   31.7414 H       1  UNL1        0.1734
@<TRIPOS>BOND
     1    26    27    1
     2    27    28   ar
     3    28    29   ar
     4    20    29    1
     5    20    21    1
     6    21    22    1
     7    22    23    1
     8    23    24    1
     9    24     1    1
    10     1     2    2
    11     1     3    2
    12     1     4    1
    13     4     5   ar
    14     5     6   ar
    15     6     7   ar
    16     7     8    1
    17     7     9   ar
    18     9    12    1
    19    12    13    1
    20    13    14   ar
    21    14    15   ar
    22    15    16   ar
    23    16    17   ar
    24    17    18    1
    25    17    19   ar
    26     9    10   ar
    27    24    25    1
    28    29    30   ar
    29    30    31    2
    30    30    32   ar
    31    32    33   ar
    32    33    34    2
    33    33    27   ar
    34    25    20    1
    35    10     4   ar
    36    19    13   ar
    37     8    11    1
    38    32    35    1
@<TRIPOS>MOLECULE
*****
 35 38 0 0 0
SMALL
GASTEIGER

@<TRIPOS>ATOM
      1 S           3.9060   -1.0991   25.6427 S.O2    1  UNL1        0.0634
      2 O           3.0174   -0.4827   24.6032 O.2     1  UNL1       -0.1528
      3 O           4.7946   -1.7154   26.6821 O.2     1  UNL1       -0.1528
      4 C           3.1332   -0.3970   26.7196 C.ar    1  UNL1        0.1254
      5 C           2.4254    0.8905   26.4170 C.ar    1  UNL1        0.0232
      6 C           1.6526    1.5926   27.4940 C.ar    1  UNL1        0.0412
      7 C           1.5877    1.0073   28.8735 C.ar    1  UNL1        0.1684
      8 O           0.8149    1.7094   29.9505 O.3     1  UNL1       -0.5028
      9 C           2.2955   -0.2801   29.1762 C.ar    1  UNL1        0.1800
     10 C           3.0683   -0.9823   28.0992 C.ar    1  UNL1        0.0605
     11 H           0.3728    2.5136   29.7615 H       1  UNL1        0.2923
     12 O           2.2305   -0.8654   30.5557 O.3     1  UNL1       -0.4504
     13 C           3.3066   -0.5548   31.5536 C.ar    1  UNL1        0.1463
     14 C           4.5899   -1.3312   31.5388 C.ar    1  UNL1        0.0375
     15 C           5.6660   -1.0207   32.5366 C.ar    1  UNL1        0.0040
     16 C           5.4587    0.0663   33.5493 C.ar    1  UNL1        0.0116
     17 C           4.1753    0.8427   33.5641 C.ar    1  UNL1        0.0607
     18 CL          3.9680    1.9296   34.5769 Cl      1  UNL1       -0.0821
     19 C           3.0993    0.5321   32.5663 C.ar    1  UNL1        0.0489
     20 C           5.1327   -2.2436   22.0461 C.3     1  UNL1        0.1076
     21 C           6.2242   -3.2054   22.4117 C.3     1  UNL1        0.0257
     22 C           6.5430   -3.4650   23.8542 C.3     1  UNL1        0.0211
     23 C           5.7702   -2.7629   24.9313 C.3     1  UNL1        0.0959
     24 N           4.6787   -1.8012   24.5657 N.3     1  UNL1       -0.1536
     25 C           4.3600   -1.5415   23.1231 C.3     1  UNL1        0.1184
     26 C           4.7671    1.0450   18.0397 C.3     1  UNL1        0.0376
     27 C           4.6312   -0.3396   18.6003 C.ar    1  UNL1        0.0514
     28 C           4.9499   -0.5993   20.0429 C.ar    1  UNL1        0.0801
     29 N           4.8140   -1.9840   20.6035 N.ar    1  UNL1       -0.2806
     30 C           4.3594   -3.1089   19.7216 C.ar    1  UNL1        0.3305
     31 O           4.2235   -4.4935   20.2823 O.2     1  UNL1       -0.2464
     32 N           4.0406   -2.8492   18.2791 N.ar    1  UNL1       -0.2746
     33 C           4.1766   -1.4646   17.7185 C.ar    1  UNL1        0.2584
     34 O           3.8578   -1.2050   16.2758 O.2     1  UNL1       -0.2674
     35 H           3.7423   -3.5876   17.7003 H       1  UNL1        0.1734
@<TRIPOS>BOND
     1    26    27    1
     2    27    28   ar
     3    28    29   ar
     4    20    29    1
     5    20    21    1
     6    21    22    1
     7    22    23    1
     8    23    24    1
     9    24     1    1
    10     1     2    2
    11     1     3    2
    12     1     4    1
    13     4     5   ar
    14     5     6   ar
    15     6     7   ar
    16     7     8    1
    17     7     9   ar
    18     9    12    1
    19    12    13    1
    20    13    14   ar
    21    14    15   ar
    22    15    16   ar
    23    16    17   ar
    24    17    18    1
    25    17    19   ar
    26     9    10   ar
    27    24    25    1
    28    29    30   ar
    29    30    31    2
    30    30    32   ar
    31    32    33   ar
    32    33    34    2
    33    33    27   ar
    34    25    20    1
    35    10     4   ar
    36    19    13   ar
    37     8    11    1
    38    32    35    1
@<TRIPOS>MOLECULE
*****
 35 38 0 0 0
SMALL
GASTEIGER

@<TRIPOS>ATOM
      1 S           2.2372    0.2840   23.7413 S.O2    1  UNL1        0.0634
      2 O           1.4147    1.4660   24.1612 O.2     1  UNL1       -0.1528
      3 O           3.0596   -0.8980   23.3215 O.2     1  UNL1       -0.1528
      4 C           1.8104    0.4925   22.3186 C.ar    1  UNL1        0.1254
      5 C           0.5223    1.1999   22.0179 C.ar    1  UNL1        0.0232
      6 C           0.0955    1.4084   20.5951 C.ar    1  UNL1        0.0412
      7 C           0.9568    0.9095   19.4729 C.ar    1  UNL1        0.1684
      8 O           0.5301    1.1179   18.0502 O.3     1  UNL1       -0.5028
      9 C           2.2449    0.2021   19.7736 C.ar    1  UNL1        0.1800
     10 C           2.6717   -0.0065   21.1964 C.ar    1  UNL1        0.0605
     11 H          -0.2746    1.5599   17.8623 H       1  UNL1        0.2923
     12 O           3.1062   -0.2969   18.6514 O.3     1  UNL1       -0.4504
     13 C           3.9026   -1.5568   18.8203 C.ar    1  UNL1        0.1463
     14 C           5.3818   -1.5480   18.5718 C.ar    1  UNL1        0.0375
     15 C           6.1782   -2.8078   18.7407 C.ar    1  UNL1        0.0040
     16 C           5.4953   -4.0764   19.1581 C.ar    1  UNL1        0.0116
     17 C           4.0161   -4.0852   19.4066 C.ar    1  UNL1        0.0607
     18 CL          3.3332   -5.3540   19.8240 Cl      1  UNL1       -0.0821
     19 C           3.2197   -2.8254   19.2377 C.ar    1  UNL1        0.0489
     20 C           2.5092    0.7181   27.6768 C.3     1  UNL1        0.1076
     21 C           3.5175   -0.3414   28.0098 C.3     1  UNL1        0.0257
     22 C           4.0990   -1.1924   26.9200 C.3     1  UNL1        0.0211
     23 C           3.6722   -0.9839   25.4972 C.3     1  UNL1        0.0959
     24 N           2.6639    0.0755   25.1641 N.3     1  UNL1       -0.1536
     25 C           2.0825    0.9266   26.2540 C.3     1  UNL1        0.1184
     26 C           2.3871    5.1975   30.3075 C.3     1  UNL1        0.0376
     27 C           1.8667    3.8088   30.0819 C.ar    1  UNL1        0.0514
     28 C           2.4481    2.9578   28.9921 C.ar    1  UNL1        0.0801
     29 N           1.9277    1.5691   28.7666 N.ar    1  UNL1       -0.2806
     30 C           0.8259    1.0315   29.6308 C.ar    1  UNL1        0.3305
     31 O           0.3055   -0.3571   29.4053 O.2     1  UNL1       -0.2464
     32 N           0.2445    1.8826   30.7206 N.ar    1  UNL1       -0.2746
     33 C           0.7649    3.2712   30.9461 C.ar    1  UNL1        0.2584
     34 O           0.1834    4.1222   32.0360 O.2     1  UNL1       -0.2674
     35 H          -0.4787    1.5297   31.2878 H       1  UNL1        0.1734
@<TRIPOS>BOND
     1    26    27    1
     2    27    28   ar
     3    28    29   ar
     4    20    29    1
     5    20    21    1
     6    21    22    1
     7    22    23    1
     8    23    24    1
     9    24     1    1
    10     1     2    2
    11     1     3    2
    12     1     4    1
    13     4     5   ar
    14     5     6   ar
    15     6     7   ar
    16     7     8    1
    17     7     9   ar
    18     9    12    1
    19    12    13    1
    20    13    14   ar
    21    14    15   ar
    22    15    16   ar
    23    16    17   ar
    24    17    18    1
    25    17    19   ar
    26     9    10   ar
    27    24    25    1
    28    29    30   ar
    29    30    31    2
    30    30    32   ar
    31    32    33   ar
    32    33    34    2
    33    33    27   ar
    34    25    20    1
    35    10     4   ar
    36    19    13   ar
    37     8    11    1
    38    32    35    1
