@<TRIPOS>MOLECULE
*****
 36 39 0 0 0
SMALL
GASTEIGER

@<TRIPOS>ATOM
      1 N           1.5392    2.4163   25.9952 N.pl3   1  UNL1       -0.2780
      2 H           1.8164    3.3477   26.1528 H       1  UNL1        0.1555
      3 C          -1.7621   -0.0551   29.1564 C.3     1  UNL1        0.0738
      4 C          -0.3576    0.2645   28.7377 C.ar    1  UNL1        0.1424
      5 N          -0.1114    1.1806   27.5758 N.ar    1  UNL1       -0.2158
      6 C           1.2931    1.5001   27.1571 C.ar    1  UNL1        0.1377
      7 C           2.4514    0.9036   27.9004 C.ar    1  UNL1        0.0687
      8 C           2.2052   -0.0125   29.0623 C.ar    1  UNL1        0.1359
      9 N           0.8007   -0.3321   29.4810 N.ar    1  UNL1       -0.2159
     10 N           3.3635   -0.6091   29.8056 N.pl3   1  UNL1       -0.2903
     11 C           4.6881   -0.7751   29.1217 C.3     1  UNL1        0.1095
     12 C           5.8464   -1.3717   29.8651 C.3     1  UNL1        0.0939
     13 N           5.6800   -1.8022   31.2923 N.3     1  UNL1       -0.2677
     14 C           4.3553   -1.6362   31.9762 C.3     1  UNL1        0.0939
     15 C           3.1971   -1.0396   31.2328 C.3     1  UNL1        0.1095
     16 C           6.8383   -2.3988   32.0356 C.3     1  UNL1        0.1043
     17 C           7.0914   -3.8757   31.9692 C.3     1  UNL1        0.1544
     18 O           6.1746   -4.8266   32.6802 O.3     1  UNL1       -0.3805
     19 H           6.2489   -4.6921   33.6380 H       1  UNL1        0.2105
     20 C           1.3631    1.9133   24.5930 C.ar    1  UNL1        0.1648
     21 N           0.3135    2.3629   23.6203 N.ar    1  UNL1       -0.2223
     22 C           0.5073    1.5998   22.3436 C.ar    1  UNL1        0.1119
     23 C           1.6766    0.6785   22.5272 C.ar    1  UNL1        0.1047
     24 S           2.2055    0.8722   23.9174 S.2     1  UNL1       -0.0468
     25 C           2.2215   -0.2700   21.5008 C.2     1  UNL1        0.2572
     26 O           1.2941   -0.9361   20.5281 O.2     1  UNL1       -0.2692
     27 N           3.6937   -0.5524   21.4472 N.am    1  UNL1       -0.2795
     28 H           4.3024   -0.1152   22.0856 H       1  UNL1        0.1552
     29 C           4.2385   -1.5009   20.4208 C.ar    1  UNL1        0.0572
     30 C           4.5706   -2.9122   20.8052 C.ar    1  UNL1       -0.0075
     31 C           4.3579   -3.3752   22.2161 C.3     1  UNL1        0.0324
     32 C           5.1155   -3.8607   19.7787 C.ar    1  UNL1       -0.0030
     33 C           5.3282   -3.3979   18.3679 C.ar    1  UNL1        0.0006
     34 C           4.9961   -1.9865   17.9835 C.ar    1  UNL1        0.0126
     35 C           4.4513   -1.0381   19.0100 C.ar    1  UNL1        0.0708
     36 CL          4.1192    0.3733   18.6255 Cl      1  UNL1       -0.0810
@<TRIPOS>BOND
     1     3     4    1
     2     4     5   ar
     3     5     6   ar
     4     6     1    1
     5     1    20    1
     6    20    21   ar
     7    21    22   ar
     8    22    23   ar
     9    23    25    1
    10    25    26    2
    11    25    27   am
    12    27    29    1
    13    29    30   ar
    14    30    31    1
    15    30    32   ar
    16    32    33   ar
    17    33    34   ar
    18    34    35   ar
    19    35    36    1
    20    23    24   ar
    21     6     7   ar
    22     7     8   ar
    23     8    10    1
    24    10    11    1
    25    11    12    1
    26    12    13    1
    27    13    16    1
    28    16    17    1
    29    17    18    1
    30    13    14    1
    31    14    15    1
    32     8     9   ar
    33     9     4   ar
    34    24    20   ar
    35    15    10    1
    36    35    29   ar
    37     1     2    1
    38    27    28    1
    39    18    19    1
@<TRIPOS>MOLECULE
*****
 36 39 0 0 0
SMALL
GASTEIGER

@<TRIPOS>ATOM
      1 N           9.5335   -4.5329   25.0146 N.pl3   1  UNL1       -0.2780
      2 H          10.4345   -4.1408   25.0748 H       1  UNL1        0.1555
      3 C           8.2734   -8.9341   27.4726 C.3     1  UNL1        0.0738
      4 C           8.3101   -7.4352   27.4292 C.ar    1  UNL1        0.1424
      5 N           8.9034   -6.7335   26.2437 N.ar    1  UNL1       -0.2158
      6 C           8.9402   -5.2346   26.2003 C.ar    1  UNL1        0.1377
      7 C           8.3836   -4.4373   27.3425 C.ar    1  UNL1        0.0687
      8 C           7.7903   -5.1390   28.5280 C.ar    1  UNL1        0.1359
      9 N           7.7536   -6.6379   28.5714 N.ar    1  UNL1       -0.2159
     10 N           7.2337   -4.3418   29.6703 N.pl3   1  UNL1       -0.2903
     11 C           6.6221   -2.9957   29.4176 C.3     1  UNL1        0.1095
     12 C           6.0654   -2.1984   30.5599 C.3     1  UNL1        0.0939
     13 N           6.1205   -2.7474   31.9548 N.3     1  UNL1       -0.2677
     14 C           6.7322   -4.0936   32.2073 C.3     1  UNL1        0.0939
     15 C           7.2887   -4.8907   31.0651 C.3     1  UNL1        0.1095
     16 C           5.5639   -1.9502   33.0970 C.3     1  UNL1        0.1043
     17 C           4.1822   -2.2344   33.6068 C.3     1  UNL1        0.1544
     18 O           3.6821   -3.6472   33.6709 O.3     1  UNL1       -0.3805
     19 H           3.5996   -4.0020   32.7719 H       1  UNL1        0.2105
     20 C           8.7540   -4.4286   23.7374 C.ar    1  UNL1        0.1648
     21 N           9.1605   -4.9917   22.4078 N.ar    1  UNL1       -0.2223
     22 C           8.0888   -4.6541   21.4141 C.ar    1  UNL1        0.1119
     23 C           7.0199   -3.8824   22.1295 C.ar    1  UNL1        0.1047
     24 S           7.4310   -3.7430   23.5653 S.2     1  UNL1       -0.0468
     25 C           5.7609   -3.3444   21.5166 C.2     1  UNL1        0.2572
     26 O           4.6786   -4.2858   21.0781 O.2     1  UNL1       -0.2692
     27 N           5.5842   -1.8651   21.3424 N.am    1  UNL1       -0.2795
     28 H           6.2946   -1.2472   21.6302 H       1  UNL1        0.1552
     29 C           4.3252   -1.3271   20.7295 C.ar    1  UNL1        0.0572
     30 C           3.1635   -0.9588   21.6039 C.ar    1  UNL1       -0.0075
     31 C           3.2606   -1.1283   23.0911 C.3     1  UNL1        0.0324
     32 C           1.9045   -0.4208   20.9909 C.ar    1  UNL1       -0.0030
     33 C           1.8073   -0.2512   19.5037 C.ar    1  UNL1        0.0006
     34 C           2.9691   -0.6196   18.6294 C.ar    1  UNL1        0.0126
     35 C           4.2281   -1.1576   19.2423 C.ar    1  UNL1        0.0708
     36 CL          5.3899   -1.5260   18.3680 Cl      1  UNL1       -0.0810
@<TRIPOS>BOND
     1     3     4    1
     2     4     5   ar
     3     5     6   ar
     4     6     1    1
     5     1    20    1
     6    20    21   ar
     7    21    22   ar
     8    22    23   ar
     9    23    25    1
    10    25    26    2
    11    25    27   am
    12    27    29    1
    13    29    30   ar
    14    30    31    1
    15    30    32   ar
    16    32    33   ar
    17    33    34   ar
    18    34    35   ar
    19    35    36    1
    20    23    24   ar
    21     6     7   ar
    22     7     8   ar
    23     8    10    1
    24    10    11    1
    25    11    12    1
    26    12    13    1
    27    13    16    1
    28    16    17    1
    29    17    18    1
    30    13    14    1
    31    14    15    1
    32     8     9   ar
    33     9     4   ar
    34    24    20   ar
    35    15    10    1
    36    35    29   ar
    37     1     2    1
    38    27    28    1
    39    18    19    1
@<TRIPOS>MOLECULE
*****
 36 39 0 0 0
SMALL
GASTEIGER

@<TRIPOS>ATOM
      1 N           6.0618   -3.5626   27.0974 N.pl3   1  UNL1       -0.2780
      2 H           6.0070   -4.0683   27.9403 H       1  UNL1        0.1555
      3 C           8.5899   -7.4701   24.7865 C.3     1  UNL1        0.0738
      4 C           7.8135   -6.1901   24.6936 C.ar    1  UNL1        0.1424
      5 N           7.3258   -5.5164   25.9419 N.ar    1  UNL1       -0.2158
      6 C           6.5494   -4.2363   25.8490 C.ar    1  UNL1        0.1377
      7 C           6.2606   -3.6300   24.5078 C.ar    1  UNL1        0.0687
      8 C           6.7482   -4.3037   23.2595 C.ar    1  UNL1        0.1359
      9 N           7.5246   -5.5837   23.3524 N.ar    1  UNL1       -0.2159
     10 N           6.4594   -3.6973   21.9182 N.pl3   1  UNL1       -0.2903
     11 C           5.0404   -3.5175   21.4662 C.3     1  UNL1        0.1095
     12 C           4.7516   -2.9112   20.1249 C.3     1  UNL1        0.0939
     13 N           5.8818   -2.4847   19.2356 N.3     1  UNL1       -0.2677
     14 C           7.3008   -2.6645   19.6877 C.3     1  UNL1        0.0939
     15 C           7.5895   -3.2708   21.0289 C.3     1  UNL1        0.1095
     16 C           5.5930   -1.8783   17.8944 C.3     1  UNL1        0.1043
     17 C           4.2219   -1.3526   17.5886 C.3     1  UNL1        0.1544
     18 O           3.7264   -1.3284   16.1729 O.3     1  UNL1       -0.3805
     19 H           4.2587   -0.7048   15.6546 H       1  UNL1        0.2105
     20 C           5.6576   -2.1186   27.0614 C.ar    1  UNL1        0.1648
     21 N           6.5562   -0.9449   27.3165 N.ar    1  UNL1       -0.2223
     22 C           5.7380    0.3045   27.1768 C.ar    1  UNL1        0.1119
     23 C           4.3336   -0.0970   26.8353 C.ar    1  UNL1        0.1047
     24 S           4.2840   -1.5945   26.7640 S.2     1  UNL1       -0.0468
     25 C           3.1812    0.8352   26.6055 C.2     1  UNL1        0.2572
     26 O           3.4102    2.3173   26.5746 O.2     1  UNL1       -0.2692
     27 N           1.7998    0.2854   26.4066 N.am    1  UNL1       -0.2795
     28 H           1.6496   -0.6873   26.4268 H       1  UNL1        0.1552
     29 C           0.6474    1.2177   26.1768 C.ar    1  UNL1        0.0572
     30 C           0.3127    1.6676   24.7856 C.ar    1  UNL1       -0.0075
     31 C           1.1302    1.1854   23.6241 C.3     1  UNL1        0.0324
     32 C          -0.8398    2.6000   24.5559 C.ar    1  UNL1       -0.0030
     33 C          -1.6574    3.0822   25.7173 C.ar    1  UNL1        0.0006
     34 C          -1.3226    2.6323   27.1085 C.ar    1  UNL1        0.0126
     35 C          -0.1702    1.7000   27.3382 C.ar    1  UNL1        0.0708
     36 CL          0.1646    1.2500   28.7294 Cl      1  UNL1       -0.0810
@<TRIPOS>BOND
     1     3     4    1
     2     4     5   ar
     3     5     6   ar
     4     6     1    1
     5     1    20    1
     6    20    21   ar
     7    21    22   ar
     8    22    23   ar
     9    23    25    1
    10    25    26    2
    11    25    27   am
    12    27    29    1
    13    29    30   ar
    14    30    31    1
    15    30    32   ar
    16    32    33   ar
    17    33    34   ar
    18    34    35   ar
    19    35    36    1
    20    23    24   ar
    21     6     7   ar
    22     7     8   ar
    23     8    10    1
    24    10    11    1
    25    11    12    1
    26    12    13    1
    27    13    16    1
    28    16    17    1
    29    17    18    1
    30    13    14    1
    31    14    15    1
    32     8     9   ar
    33     9     4   ar
    34    24    20   ar
    35    15    10    1
    36    35    29   ar
    37     1     2    1
    38    27    28    1
    39    18    19    1
@<TRIPOS>MOLECULE
*****
 36 39 0 0 0
SMALL
GASTEIGER

@<TRIPOS>ATOM
      1 N           1.4110    2.9547   26.5468 N.pl3   1  UNL1       -0.2780
      2 H           1.0124    3.8444   26.6833 H       1  UNL1        0.1555
      3 C          -1.8622   -0.1034   29.1801 C.3     1  UNL1        0.0738
      4 C          -0.4627    0.3357   28.8664 C.ar    1  UNL1        0.1424
      5 N          -0.2256    1.4256   27.8635 N.ar    1  UNL1       -0.2158
      6 C           1.1740    1.8647   27.5498 C.ar    1  UNL1        0.1377
      7 C           2.3364    1.2139   28.2390 C.ar    1  UNL1        0.0687
      8 C           2.0994    0.1240   29.2419 C.ar    1  UNL1        0.1359
      9 N           0.6998   -0.3151   29.5556 N.ar    1  UNL1       -0.2159
     10 N           3.2619   -0.5268   29.9312 N.pl3   1  UNL1       -0.2903
     11 C           4.4594   -0.9573   29.1371 C.3     1  UNL1        0.1095
     12 C           5.6220   -1.6082   29.8264 C.3     1  UNL1        0.0939
     13 N           5.5868   -1.8285   31.3097 N.3     1  UNL1       -0.2677
     14 C           4.3892   -1.3980   32.1038 C.3     1  UNL1        0.0939
     15 C           3.2268   -0.7472   31.4145 C.3     1  UNL1        0.1095
     16 C           6.7493   -2.4793   31.9990 C.3     1  UNL1        0.1043
     17 C           7.0013   -3.9471   31.8201 C.3     1  UNL1        0.1544
     18 O           6.2636   -4.9432   32.6649 O.3     1  UNL1       -0.3805
     19 H           6.5332   -4.8440   33.5914 H       1  UNL1        0.2105
     20 C           2.2554    2.6889   25.3358 C.ar    1  UNL1        0.1648
     21 N           3.0317    3.7117   24.5605 N.ar    1  UNL1       -0.2223
     22 C           3.7278    3.0086   23.4331 C.ar    1  UNL1        0.1119
     23 C           3.3817    1.5512   23.5116 C.ar    1  UNL1        0.1047
     24 S           2.4717    1.3536   24.6876 S.2     1  UNL1       -0.0468
     25 C           3.8614    0.4795   22.5782 C.2     1  UNL1        0.2572
     26 O           5.1653    0.6433   21.8551 O.2     1  UNL1       -0.2692
     27 N           3.0371   -0.7560   22.3678 N.am    1  UNL1       -0.2795
     28 H           2.1813   -0.8635   22.8424 H       1  UNL1        0.1552
     29 C           3.5168   -1.8277   21.4343 C.ar    1  UNL1        0.0572
     30 C           3.1094   -1.8026   19.9910 C.ar    1  UNL1       -0.0075
     31 C           2.2223   -0.7057   19.4810 C.3     1  UNL1        0.0324
     32 C           3.5892   -2.8743   19.0575 C.ar    1  UNL1       -0.0030
     33 C           4.4762   -3.9711   19.5675 C.ar    1  UNL1        0.0006
     34 C           4.8836   -3.9963   21.0109 C.ar    1  UNL1        0.0126
     35 C           4.4039   -2.9245   21.9443 C.ar    1  UNL1        0.0708
     36 CL          4.8113   -2.9496   23.3877 Cl      1  UNL1       -0.0810
@<TRIPOS>BOND
     1     3     4    1
     2     4     5   ar
     3     5     6   ar
     4     6     1    1
     5     1    20    1
     6    20    21   ar
     7    21    22   ar
     8    22    23   ar
     9    23    25    1
    10    25    26    2
    11    25    27   am
    12    27    29    1
    13    29    30   ar
    14    30    31    1
    15    30    32   ar
    16    32    33   ar
    17    33    34   ar
    18    34    35   ar
    19    35    36    1
    20    23    24   ar
    21     6     7   ar
    22     7     8   ar
    23     8    10    1
    24    10    11    1
    25    11    12    1
    26    12    13    1
    27    13    16    1
    28    16    17    1
    29    17    18    1
    30    13    14    1
    31    14    15    1
    32     8     9   ar
    33     9     4   ar
    34    24    20   ar
    35    15    10    1
    36    35    29   ar
    37     1     2    1
    38    27    28    1
    39    18    19    1
@<TRIPOS>MOLECULE
*****
 36 39 0 0 0
SMALL
GASTEIGER

@<TRIPOS>ATOM
      1 N           2.4756    1.7175   26.9835 N.pl3   1  UNL1       -0.2780
      2 H           2.6316    2.6312   26.6516 H       1  UNL1        0.1555
      3 C          -1.7269   -0.6184   28.9536 C.3     1  UNL1        0.0738
      4 C          -0.5662    0.3180   29.1139 C.ar    1  UNL1        0.1424
      5 N           0.3743    0.5496   27.9686 N.ar    1  UNL1       -0.2158
      6 C           1.5351    1.4860   28.1289 C.ar    1  UNL1        0.1377
      7 C           1.7554    2.1908   29.4345 C.ar    1  UNL1        0.0687
      8 C           0.8149    1.9592   30.5798 C.ar    1  UNL1        0.1359
      9 N          -0.3459    1.0228   30.4195 N.ar    1  UNL1       -0.2159
     10 N           1.0352    2.6641   31.8855 N.pl3   1  UNL1       -0.2903
     11 C           0.3433    3.9661   32.1609 C.3     1  UNL1        0.1095
     12 C           0.5636    4.6710   33.4666 C.3     1  UNL1        0.0939
     13 N           1.4757    4.0737   34.4968 N.3     1  UNL1       -0.2677
     14 C           2.1676    2.7716   34.2212 C.3     1  UNL1        0.0939
     15 C           1.9474    2.0668   32.9156 C.3     1  UNL1        0.1095
     16 C           1.6960    4.7785   35.8024 C.3     1  UNL1        0.1043
     17 C           2.1726    4.0094   36.9987 C.3     1  UNL1        0.1544
     18 O           1.2920    2.9651   37.6185 O.3     1  UNL1       -0.3805
     19 H           0.5072    3.3887   38.0000 H       1  UNL1        0.2105
     20 C           3.1784    0.5570   26.3437 C.ar    1  UNL1        0.1648
     21 N           3.9804   -0.4905   27.0576 N.ar    1  UNL1       -0.2223
     22 C           4.5003   -1.4547   26.0329 C.ar    1  UNL1        0.1119
     23 C           4.0196   -1.0031   24.6857 C.ar    1  UNL1        0.1047
     24 S           3.2027    0.2401   24.8778 S.2     1  UNL1       -0.0468
     25 C           4.3057   -1.6766   23.3763 C.2     1  UNL1        0.2572
     26 O           4.3201   -3.1740   23.2905 O.2     1  UNL1       -0.2692
     27 N           4.5772   -0.8526   22.1526 N.am    1  UNL1       -0.2795
     28 H           4.5677    0.1303   22.2089 H       1  UNL1        0.1552
     29 C           4.8633   -1.5260   20.8432 C.ar    1  UNL1        0.0572
     30 C           3.7564   -1.7454   19.8551 C.ar    1  UNL1       -0.0075
     31 C           2.3632   -1.2913   20.1763 C.3     1  UNL1        0.0324
     32 C           4.0425   -2.4189   18.5456 C.ar    1  UNL1       -0.0030
     33 C           5.4355   -2.8729   18.2243 C.ar    1  UNL1        0.0006
     34 C           6.5425   -2.6535   19.2125 C.ar    1  UNL1        0.0126
     35 C           6.2563   -1.9801   20.5219 C.ar    1  UNL1        0.0708
     36 CL          7.3633   -1.7607   21.5101 Cl      1  UNL1       -0.0810
@<TRIPOS>BOND
     1     3     4    1
     2     4     5   ar
     3     5     6   ar
     4     6     1    1
     5     1    20    1
     6    20    21   ar
     7    21    22   ar
     8    22    23   ar
     9    23    25    1
    10    25    26    2
    11    25    27   am
    12    27    29    1
    13    29    30   ar
    14    30    31    1
    15    30    32   ar
    16    32    33   ar
    17    33    34   ar
    18    34    35   ar
    19    35    36    1
    20    23    24   ar
    21     6     7   ar
    22     7     8   ar
    23     8    10    1
    24    10    11    1
    25    11    12    1
    26    12    13    1
    27    13    16    1
    28    16    17    1
    29    17    18    1
    30    13    14    1
    31    14    15    1
    32     8     9   ar
    33     9     4   ar
    34    24    20   ar
    35    15    10    1
    36    35    29   ar
    37     1     2    1
    38    27    28    1
    39    18    19    1
@<TRIPOS>MOLECULE
*****
 36 39 0 0 0
SMALL
GASTEIGER

@<TRIPOS>ATOM
      1 N         -17.6820   -0.0060   20.8537 N.pl3   1  UNL1       -0.2780
      2 H         -18.3821   -0.3262   21.4673 H       1  UNL1        0.1555
      3 C         -15.7749    4.2468   18.5565 C.3     1  UNL1        0.0738
      4 C         -16.2461    3.5381   19.7917 C.ar    1  UNL1        0.1424
      5 N         -16.7285    2.1204   19.7051 N.ar    1  UNL1       -0.2158
      6 C         -17.1996    1.4117   20.9403 C.ar    1  UNL1        0.1377
      7 C         -17.1884    2.1206   22.2621 C.ar    1  UNL1        0.0687
      8 C         -16.7060    3.5383   22.3488 C.ar    1  UNL1        0.1359
      9 N         -16.2349    4.2470   21.1136 N.ar    1  UNL1       -0.2159
     10 N         -16.6948    4.2473   23.6706 N.pl3   1  UNL1       -0.2903
     11 C         -17.9881    4.5943   24.3466 C.3     1  UNL1        0.1095
     12 C         -17.9769    5.3033   25.6684 C.3     1  UNL1        0.0939
     13 N         -16.6723    5.6652   26.3143 N.3     1  UNL1       -0.2677
     14 C         -15.3790    5.3181   25.6383 C.3     1  UNL1        0.0939
     15 C         -15.3903    4.6091   24.3165 C.3     1  UNL1        0.1095
     16 C         -16.6610    6.3742   27.6361 C.3     1  UNL1        0.1043
     17 C         -16.5611    5.5866   28.9087 C.3     1  UNL1        0.1544
     18 O         -15.5465    4.4888   29.0337 O.3     1  UNL1       -0.3805
     19 H         -15.7666    3.7733   28.4169 H       1  UNL1        0.2105
     20 C         -17.0976   -0.9359   19.8320 C.ar    1  UNL1        0.1648
     21 N         -17.7994   -1.4625   18.6154 N.ar    1  UNL1       -0.2223
     22 C         -16.8443   -2.3546   17.8790 C.ar    1  UNL1        0.1119
     23 C         -15.5523   -2.3793   18.6406 C.ar    1  UNL1        0.1047
     24 S         -15.7088   -1.5025   19.8475 S.2     1  UNL1       -0.0468
     25 C         -14.3200   -3.1461   18.2617 C.2     1  UNL1        0.2572
     26 O         -14.0910   -3.5387   16.8322 O.2     1  UNL1       -0.2692
     27 N         -13.3168   -3.5202   19.3122 N.am    1  UNL1       -0.2795
     28 H         -13.4672   -3.2625   20.2504 H       1  UNL1        0.1552
     29 C         -12.0846   -4.2870   18.9333 C.ar    1  UNL1        0.0572
     30 C         -12.1022   -5.7868   18.9421 C.ar    1  UNL1       -0.0075
     31 C         -13.3521   -6.5200   19.3298 C.3     1  UNL1        0.0324
     32 C         -10.8699   -6.5536   18.5632 C.ar    1  UNL1       -0.0030
     33 C          -9.6200   -5.8206   18.1755 C.ar    1  UNL1        0.0006
     34 C          -9.6024   -4.3207   18.1667 C.ar    1  UNL1        0.0126
     35 C         -10.8347   -3.5540   18.5457 C.ar    1  UNL1        0.0708
     36 CL        -10.8170   -2.0541   18.5369 Cl      1  UNL1       -0.0810
@<TRIPOS>BOND
     1     3     4    1
     2     4     5   ar
     3     5     6   ar
     4     6     1    1
     5     1    20    1
     6    20    21   ar
     7    21    22   ar
     8    22    23   ar
     9    23    25    1
    10    25    26    2
    11    25    27   am
    12    27    29    1
    13    29    30   ar
    14    30    31    1
    15    30    32   ar
    16    32    33   ar
    17    33    34   ar
    18    34    35   ar
    19    35    36    1
    20    23    24   ar
    21     6     7   ar
    22     7     8   ar
    23     8    10    1
    24    10    11    1
    25    11    12    1
    26    12    13    1
    27    13    16    1
    28    16    17    1
    29    17    18    1
    30    13    14    1
    31    14    15    1
    32     8     9   ar
    33     9     4   ar
    34    24    20   ar
    35    15    10    1
    36    35    29   ar
    37     1     2    1
    38    27    28    1
    39    18    19    1
@<TRIPOS>MOLECULE
*****
 36 39 0 0 0
SMALL
GASTEIGER

@<TRIPOS>ATOM
      1 N           6.2113   -0.4057   18.7772 N.pl3   1  UNL1       -0.2780
      2 H           7.1061   -0.2367   18.4032 H       1  UNL1        0.1555
      3 C           4.5949   -5.3415   18.6162 C.3     1  UNL1        0.0738
      4 C           5.1147   -4.1695   19.3949 C.ar    1  UNL1        0.1424
      5 N           5.4031   -2.8737   18.6968 N.ar    1  UNL1       -0.2158
      6 C           5.9228   -1.7017   19.4755 C.ar    1  UNL1        0.1377
      7 C           6.1541   -1.8256   20.9523 C.ar    1  UNL1        0.0687
      8 C           5.8657   -3.1215   21.6504 C.ar    1  UNL1        0.1359
      9 N           5.3460   -4.2935   20.8717 N.ar    1  UNL1       -0.2159
     10 N           6.0970   -3.2455   23.1273 N.pl3   1  UNL1       -0.2903
     11 C           6.8344   -4.4317   23.6740 C.3     1  UNL1        0.1095
     12 C           7.0657   -4.5557   25.1510 C.3     1  UNL1        0.0939
     13 N           6.5595   -3.4933   26.0811 N.3     1  UNL1       -0.2677
     14 C           5.8220   -2.3070   25.5344 C.3     1  UNL1        0.0939
     15 C           5.5908   -2.1831   24.0575 C.3     1  UNL1        0.1095
     16 C           6.7908   -3.6173   27.5580 C.3     1  UNL1        0.1043
     17 C           6.6484   -4.9506   28.2301 C.3     1  UNL1        0.1544
     18 O           5.4544   -5.8119   27.9425 O.3     1  UNL1       -0.3805
     19 H           4.6540   -5.3763   28.2749 H       1  UNL1        0.2105
     20 C           5.1363    0.6325   18.6490 C.ar    1  UNL1        0.1648
     21 N           5.3482    2.0920   18.3751 N.ar    1  UNL1       -0.2223
     22 C           4.0035    2.7551   18.3289 C.ar    1  UNL1        0.1119
     23 C           2.9605    1.7054   18.5742 C.ar    1  UNL1        0.1047
     24 S           3.6605    0.3936   18.7720 S.2     1  UNL1       -0.0468
     25 C           1.4777    1.9283   18.6146 C.2     1  UNL1        0.2572
     26 O           0.5409    0.8023   18.2913 O.2     1  UNL1       -0.2692
     27 N           0.9317    3.2773   18.9783 N.am    1  UNL1       -0.2795
     28 H           1.5465    4.0163   19.1905 H       1  UNL1        0.1552
     29 C          -0.5511    3.5002   19.0187 C.ar    1  UNL1        0.0572
     30 C          -1.2493    4.1158   17.8425 C.ar    1  UNL1       -0.0075
     31 C          -0.4648    4.5086   16.6258 C.3     1  UNL1        0.0324
     32 C          -2.7321    4.3387   17.8830 C.ar    1  UNL1       -0.0030
     33 C          -3.5167    3.9460   19.0996 C.ar    1  UNL1        0.0006
     34 C          -2.8185    3.3304   20.2758 C.ar    1  UNL1        0.0126
     35 C          -1.3357    3.1075   20.2353 C.ar    1  UNL1        0.0708
     36 CL         -0.6375    2.4918   21.4115 Cl      1  UNL1       -0.0810
@<TRIPOS>BOND
     1     3     4    1
     2     4     5   ar
     3     5     6   ar
     4     6     1    1
     5     1    20    1
     6    20    21   ar
     7    21    22   ar
     8    22    23   ar
     9    23    25    1
    10    25    26    2
    11    25    27   am
    12    27    29    1
    13    29    30   ar
    14    30    31    1
    15    30    32   ar
    16    32    33   ar
    17    33    34   ar
    18    34    35   ar
    19    35    36    1
    20    23    24   ar
    21     6     7   ar
    22     7     8   ar
    23     8    10    1
    24    10    11    1
    25    11    12    1
    26    12    13    1
    27    13    16    1
    28    16    17    1
    29    17    18    1
    30    13    14    1
    31    14    15    1
    32     8     9   ar
    33     9     4   ar
    34    24    20   ar
    35    15    10    1
    36    35    29   ar
    37     1     2    1
    38    27    28    1
    39    18    19    1
@<TRIPOS>MOLECULE
*****
 36 39 0 0 0
SMALL
GASTEIGER

@<TRIPOS>ATOM
      1 N           4.8716   -1.4957   27.7735 N.pl3   1  UNL1       -0.2780
      2 H           5.5064   -2.2036   28.0287 H       1  UNL1        0.1555
      3 C          -0.0207   -0.0946   28.8237 C.3     1  UNL1        0.0738
      4 C           1.3898   -0.3277   29.2778 C.ar    1  UNL1        0.1424
      5 N           2.4254   -0.7952   28.2986 N.ar    1  UNL1       -0.2158
      6 C           3.8359   -1.0283   28.7528 C.ar    1  UNL1        0.1377
      7 C           4.2107   -0.7939   30.1861 C.ar    1  UNL1        0.0687
      8 C           3.1751   -0.3265   31.1653 C.ar    1  UNL1        0.1359
      9 N           1.7646   -0.0934   30.7112 N.ar    1  UNL1       -0.2159
     10 N           3.5499   -0.0921   32.5988 N.pl3   1  UNL1       -0.2903
     11 C           3.2104    1.2111   33.2593 C.3     1  UNL1        0.1095
     12 C           3.5852    1.4454   34.6927 C.3     1  UNL1        0.0939
     13 N           4.2995    0.3765   35.4656 N.3     1  UNL1       -0.2677
     14 C           4.6389   -0.9268   34.8050 C.3     1  UNL1        0.0939
     15 C           4.2641   -1.1611   33.3716 C.3     1  UNL1        0.1095
     16 C           4.6743    0.6108   36.8989 C.3     1  UNL1        0.1043
     17 C           3.6981    1.2632   37.8324 C.3     1  UNL1        0.1544
     18 O           3.4730    0.6925   39.2012 O.3     1  UNL1       -0.3805
     19 H           3.0626   -0.1829   39.1230 H       1  UNL1        0.2105
     20 C           4.9399   -0.8847   26.4053 C.ar    1  UNL1        0.1648
     21 N           5.6192    0.4041   26.0482 N.ar    1  UNL1       -0.2223
     22 C           5.4401    0.6302   24.5761 C.ar    1  UNL1        0.1119
     23 C           4.6501   -0.5189   24.0235 C.ar    1  UNL1        0.1047
     24 S           4.3410   -1.4551   25.1539 S.2     1  UNL1       -0.0468
     25 C           4.2410   -0.7000   22.5918 C.2     1  UNL1        0.2572
     26 O           2.8502   -1.1541   22.2609 O.2     1  UNL1       -0.2692
     27 N           5.2227   -0.4270   21.4909 N.am    1  UNL1       -0.2795
     28 H           6.1355   -0.1289   21.7081 H       1  UNL1        0.1552
     29 C           4.8136   -0.6081   20.0592 C.ar    1  UNL1        0.0572
     30 C           5.1415   -1.8835   19.3411 C.ar    1  UNL1       -0.0075
     31 C           5.8785   -2.9779   20.0546 C.3     1  UNL1        0.0324
     32 C           4.7323   -2.0645   17.9093 C.ar    1  UNL1       -0.0030
     33 C           3.9953   -0.9702   17.1957 C.ar    1  UNL1        0.0006
     34 C           3.6674    0.3053   17.9139 C.ar    1  UNL1        0.0126
     35 C           4.0766    0.4863   19.3456 C.ar    1  UNL1        0.0708
     36 CL          3.7487    1.7617   20.0638 Cl      1  UNL1       -0.0810
@<TRIPOS>BOND
     1     3     4    1
     2     4     5   ar
     3     5     6   ar
     4     6     1    1
     5     1    20    1
     6    20    21   ar
     7    21    22   ar
     8    22    23   ar
     9    23    25    1
    10    25    26    2
    11    25    27   am
    12    27    29    1
    13    29    30   ar
    14    30    31    1
    15    30    32   ar
    16    32    33   ar
    17    33    34   ar
    18    34    35   ar
    19    35    36    1
    20    23    24   ar
    21     6     7   ar
    22     7     8   ar
    23     8    10    1
    24    10    11    1
    25    11    12    1
    26    12    13    1
    27    13    16    1
    28    16    17    1
    29    17    18    1
    30    13    14    1
    31    14    15    1
    32     8     9   ar
    33     9     4   ar
    34    24    20   ar
    35    15    10    1
    36    35    29   ar
    37     1     2    1
    38    27    28    1
    39    18    19    1
@<TRIPOS>MOLECULE
*****
 36 39 0 0 0
SMALL
GASTEIGER

@<TRIPOS>ATOM
      1 N         -19.3330   -6.7252   19.7862 N.pl3   1  UNL1       -0.2780
      2 H         -20.0613   -7.0911   20.3384 H       1  UNL1        0.1555
      3 C         -17.0976  -11.3334   18.9102 C.3     1  UNL1        0.0738
      4 C         -16.9855   -9.8485   19.0901 C.ar    1  UNL1        0.1424
      5 N         -18.2153   -9.0293   19.3482 N.ar    1  UNL1       -0.2158
      6 C         -18.1031   -7.5443   19.5281 C.ar    1  UNL1        0.1377
      7 C         -16.7613   -6.8786   19.4499 C.ar    1  UNL1        0.0687
      8 C         -15.5316   -7.6978   19.1918 C.ar    1  UNL1        0.1359
      9 N         -15.6437   -9.1827   19.0119 N.ar    1  UNL1       -0.2159
     10 N         -14.1896   -7.0320   19.1136 N.pl3   1  UNL1       -0.2903
     11 C         -13.9797   -5.6905   19.7510 C.3     1  UNL1        0.1095
     12 C         -12.6377   -5.0248   19.6729 C.3     1  UNL1        0.0939
     13 N         -11.5058   -5.7005   18.9572 N.3     1  UNL1       -0.2677
     14 C         -11.7159   -7.0421   18.3198 C.3     1  UNL1        0.0939
     15 C         -13.0577   -7.7078   18.3980 C.3     1  UNL1        0.1095
     16 C         -10.1639   -5.0348   18.8790 C.3     1  UNL1        0.1043
     17 C         -10.0271   -3.6996   18.2095 C.3     1  UNL1        0.1544
     18 O         -10.2736   -2.4414   18.9882 O.3     1  UNL1       -0.3805
     19 H         -11.2077   -2.3986   19.2462 H       1  UNL1        0.2105
     20 C         -19.4531   -5.3484   19.2030 C.ar    1  UNL1        0.1648
     21 N         -20.0360   -5.0059   17.8640 N.ar    1  UNL1       -0.2223
     22 C         -19.9546   -3.5183   17.6898 C.ar    1  UNL1        0.1119
     23 C         -19.3214   -2.9414   18.9211 C.ar    1  UNL1        0.1047
     24 S         -19.0114   -4.0725   19.8563 S.2     1  UNL1       -0.0468
     25 C         -19.0463   -1.4885   19.1731 C.2     1  UNL1        0.2572
     26 O         -19.5144   -0.4554   18.1915 O.2     1  UNL1       -0.2692
     27 N         -18.3032   -1.0687   20.4067 N.am    1  UNL1       -0.2795
     28 H         -17.9960   -1.7468   21.0509 H       1  UNL1        0.1552
     29 C         -18.0282    0.3842   20.6586 C.ar    1  UNL1        0.0572
     30 C         -16.7202    0.9842   20.2355 C.ar    1  UNL1       -0.0075
     31 C         -15.6872    0.1315   19.5605 C.3     1  UNL1        0.0324
     32 C         -16.4452    2.4372   20.4875 C.ar    1  UNL1       -0.0030
     33 C         -17.4782    3.2899   21.1626 C.ar    1  UNL1        0.0006
     34 C         -18.7862    2.6898   21.5857 C.ar    1  UNL1        0.0126
     35 C         -19.0612    1.2369   21.3337 C.ar    1  UNL1        0.0708
     36 CL        -20.3692    0.6368   21.7568 Cl      1  UNL1       -0.0810
@<TRIPOS>BOND
     1     3     4    1
     2     4     5   ar
     3     5     6   ar
     4     6     1    1
     5     1    20    1
     6    20    21   ar
     7    21    22   ar
     8    22    23   ar
     9    23    25    1
    10    25    26    2
    11    25    27   am
    12    27    29    1
    13    29    30   ar
    14    30    31    1
    15    30    32   ar
    16    32    33   ar
    17    33    34   ar
    18    34    35   ar
    19    35    36    1
    20    23    24   ar
    21     6     7   ar
    22     7     8   ar
    23     8    10    1
    24    10    11    1
    25    11    12    1
    26    12    13    1
    27    13    16    1
    28    16    17    1
    29    17    18    1
    30    13    14    1
    31    14    15    1
    32     8     9   ar
    33     9     4   ar
    34    24    20   ar
    35    15    10    1
    36    35    29   ar
    37     1     2    1
    38    27    28    1
    39    18    19    1
