@<TRIPOS>MOLECULE
*****
 35 38 0 0 0
SMALL
GASTEIGER

@<TRIPOS>ATOM
      1 N           7.1543   -5.6101   25.8379 N.am    1  UNL1       -0.2805
      2 C           8.0927   -4.8142   24.9801 C.2     1  UNL1        0.2538
      3 O           9.2291   -4.0633   25.6085 O.2     1  UNL1       -0.2697
      4 H           6.4085   -6.1029   25.4255 H       1  UNL1        0.1552
      5 C           7.8947   -4.7690   23.4939 C.ar    1  UNL1        0.1056
      6 C           8.6166   -5.6090   22.4823 C.ar    1  UNL1        0.1279
      7 N           8.1081   -5.2350   21.1216 N.ar    1  UNL1       -0.1621
      8 N           7.0718   -4.1640   21.2922 N.ar    1  UNL1       -0.2141
      9 C           6.9399   -3.8760   22.7584 C.ar    1  UNL1        0.1328
     10 N           6.0156   -2.8713   23.3799 N.pl3   1  UNL1       -0.3424
     11 H           5.4232   -2.3291   22.8104 H       1  UNL1        0.1437
     12 H           6.0013   -2.7541   24.3573 H       1  UNL1        0.1437
     13 C           6.3026   -3.4979   20.1901 C.ar    1  UNL1        0.1115
     14 C           7.0159   -2.6308   19.1954 C.ar    1  UNL1        0.0215
     15 C           6.2466   -1.9648   18.0934 C.ar    1  UNL1        0.0017
     16 C           4.7640   -2.1657   17.9860 C.ar    1  UNL1        0.0024
     17 C           4.0507   -3.0328   18.9807 C.ar    1  UNL1        0.0312
     18 C           4.8199   -3.6989   20.0827 C.ar    1  UNL1        0.1577
     19 F           4.1067   -4.5659   21.0775 F       1  UNL1       -0.2026
     20 C           8.7311   -7.8431   27.0740 C.3     1  UNL1        0.0323
     21 C           8.1407   -6.7717   27.9422 C.ar    1  UNL1       -0.0084
     22 C           8.3387   -6.8168   29.4283 C.ar    1  UNL1       -0.0029
     23 C           7.7483   -5.7455   30.2965 C.ar    1  UNL1        0.0043
     24 C           6.9599   -4.6291   29.6784 C.ar    1  UNL1        0.0549
     25 C           6.7619   -4.5840   28.1923 C.ar    1  UNL1        0.0189
     26 C           7.3523   -5.6553   27.3241 C.ar    1  UNL1        0.0467
     27 C           6.3695   -3.5577   30.5466 C.2     1  UNL1        0.2507
     28 O           6.1212   -2.1893   29.9848 O.2     1  UNL1       -0.2698
     29 N           6.0274   -3.8548   31.9765 N.am    1  UNL1       -0.2632
     30 H           6.1904   -4.7530   32.3452 H       1  UNL1        0.1567
     31 C           5.4371   -2.7835   32.8446 C.ar    1  UNL1        0.1767
     32 C           6.1393   -1.5453   33.3176 C.ar    1  UNL1        0.0812
     33 C           5.1770   -0.7588   34.1575 C.ar    1  UNL1        0.2152
     34 O           3.8800   -1.5109   34.2037 O.2     1  UNL1       -0.3489
     35 N           4.0407   -2.7623   33.3922 N.ar    1  UNL1       -0.0616
@<TRIPOS>BOND
     1    20    21    1
     2    21    22   ar
     3    22    23   ar
     4    23    24   ar
     5    24    27    1
     6    27    28    2
     7    27    29   am
     8    29    31    1
     9    31    32   ar
    10    32    33   ar
    11    33    34   ar
    12    34    35   ar
    13    24    25   ar
    14    25    26   ar
    15    26     1    1
    16     1     2   am
    17     2     3    2
    18     2     5    1
    19     5     6   ar
    20     6     7   ar
    21     7     8   ar
    22     8    13    1
    23    13    14   ar
    24    14    15   ar
    25    15    16   ar
    26    16    17   ar
    27    17    18   ar
    28    18    19    1
    29     8     9   ar
    30     9    10    1
    31    26    21   ar
    32     9     5   ar
    33    35    31   ar
    34    18    13   ar
    35    29    30    1
    36     1     4    1
    37    10    11    1
    38    10    12    1
@<TRIPOS>MOLECULE
*****
 35 38 0 0 0
SMALL
GASTEIGER

@<TRIPOS>ATOM
      1 N          -3.1883    2.8042   20.5433 N.am    1  UNL1       -0.2805
      2 C          -2.0065    3.6521   20.1769 C.2     1  UNL1        0.2538
      3 O          -2.0997    5.1466   20.2646 O.2     1  UNL1       -0.2697
      4 H          -3.1272    1.8233   20.4857 H       1  UNL1        0.1552
      5 C          -0.7315    3.0055   19.7226 C.ar    1  UNL1        0.1056
      6 C          -0.1015    3.1531   18.3694 C.ar    1  UNL1        0.1279
      7 N           1.1567    2.3366   18.3523 N.ar    1  UNL1       -0.1621
      8 N           1.3043    1.6844   19.6950 N.ar    1  UNL1       -0.2141
      9 C           0.1373    2.0978   20.5420 C.ar    1  UNL1        0.1328
     10 N          -0.1163    1.6774   21.9593 N.pl3   1  UNL1       -0.3424
     11 H           0.5156    1.0753   22.4147 H       1  UNL1        0.1437
     12 H          -0.9147    2.0035   22.4341 H       1  UNL1        0.1437
     13 C           2.4226    0.7780   20.1168 C.ar    1  UNL1        0.1115
     14 C           3.8015    1.3324   20.3195 C.ar    1  UNL1        0.0215
     15 C           4.9198    0.4259   20.7412 C.ar    1  UNL1        0.0017
     16 C           4.6590   -1.0349   20.9603 C.ar    1  UNL1        0.0024
     17 C           3.2801   -1.5893   20.7576 C.ar    1  UNL1        0.0312
     18 C           2.1618   -0.6829   20.3358 C.ar    1  UNL1        0.1577
     19 F           0.7828   -1.2372   20.1331 F       1  UNL1       -0.2026
     20 C          -5.3243    3.4751   18.5464 C.3     1  UNL1        0.0323
     21 C          -5.5313    3.7862   19.9991 C.ar    1  UNL1       -0.0084
     22 C          -6.8063    4.4328   20.4534 C.ar    1  UNL1       -0.0029
     23 C          -7.0133    4.7439   21.9061 C.ar    1  UNL1        0.0043
     24 C          -5.9453    4.4085   22.9046 C.ar    1  UNL1        0.0549
     25 C          -4.6704    3.7619   22.4503 C.ar    1  UNL1        0.0189
     26 C          -4.4634    3.4508   20.9976 C.ar    1  UNL1        0.0467
     27 C          -6.1523    4.7196   24.3573 C.2     1  UNL1        0.2507
     28 O          -5.6460    3.7745   25.4062 O.2     1  UNL1       -0.2698
     29 N          -6.8657    5.9757   24.7610 N.am    1  UNL1       -0.2632
     30 H          -7.1980    6.5961   24.0725 H       1  UNL1        0.1567
     31 C          -7.0727    6.2868   26.2137 C.ar    1  UNL1        0.1767
     32 C          -6.0076    6.6921   27.1891 C.ar    1  UNL1        0.0812
     33 C          -6.6578    6.9031   28.5243 C.ar    1  UNL1        0.2152
     34 O          -8.1247    6.6281   28.3742 O.2     1  UNL1       -0.3489
     35 N          -8.3812    6.2473   26.9461 N.ar    1  UNL1       -0.0616
@<TRIPOS>BOND
     1    20    21    1
     2    21    22   ar
     3    22    23   ar
     4    23    24   ar
     5    24    27    1
     6    27    28    2
     7    27    29   am
     8    29    31    1
     9    31    32   ar
    10    32    33   ar
    11    33    34   ar
    12    34    35   ar
    13    24    25   ar
    14    25    26   ar
    15    26     1    1
    16     1     2   am
    17     2     3    2
    18     2     5    1
    19     5     6   ar
    20     6     7   ar
    21     7     8   ar
    22     8    13    1
    23    13    14   ar
    24    14    15   ar
    25    15    16   ar
    26    16    17   ar
    27    17    18   ar
    28    18    19    1
    29     8     9   ar
    30     9    10    1
    31    26    21   ar
    32     9     5   ar
    33    35    31   ar
    34    18    13   ar
    35    29    30    1
    36     1     4    1
    37    10    11    1
    38    10    12    1
@<TRIPOS>MOLECULE
*****
 35 38 0 0 0
SMALL
GASTEIGER

@<TRIPOS>ATOM
      1 N           7.4075   -3.4652   27.8232 N.am    1  UNL1       -0.2805
      2 C           6.7372   -4.5786   27.0743 C.2     1  UNL1        0.2538
      3 O           5.8403   -5.5372   27.8001 O.2     1  UNL1       -0.2697
      4 H           7.9962   -2.8360   27.3469 H       1  UNL1        0.1552
      5 C           6.9638   -4.7336   25.5996 C.ar    1  UNL1        0.1056
      6 C           7.7996   -5.7916   24.9424 C.ar    1  UNL1        0.1279
      7 N           7.7467   -5.5696   23.4598 N.ar    1  UNL1       -0.1621
      8 N           6.8783   -4.3742   23.2008 N.ar    1  UNL1       -0.2141
      9 C           6.3944   -3.8575   24.5234 C.ar    1  UNL1        0.1328
     10 N           5.4985   -2.6728   24.7327 N.pl3   1  UNL1       -0.3424
     11 H           5.1744   -2.1579   23.9588 H       1  UNL1        0.1437
     12 H           5.2345   -2.4103   25.6441 H       1  UNL1        0.1437
     13 C           6.5512   -3.7969   21.8556 C.ar    1  UNL1        0.1115
     14 C           7.6479   -3.2672   20.9800 C.ar    1  UNL1        0.0215
     15 C           7.3208   -2.6899   19.6347 C.ar    1  UNL1        0.0017
     16 C           5.8970   -2.6424   19.1650 C.ar    1  UNL1        0.0024
     17 C           4.8003   -3.1722   20.0406 C.ar    1  UNL1        0.0312
     18 C           5.1274   -3.7494   21.3859 C.ar    1  UNL1        0.1577
     19 F           4.0308   -4.2792   22.2616 F       1  UNL1       -0.2026
     20 C           9.2690   -4.7812   29.7734 C.3     1  UNL1        0.0323
     21 C           8.1116   -3.9682   30.2730 C.ar    1  UNL1       -0.0084
     22 C           7.8850   -3.8133   31.7476 C.ar    1  UNL1       -0.0029
     23 C           6.7276   -3.0004   32.2472 C.ar    1  UNL1        0.0043
     24 C           5.7968   -2.3424   31.2722 C.ar    1  UNL1        0.0549
     25 C           6.0235   -2.4973   29.7976 C.ar    1  UNL1        0.0189
     26 C           7.1809   -3.3103   29.2980 C.ar    1  UNL1        0.0467
     27 C           4.6394   -1.5295   31.7718 C.2     1  UNL1        0.2507
     28 O           3.8640   -1.9869   32.9715 O.2     1  UNL1       -0.2698
     29 N           4.2575   -0.2591   31.0717 N.am    1  UNL1       -0.2632
     30 H           4.7665    0.0412   30.2842 H       1  UNL1        0.1567
     31 C           3.1001    0.5538   31.5713 C.ar    1  UNL1        0.1767
     32 C           3.1028    1.4415   32.7804 C.ar    1  UNL1        0.0812
     33 C           1.7412    2.0581   32.9059 C.ar    1  UNL1        0.2152
     34 O           0.8969    1.5515   31.7743 O.2     1  UNL1       -0.3489
     35 N           1.7367    0.6218   30.9494 N.ar    1  UNL1       -0.0616
@<TRIPOS>BOND
     1    20    21    1
     2    21    22   ar
     3    22    23   ar
     4    23    24   ar
     5    24    27    1
     6    27    28    2
     7    27    29   am
     8    29    31    1
     9    31    32   ar
    10    32    33   ar
    11    33    34   ar
    12    34    35   ar
    13    24    25   ar
    14    25    26   ar
    15    26     1    1
    16     1     2   am
    17     2     3    2
    18     2     5    1
    19     5     6   ar
    20     6     7   ar
    21     7     8   ar
    22     8    13    1
    23    13    14   ar
    24    14    15   ar
    25    15    16   ar
    26    16    17   ar
    27    17    18   ar
    28    18    19    1
    29     8     9   ar
    30     9    10    1
    31    26    21   ar
    32     9     5   ar
    33    35    31   ar
    34    18    13   ar
    35    29    30    1
    36     1     4    1
    37    10    11    1
    38    10    12    1
@<TRIPOS>MOLECULE
*****
 35 38 0 0 0
SMALL
GASTEIGER

@<TRIPOS>ATOM
      1 N           4.8939   -3.3287   21.0206 N.am    1  UNL1       -0.2805
      2 C           6.2302   -2.9959   21.6152 C.2     1  UNL1        0.2538
      3 O           6.7573   -1.5937   21.5379 O.2     1  UNL1       -0.2697
      4 H           4.5479   -4.2490   21.0714 H       1  UNL1        0.1552
      5 C           7.0394   -4.0654   22.2871 C.ar    1  UNL1        0.1056
      6 C           8.0762   -4.9291   21.6321 C.ar    1  UNL1        0.1279
      7 N           8.6315   -5.8564   22.6722 N.ar    1  UNL1       -0.1621
      8 N           7.9379   -5.5657   23.9701 N.ar    1  UNL1       -0.2141
      9 C           6.9540   -4.4587   23.7321 C.ar    1  UNL1        0.1328
     10 N           6.0443   -3.8518   24.7588 N.pl3   1  UNL1       -0.3424
     11 H           6.0614   -4.1797   25.6870 H       1  UNL1        0.1437
     12 H           5.4302   -3.1255   24.5046 H       1  UNL1        0.1437
     13 C           8.1850   -6.2600   25.2766 C.ar    1  UNL1        0.1115
     14 C           7.8029   -7.7008   25.4442 C.ar    1  UNL1        0.0215
     15 C           8.0499   -8.3951   26.7507 C.ar    1  UNL1        0.0017
     16 C           8.6790   -7.6486   27.8895 C.ar    1  UNL1        0.0024
     17 C           9.0611   -6.2078   27.7220 C.ar    1  UNL1        0.0312
     18 C           8.8140   -5.5135   26.4155 C.ar    1  UNL1        0.1577
     19 F           9.1960   -4.0727   26.2478 F       1  UNL1       -0.2026
     20 C           5.3332   -2.7167   18.1167 C.3     1  UNL1        0.0323
     21 C           4.3043   -1.9532   18.8968 C.ar    1  UNL1       -0.0084
     22 C           3.4951   -0.8838   18.2249 C.ar    1  UNL1       -0.0029
     23 C           2.4662   -0.1204   19.0050 C.ar    1  UNL1        0.0043
     24 C           2.2465   -0.4263   20.4569 C.ar    1  UNL1        0.0549
     25 C           3.0557   -1.4957   21.1288 C.ar    1  UNL1        0.0189
     26 C           4.0846   -2.2592   20.3487 C.ar    1  UNL1        0.0467
     27 C           1.2176    0.3371   21.2370 C.2     1  UNL1        0.2507
     28 O          -0.2017    0.3906   20.7547 O.2     1  UNL1       -0.2698
     29 N           1.6080    1.0471   22.4993 N.am    1  UNL1       -0.2632
     30 H           2.5395    1.0119   22.8158 H       1  UNL1        0.1567
     31 C           0.5791    1.8105   23.2793 C.ar    1  UNL1        0.1767
     32 C           0.1572    1.5314   24.6915 C.ar    1  UNL1        0.0812
     33 C          -0.8912    2.5355   25.0691 C.ar    1  UNL1        0.2152
     34 O          -1.1173    3.4352   23.8904 O.2     1  UNL1       -0.3489
     35 N          -0.2087    2.9872   22.7842 N.ar    1  UNL1       -0.0616
@<TRIPOS>BOND
     1    20    21    1
     2    21    22   ar
     3    22    23   ar
     4    23    24   ar
     5    24    27    1
     6    27    28    2
     7    27    29   am
     8    29    31    1
     9    31    32   ar
    10    32    33   ar
    11    33    34   ar
    12    34    35   ar
    13    24    25   ar
    14    25    26   ar
    15    26     1    1
    16     1     2   am
    17     2     3    2
    18     2     5    1
    19     5     6   ar
    20     6     7   ar
    21     7     8   ar
    22     8    13    1
    23    13    14   ar
    24    14    15   ar
    25    15    16   ar
    26    16    17   ar
    27    17    18   ar
    28    18    19    1
    29     8     9   ar
    30     9    10    1
    31    26    21   ar
    32     9     5   ar
    33    35    31   ar
    34    18    13   ar
    35    29    30    1
    36     1     4    1
    37    10    11    1
    38    10    12    1
@<TRIPOS>MOLECULE
*****
 35 38 0 0 0
SMALL
GASTEIGER

@<TRIPOS>ATOM
      1 N           6.9807   -5.4302   26.6950 N.am    1  UNL1       -0.2805
      2 C           7.9022   -4.8570   27.7304 C.2     1  UNL1        0.2538
      3 O           9.2873   -4.4277   27.3466 O.2     1  UNL1       -0.2697
      4 H           6.0717   -5.7120   26.9469 H       1  UNL1        0.1552
      5 C           7.4387   -4.7132   29.1498 C.ar    1  UNL1        0.1056
      6 C           7.2413   -5.8309   30.1304 C.ar    1  UNL1        0.1279
      7 N           6.7718   -5.2348   31.4244 N.ar    1  UNL1       -0.1621
      8 N           6.6791   -3.7486   31.2434 N.ar    1  UNL1       -0.2141
      9 C           7.0913   -3.4262   29.8376 C.ar    1  UNL1        0.1328
     10 N           7.1463   -2.0572   29.2269 N.pl3   1  UNL1       -0.3424
     11 H           6.8975   -1.2692   29.7619 H       1  UNL1        0.1437
     12 H           7.4312   -1.9468   28.2910 H       1  UNL1        0.1437
     13 C           6.2496   -2.7586   32.2853 C.ar    1  UNL1        0.1115
     14 C           4.8471   -2.7895   32.8162 C.ar    1  UNL1        0.0215
     15 C           4.4176   -1.7995   33.8580 C.ar    1  UNL1        0.0017
     16 C           5.3907   -0.7787   34.3690 C.ar    1  UNL1        0.0024
     17 C           6.7932   -0.7479   33.8381 C.ar    1  UNL1        0.0312
     18 C           7.2227   -1.7378   32.7963 C.ar    1  UNL1        0.1577
     19 F           8.6253   -1.7071   32.2653 F       1  UNL1       -0.2026
     20 C           8.5346   -7.8579   25.8632 C.3     1  UNL1        0.0323
     21 C           8.2211   -6.7879   24.8597 C.ar    1  UNL1       -0.0084
     22 C           8.6846   -6.9318   23.4404 C.ar    1  UNL1       -0.0029
     23 C           8.3711   -5.8618   22.4370 C.ar    1  UNL1        0.0043
     24 C           7.5942   -4.6480   22.8529 C.ar    1  UNL1        0.0549
     25 C           7.1307   -4.5042   24.2722 C.ar    1  UNL1        0.0189
     26 C           7.4442   -5.5741   25.2756 C.ar    1  UNL1        0.0467
     27 C           7.2807   -3.5780   21.8494 C.2     1  UNL1        0.2507
     28 O           7.2460   -2.1395   22.2730 O.2     1  UNL1       -0.2698
     29 N           7.0019   -3.9465   20.4224 N.am    1  UNL1       -0.2632
     30 H           7.0247   -4.8907   20.1444 H       1  UNL1        0.1567
     31 C           6.6885   -2.8766   19.4190 C.ar    1  UNL1        0.1767
     32 C           5.4348   -2.0545   19.3692 C.ar    1  UNL1        0.0812
     33 C           5.5451   -1.1106   18.2086 C.ar    1  UNL1        0.2152
     34 O           6.8670   -1.3494   17.5410 O.2     1  UNL1       -0.3489
     35 N           7.5737   -2.4408   18.2890 N.ar    1  UNL1       -0.0616
@<TRIPOS>BOND
     1    20    21    1
     2    21    22   ar
     3    22    23   ar
     4    23    24   ar
     5    24    27    1
     6    27    28    2
     7    27    29   am
     8    29    31    1
     9    31    32   ar
    10    32    33   ar
    11    33    34   ar
    12    34    35   ar
    13    24    25   ar
    14    25    26   ar
    15    26     1    1
    16     1     2   am
    17     2     3    2
    18     2     5    1
    19     5     6   ar
    20     6     7   ar
    21     7     8   ar
    22     8    13    1
    23    13    14   ar
    24    14    15   ar
    25    15    16   ar
    26    16    17   ar
    27    17    18   ar
    28    18    19    1
    29     8     9   ar
    30     9    10    1
    31    26    21   ar
    32     9     5   ar
    33    35    31   ar
    34    18    13   ar
    35    29    30    1
    36     1     4    1
    37    10    11    1
    38    10    12    1
@<TRIPOS>MOLECULE
*****
 35 38 0 0 0
SMALL
GASTEIGER

@<TRIPOS>ATOM
      1 N           7.3144   -5.7724   25.0183 N.am    1  UNL1       -0.2805
      2 C           8.0765   -5.6168   23.7358 C.2     1  UNL1        0.2538
      3 O           9.3654   -6.3573   23.5347 O.2     1  UNL1       -0.2697
      4 H           6.4684   -5.2864   25.1503 H       1  UNL1        0.1552
      5 C           7.5497   -4.7208   22.6543 C.ar    1  UNL1        0.1056
      6 C           8.1132   -4.5831   21.2710 C.ar    1  UNL1        0.1279
      7 N           7.2787   -3.5823   20.5280 N.ar    1  UNL1       -0.1621
      8 N           6.1993   -3.1015   21.4521 N.ar    1  UNL1       -0.2141
      9 C           6.3668   -3.8052   22.7663 C.ar    1  UNL1        0.1328
     10 N           5.5031   -3.6248   23.9793 N.pl3   1  UNL1       -0.3424
     11 H           4.7453   -2.9968   23.9551 H       1  UNL1        0.1437
     12 H           5.6941   -4.1344   24.7997 H       1  UNL1        0.1437
     13 C           5.1387   -2.0940   21.1204 C.ar    1  UNL1        0.1115
     14 C           5.3316   -0.6530   21.4893 C.ar    1  UNL1        0.0215
     15 C           4.2710    0.3545   21.1575 C.ar    1  UNL1        0.0017
     16 C           3.0175   -0.0791   20.4568 C.ar    1  UNL1        0.0024
     17 C           2.8247   -1.5201   20.0879 C.ar    1  UNL1        0.0312
     18 C           3.8853   -2.5276   20.4197 C.ar    1  UNL1        0.1577
     19 F           3.6926   -3.9688   20.0508 F       1  UNL1       -0.2026
     20 C           9.5322   -4.8256   26.8031 C.3     1  UNL1        0.0323
     21 C           8.9501   -6.1950   26.9922 C.ar    1  UNL1       -0.0084
     22 C           9.4768   -7.0911   28.0737 C.ar    1  UNL1       -0.0029
     23 C           8.8947   -8.4605   28.2628 C.ar    1  UNL1        0.0043
     24 C           7.7859   -8.9339   27.3705 C.ar    1  UNL1        0.0549
     25 C           7.2591   -8.0379   26.2890 C.ar    1  UNL1        0.0189
     26 C           7.8412   -6.6685   26.0999 C.ar    1  UNL1        0.0467
     27 C           7.2038  -10.3034   27.5596 C.2     1  UNL1        0.2507
     28 O           8.0933  -11.4511   27.9357 O.2     1  UNL1       -0.2698
     29 N           5.7321  -10.5252   27.3727 N.am    1  UNL1       -0.2632
     30 H           5.1482   -9.7719   27.1259 H       1  UNL1        0.1567
     31 C           5.1500  -11.8946   27.5618 C.ar    1  UNL1        0.1767
     32 C           4.2291  -12.3161   28.6683 C.ar    1  UNL1        0.0812
     33 C           3.8965  -13.7650   28.4680 C.ar    1  UNL1        0.2152
     34 O           4.6119  -14.2390   27.2378 O.2     1  UNL1       -0.3489
     35 N           5.3866  -13.0831   26.6777 N.ar    1  UNL1       -0.0616
@<TRIPOS>BOND
     1    20    21    1
     2    21    22   ar
     3    22    23   ar
     4    23    24   ar
     5    24    27    1
     6    27    28    2
     7    27    29   am
     8    29    31    1
     9    31    32   ar
    10    32    33   ar
    11    33    34   ar
    12    34    35   ar
    13    24    25   ar
    14    25    26   ar
    15    26     1    1
    16     1     2   am
    17     2     3    2
    18     2     5    1
    19     5     6   ar
    20     6     7   ar
    21     7     8   ar
    22     8    13    1
    23    13    14   ar
    24    14    15   ar
    25    15    16   ar
    26    16    17   ar
    27    17    18   ar
    28    18    19    1
    29     8     9   ar
    30     9    10    1
    31    26    21   ar
    32     9     5   ar
    33    35    31   ar
    34    18    13   ar
    35    29    30    1
    36     1     4    1
    37    10    11    1
    38    10    12    1
@<TRIPOS>MOLECULE
*****
 35 38 0 0 0
SMALL
GASTEIGER

@<TRIPOS>ATOM
      1 N           7.0049   -5.6542   25.8471 N.am    1  UNL1       -0.2805
      2 C           7.4994   -5.3753   24.4587 C.2     1  UNL1        0.2538
      3 O           8.6287   -6.1814   23.8888 O.2     1  UNL1       -0.2697
      4 H           6.2637   -5.1251   26.2212 H       1  UNL1        0.1552
      5 C           6.8645   -4.2904   23.6402 C.ar    1  UNL1        0.1056
      6 C           5.8490   -3.2991   24.1260 C.ar    1  UNL1        0.1279
      7 N           5.4905   -2.4024   22.9782 N.ar    1  UNL1       -0.1621
      8 N           6.2846   -2.8395   21.7830 N.ar    1  UNL1       -0.2141
      9 C           7.1338   -4.0064   22.1921 C.ar    1  UNL1        0.1328
     10 N           8.0851   -4.7573   21.3084 N.pl3   1  UNL1       -0.3424
     11 H           8.1935   -4.4941   20.3660 H       1  UNL1        0.1437
     12 H           8.6010   -5.5135   21.6708 H       1  UNL1        0.1437
     13 C           6.2377   -2.2187   20.4183 C.ar    1  UNL1        0.1115
     14 C           5.4265   -2.8585   19.3308 C.ar    1  UNL1        0.0215
     15 C           5.3796   -2.2377   17.9661 C.ar    1  UNL1        0.0017
     16 C           6.1439   -0.9771   17.6889 C.ar    1  UNL1        0.0024
     17 C           6.9551   -0.3373   18.7764 C.ar    1  UNL1        0.0312
     18 C           7.0020   -0.9581   20.1411 C.ar    1  UNL1        0.1577
     19 F           7.8131   -0.3184   21.2287 F       1  UNL1       -0.2026
     20 C           9.5268   -5.1001   27.3746 C.3     1  UNL1        0.0323
     21 C           8.9007   -6.4620   27.4294 C.ar    1  UNL1       -0.0084
     22 C           9.5355   -7.5470   28.2478 C.ar    1  UNL1       -0.0029
     23 C           8.9094   -8.9089   28.3026 C.ar    1  UNL1        0.0043
     24 C           7.6485   -9.1860   27.5389 C.ar    1  UNL1        0.0549
     25 C           7.0137   -8.1011   26.7204 C.ar    1  UNL1        0.0189
     26 C           7.6398   -6.7391   26.6657 C.ar    1  UNL1        0.0467
     27 C           7.0224  -10.5480   27.5936 C.2     1  UNL1        0.2507
     28 O           7.8658  -11.7493   27.9027 O.2     1  UNL1       -0.2698
     29 N           5.5529  -10.7087   27.3393 N.am    1  UNL1       -0.2632
     30 H           4.9993   -9.9203   27.1365 H       1  UNL1        0.1567
     31 C           4.9268  -12.0707   27.3941 C.ar    1  UNL1        0.1767
     32 C           3.8565  -12.5114   28.3481 C.ar    1  UNL1        0.0812
     33 C           3.5293  -13.9442   28.0481 C.ar    1  UNL1        0.2152
     34 O           4.3974  -14.3890   26.9086 O.2     1  UNL1       -0.3489
     35 N           5.2612  -13.2312   26.5043 N.ar    1  UNL1       -0.0616
@<TRIPOS>BOND
     1    20    21    1
     2    21    22   ar
     3    22    23   ar
     4    23    24   ar
     5    24    27    1
     6    27    28    2
     7    27    29   am
     8    29    31    1
     9    31    32   ar
    10    32    33   ar
    11    33    34   ar
    12    34    35   ar
    13    24    25   ar
    14    25    26   ar
    15    26     1    1
    16     1     2   am
    17     2     3    2
    18     2     5    1
    19     5     6   ar
    20     6     7   ar
    21     7     8   ar
    22     8    13    1
    23    13    14   ar
    24    14    15   ar
    25    15    16   ar
    26    16    17   ar
    27    17    18   ar
    28    18    19    1
    29     8     9   ar
    30     9    10    1
    31    26    21   ar
    32     9     5   ar
    33    35    31   ar
    34    18    13   ar
    35    29    30    1
    36     1     4    1
    37    10    11    1
    38    10    12    1
@<TRIPOS>MOLECULE
*****
 35 38 0 0 0
SMALL
GASTEIGER

@<TRIPOS>ATOM
      1 N           7.2049   -6.1500   27.9754 N.am    1  UNL1       -0.2805
      2 C           7.8903   -5.0925   28.7890 C.2     1  UNL1        0.2538
      3 O           9.1094   -4.4043   28.2502 O.2     1  UNL1       -0.2697
      4 H           6.4048   -6.6017   28.3290 H       1  UNL1        0.1552
      5 C           7.3567   -4.7232   30.1414 C.ar    1  UNL1        0.1056
      6 C           6.9743   -5.6815   31.2302 C.ar    1  UNL1        0.1279
      7 N           6.4931   -4.8814   32.4041 N.ar    1  UNL1       -0.1621
      8 N           6.5780   -3.4284   32.0408 N.ar    1  UNL1       -0.2141
      9 C           7.1117   -3.3307   30.6423 C.ar    1  UNL1        0.1328
     10 N           7.3574   -2.0631   29.8790 N.pl3   1  UNL1       -0.3424
     11 H           7.1644   -1.1922   30.2957 H       1  UNL1        0.1437
     12 H           7.7115   -2.1019   28.9612 H       1  UNL1        0.1437
     13 C           6.1962   -2.2757   32.9214 C.ar    1  UNL1        0.1115
     14 C           7.1814   -1.1762   33.1868 C.ar    1  UNL1        0.0215
     15 C           6.7996   -0.0235   34.0674 C.ar    1  UNL1        0.0017
     16 C           5.4326    0.0298   34.6825 C.ar    1  UNL1        0.0024
     17 C           4.4473   -1.0697   34.4171 C.ar    1  UNL1        0.0312
     18 C           4.8291   -2.2224   33.5365 C.ar    1  UNL1        0.1577
     19 F           3.8439   -3.3219   33.2710 F       1  UNL1       -0.2026
     20 C           8.9443   -8.5738   27.6598 C.3     1  UNL1        0.0323
     21 C           8.6082   -7.7312   26.4652 C.ar    1  UNL1       -0.0084
     22 C           9.1418   -8.1004   25.1129 C.ar    1  UNL1       -0.0029
     23 C           8.8057   -7.2577   23.9183 C.ar    1  UNL1        0.0043
     24 C           7.9361   -6.0458   24.0761 C.ar    1  UNL1        0.0549
     25 C           7.4025   -5.6766   25.4285 C.ar    1  UNL1        0.0189
     26 C           7.7385   -6.5193   26.6230 C.ar    1  UNL1        0.0467
     27 C           7.6000   -5.2032   22.8816 C.2     1  UNL1        0.2507
     28 O           8.2314   -5.4990   21.5535 O.2     1  UNL1       -0.2698
     29 N           6.6325   -4.0647   23.0151 N.am    1  UNL1       -0.2632
     30 H           6.2181   -3.8705   23.8867 H       1  UNL1        0.1567
     31 C           6.2965   -3.2220   21.8205 C.ar    1  UNL1        0.1767
     32 C           5.0214   -3.2782   21.0325 C.ar    1  UNL1        0.0812
     33 C           5.1133   -2.2661   19.9292 C.ar    1  UNL1        0.2152
     34 O           6.4453   -1.5844   20.0353 O.2     1  UNL1       -0.3489
     35 N           7.1766   -2.1752   21.2042 N.ar    1  UNL1       -0.0616
@<TRIPOS>BOND
     1    20    21    1
     2    21    22   ar
     3    22    23   ar
     4    23    24   ar
     5    24    27    1
     6    27    28    2
     7    27    29   am
     8    29    31    1
     9    31    32   ar
    10    32    33   ar
    11    33    34   ar
    12    34    35   ar
    13    24    25   ar
    14    25    26   ar
    15    26     1    1
    16     1     2   am
    17     2     3    2
    18     2     5    1
    19     5     6   ar
    20     6     7   ar
    21     7     8   ar
    22     8    13    1
    23    13    14   ar
    24    14    15   ar
    25    15    16   ar
    26    16    17   ar
    27    17    18   ar
    28    18    19    1
    29     8     9   ar
    30     9    10    1
    31    26    21   ar
    32     9     5   ar
    33    35    31   ar
    34    18    13   ar
    35    29    30    1
    36     1     4    1
    37    10    11    1
    38    10    12    1
@<TRIPOS>MOLECULE
*****
 35 38 0 0 0
SMALL
GASTEIGER

@<TRIPOS>ATOM
      1 N           5.9228   -1.9059   21.1394 N.am    1  UNL1       -0.2805
      2 C           5.6313   -3.2919   21.6333 C.2     1  UNL1        0.2538
      3 O           4.6084   -4.1376   20.9343 O.2     1  UNL1       -0.2697
      4 H           6.5941   -1.3509   21.5982 H       1  UNL1        0.1552
      5 C           6.3626   -3.8323   22.8264 C.ar    1  UNL1        0.1056
      6 C           7.5293   -4.7744   22.7930 C.ar    1  UNL1        0.1279
      7 N           7.9434   -5.0497   24.2082 N.ar    1  UNL1       -0.1621
      8 N           7.0325   -4.2778   25.1162 N.ar    1  UNL1       -0.2141
      9 C           6.0555   -3.5253   24.2621 C.ar    1  UNL1        0.1328
     10 N           4.9632   -2.6242   24.7570 N.pl3   1  UNL1       -0.3424
     11 H           4.8401   -2.4850   25.7238 H       1  UNL1        0.1437
     12 H           4.3694   -2.1720   24.1151 H       1  UNL1        0.1437
     13 C           7.0887   -4.2612   26.6151 C.ar    1  UNL1        0.1115
     14 C           7.5429   -3.0260   27.3349 C.ar    1  UNL1        0.0215
     15 C           7.5991   -3.0095   28.8337 C.ar    1  UNL1        0.0017
     16 C           7.2012   -4.2280   29.6127 C.ar    1  UNL1        0.0024
     17 C           6.7471   -5.4632   28.8929 C.ar    1  UNL1        0.0312
     18 C           6.6908   -5.4797   27.3941 C.ar    1  UNL1        0.1577
     19 F           6.2367   -6.7148   26.6741 F       1  UNL1       -0.2026
     20 C           7.0232   -2.3393   18.3824 C.3     1  UNL1        0.0323
     21 C           5.7416   -1.5823   18.5679 C.ar    1  UNL1       -0.0084
     22 C           5.0103   -1.0419   17.3750 C.ar    1  UNL1       -0.0029
     23 C           3.7287   -0.2848   17.5605 C.ar    1  UNL1        0.0043
     24 C           3.1785   -0.0681   18.9390 C.ar    1  UNL1        0.0549
     25 C           3.9099   -0.6085   20.1319 C.ar    1  UNL1        0.0189
     26 C           5.1914   -1.3655   19.9464 C.ar    1  UNL1        0.0467
     27 C           1.8969    0.6890   19.1246 C.2     1  UNL1        0.2507
     28 O           0.8237    0.6144   18.0793 O.2     1  UNL1       -0.2698
     29 N           1.6886    1.5206   20.3554 N.am    1  UNL1       -0.2632
     30 H           2.3930    1.5695   21.0414 H       1  UNL1        0.1567
     31 C           0.4070    2.2776   20.5409 C.ar    1  UNL1        0.1767
     32 C           0.2671    3.7692   20.6163 C.ar    1  UNL1        0.0812
     33 C          -1.1861    4.0895   20.8056 C.ar    1  UNL1        0.2152
     34 O          -1.9442    2.7959   20.8473 O.2     1  UNL1       -0.3489
     35 N          -0.9597    1.6760   20.6837 N.ar    1  UNL1       -0.0616
@<TRIPOS>BOND
     1    20    21    1
     2    21    22   ar
     3    22    23   ar
     4    23    24   ar
     5    24    27    1
     6    27    28    2
     7    27    29   am
     8    29    31    1
     9    31    32   ar
    10    32    33   ar
    11    33    34   ar
    12    34    35   ar
    13    24    25   ar
    14    25    26   ar
    15    26     1    1
    16     1     2   am
    17     2     3    2
    18     2     5    1
    19     5     6   ar
    20     6     7   ar
    21     7     8   ar
    22     8    13    1
    23    13    14   ar
    24    14    15   ar
    25    15    16   ar
    26    16    17   ar
    27    17    18   ar
    28    18    19    1
    29     8     9   ar
    30     9    10    1
    31    26    21   ar
    32     9     5   ar
    33    35    31   ar
    34    18    13   ar
    35    29    30    1
    36     1     4    1
    37    10    11    1
    38    10    12    1
