@<TRIPOS>MOLECULE
*****
 19 21 0 0 0
SMALL
GASTEIGER

@<TRIPOS>ATOM
      1 C          -8.6008  -16.8453   22.6178 C.2     1  UNL1        0.0381
      2 C          -8.1206  -15.7921   23.5718 C.2     1  UNL1        0.0999
      3 N          -6.6673  -16.0428   23.8458 N.2     1  UNL1       -0.2478
      4 C          -6.2494  -17.2510   23.0612 C.2     1  UNL1        0.0635
      5 C          -4.9351  -17.9636   22.9398 C.3     1  UNL1        0.0722
      6 C          -4.8158  -19.1722   22.0594 C.2     1  UNL1       -0.0131
      7 C          -6.0108  -19.6681   21.3004 C.2     1  UNL1        0.0307
      8 BR         -5.8914  -20.8767   20.4200 Br      1  UNL1       -0.0493
      9 C          -7.3251  -18.9555   21.4218 C.2     1  UNL1        0.0077
     10 C          -7.4444  -17.7470   22.3022 C.2     1  UNL1        0.0173
     11 N         -12.1702  -15.6153   19.0475 N.pl3   1  UNL1       -0.3274
     12 C         -11.7778  -16.3592   20.2895 C.ar    1  UNL1        0.2137
     13 N         -12.7777  -17.2320   20.9884 N.ar    1  UNL1       -0.2125
     14 C         -12.3852  -17.9759   22.2305 C.ar    1  UNL1        0.1034
     15 C         -10.9929  -17.8470   22.7735 C.ar    1  UNL1        0.0400
     16 C          -9.9931  -16.9742   22.0747 C.ar    1  UNL1        0.0872
     17 N         -10.3856  -16.2303   20.8326 N.ar    1  UNL1       -0.2139
     18 H         -13.0840  -15.6999   18.6911 H       1  UNL1        0.1452
     19 H         -11.5139  -15.0424   18.5889 H       1  UNL1        0.1452
@<TRIPOS>BOND
     1    11    12    1
     2    12    13   ar
     3    13    14   ar
     4    14    15   ar
     5    15    16   ar
     6    16     1    1
     7     1     2    2
     8     2     3    1
     9     3     4    2
    10     4     5    1
    11     5     6    1
    12     6     7    2
    13     7     8    1
    14     7     9    1
    15     9    10    2
    16    16    17   ar
    17    17    12   ar
    18    10     1    1
    19    10     4    1
    20    11    18    1
    21    11    19    1
@<TRIPOS>MOLECULE
*****
 19 21 0 0 0
SMALL
GASTEIGER

@<TRIPOS>ATOM
      1 C          -9.4332  -17.4059   24.5059 C.2     1  UNL1        0.0381
      2 C         -10.0001  -18.5194   25.3357 C.2     1  UNL1        0.0999
      3 N         -11.1762  -19.0920   24.6017 N.2     1  UNL1       -0.2478
      4 C         -11.3362  -18.3323   23.3182 C.2     1  UNL1        0.0635
      5 C         -12.3236  -18.4549   22.1957 C.3     1  UNL1        0.0722
      6 C         -12.2337  -17.5353   21.0141 C.2     1  UNL1       -0.0131
      7 C         -11.1565  -16.4932   20.9549 C.2     1  UNL1        0.0307
      8 BR        -11.0666  -15.5737   19.7732 Br      1  UNL1       -0.0493
      9 C         -10.1690  -16.3707   22.0774 C.2     1  UNL1        0.0077
     10 C         -10.2589  -17.2903   23.2590 C.2     1  UNL1        0.0173
     11 N          -5.0744  -14.9506   23.1015 N.pl3   1  UNL1       -0.3274
     12 C          -6.0690  -15.3293   24.1585 C.ar    1  UNL1        0.2137
     13 N          -5.8790  -14.8592   25.5702 N.ar    1  UNL1       -0.2125
     14 C          -6.8737  -15.2380   26.6271 C.ar    1  UNL1        0.1034
     15 C          -8.0584  -16.0869   26.2723 C.ar    1  UNL1        0.0400
     16 C          -8.2485  -16.5570   24.8607 C.ar    1  UNL1        0.0872
     17 N          -7.2537  -16.1782   23.8037 N.ar    1  UNL1       -0.2139
     18 H          -4.2968  -14.3934   23.3343 H       1  UNL1        0.1452
     19 H          -5.1992  -15.2591   22.1750 H       1  UNL1        0.1452
@<TRIPOS>BOND
     1    11    12    1
     2    12    13   ar
     3    13    14   ar
     4    14    15   ar
     5    15    16   ar
     6    16     1    1
     7     1     2    2
     8     2     3    1
     9     3     4    2
    10     4     5    1
    11     5     6    1
    12     6     7    2
    13     7     8    1
    14     7     9    1
    15     9    10    2
    16    16    17   ar
    17    17    12   ar
    18    10     1    1
    19    10     4    1
    20    11    18    1
    21    11    19    1
@<TRIPOS>MOLECULE
*****
 19 21 0 0 0
SMALL
GASTEIGER

@<TRIPOS>ATOM
      1 C          -7.5112  -19.4705   20.5321 C.2     1  UNL1        0.0381
      2 C          -8.0598  -19.6182   19.1439 C.2     1  UNL1        0.0999
      3 N          -9.5569  -19.5857   19.2313 N.2     1  UNL1       -0.2478
      4 C          -9.9335  -19.4179   20.6736 C.2     1  UNL1        0.0635
      5 C         -11.2644  -19.3208   21.3587 C.3     1  UNL1        0.0722
      6 C         -11.3308  -19.1525   22.8477 C.2     1  UNL1       -0.0131
      7 C         -10.0665  -19.0813   23.6516 C.2     1  UNL1        0.0307
      8 BR        -10.1330  -18.9130   25.1407 Br      1  UNL1       -0.0493
      9 C          -8.7356  -19.1784   22.9665 C.2     1  UNL1        0.0077
     10 C          -8.6692  -19.3467   21.4775 C.2     1  UNL1        0.0173
     11 N          -3.6675  -17.6894   23.5411 N.pl3   1  UNL1       -0.3274
     12 C          -4.1375  -18.5596   22.4133 C.ar    1  UNL1        0.2137
     13 N          -3.1558  -19.4094   21.6623 N.ar    1  UNL1       -0.2125
     14 C          -3.6259  -20.2796   20.5346 C.ar    1  UNL1        0.1034
     15 C          -5.0777  -20.3000   20.1579 C.ar    1  UNL1        0.0400
     16 C          -6.0594  -19.4502   20.9088 C.ar    1  UNL1        0.0872
     17 N          -5.5893  -18.5799   22.0366 N.ar    1  UNL1       -0.2139
     18 H          -2.7147  -17.6760   23.7884 H       1  UNL1        0.1452
     19 H          -4.3119  -17.1316   24.0339 H       1  UNL1        0.1452
@<TRIPOS>BOND
     1    11    12    1
     2    12    13   ar
     3    13    14   ar
     4    14    15   ar
     5    15    16   ar
     6    16     1    1
     7     1     2    2
     8     2     3    1
     9     3     4    2
    10     4     5    1
    11     5     6    1
    12     6     7    2
    13     7     8    1
    14     7     9    1
    15     9    10    2
    16    16    17   ar
    17    17    12   ar
    18    10     1    1
    19    10     4    1
    20    11    18    1
    21    11    19    1
@<TRIPOS>MOLECULE
*****
 19 21 0 0 0
SMALL
GASTEIGER

@<TRIPOS>ATOM
      1 C          -8.7208  -19.5233   22.6524 C.2     1  UNL1        0.0381
      2 C          -9.1780  -20.3677   23.8048 C.2     1  UNL1        0.0999
      3 N         -10.6287  -20.0739   24.0477 N.2     1  UNL1       -0.2478
      4 C         -11.0681  -19.0480   23.0455 C.2     1  UNL1        0.0635
      5 C         -12.3896  -18.3797   22.8068 C.3     1  UNL1        0.0722
      6 C         -12.5318  -17.3711   21.7056 C.2     1  UNL1       -0.0131
      7 C         -11.3526  -17.0309   20.8433 C.2     1  UNL1        0.0307
      8 BR        -11.4950  -16.0223   19.7421 Br      1  UNL1       -0.0493
      9 C         -10.0312  -17.6992   21.0820 C.2     1  UNL1        0.0077
     10 C          -9.8889  -18.7077   22.1831 C.2     1  UNL1        0.0173
     11 N          -3.9080  -17.5661   22.5700 N.pl3   1  UNL1       -0.3274
     12 C          -4.9317  -18.5202   22.0301 C.ar    1  UNL1        0.2137
     13 N          -4.5728  -19.4500   20.9090 N.ar    1  UNL1       -0.2125
     14 C          -5.5965  -20.4041   20.3691 C.ar    1  UNL1        0.1034
     15 C          -6.9792  -20.4285   20.9502 C.ar    1  UNL1        0.0400
     16 C          -7.3381  -19.4989   22.0712 C.ar    1  UNL1        0.0872
     17 N          -6.3143  -18.5447   22.6112 N.ar    1  UNL1       -0.2139
     18 H          -3.0006  -17.5500   22.1887 H       1  UNL1        0.1452
     19 H          -4.1436  -16.9559   23.3058 H       1  UNL1        0.1452
@<TRIPOS>BOND
     1    11    12    1
     2    12    13   ar
     3    13    14   ar
     4    14    15   ar
     5    15    16   ar
     6    16     1    1
     7     1     2    2
     8     2     3    1
     9     3     4    2
    10     4     5    1
    11     5     6    1
    12     6     7    2
    13     7     8    1
    14     7     9    1
    15     9    10    2
    16    16    17   ar
    17    17    12   ar
    18    10     1    1
    19    10     4    1
    20    11    18    1
    21    11    19    1
@<TRIPOS>MOLECULE
*****
 19 21 0 0 0
SMALL
GASTEIGER

@<TRIPOS>ATOM
      1 C          -8.2709  -18.5448   21.5186 C.2     1  UNL1        0.0381
      2 C          -7.7323  -19.6986   20.7257 C.2     1  UNL1        0.0999
      3 N          -6.2645  -19.8132   21.0127 N.2     1  UNL1       -0.2478
      4 C          -5.8960  -18.7303   21.9830 C.2     1  UNL1        0.0635
      5 C          -4.5914  -18.3568   22.6223 C.3     1  UNL1        0.0722
      6 C          -4.5269  -17.1994   23.5742 C.2     1  UNL1       -0.0131
      7 C          -5.7670  -16.4154   23.8868 C.2     1  UNL1        0.0307
      8 BR         -5.7025  -15.2580   24.8388 Br      1  UNL1       -0.0493
      9 C          -7.0715  -16.7890   23.2476 C.2     1  UNL1        0.0077
     10 C          -7.1360  -17.9464   22.2957 C.2     1  UNL1        0.0173
     11 N         -12.1363  -15.8424   19.3377 N.pl3   1  UNL1       -0.3274
     12 C         -11.6272  -16.7212   20.4417 C.ar    1  UNL1        0.2137
     13 N         -12.5417  -17.1275   21.5591 N.ar    1  UNL1       -0.2125
     14 C         -12.0326  -18.0062   22.6629 C.ar    1  UNL1        0.1034
     15 C         -10.6090  -18.4786   22.6494 C.ar    1  UNL1        0.0400
     16 C          -9.6945  -18.0724   21.5321 C.ar    1  UNL1        0.0872
     17 N         -10.2036  -17.1936   20.4281 N.ar    1  UNL1       -0.2139
     18 H         -13.0706  -15.5323   19.3465 H       1  UNL1        0.1452
     19 H         -11.5360  -15.5758   18.6044 H       1  UNL1        0.1452
@<TRIPOS>BOND
     1    11    12    1
     2    12    13   ar
     3    13    14   ar
     4    14    15   ar
     5    15    16   ar
     6    16     1    1
     7     1     2    2
     8     2     3    1
     9     3     4    2
    10     4     5    1
    11     5     6    1
    12     6     7    2
    13     7     8    1
    14     7     9    1
    15     9    10    2
    16    16    17   ar
    17    17    12   ar
    18    10     1    1
    19    10     4    1
    20    11    18    1
    21    11    19    1
@<TRIPOS>MOLECULE
*****
 19 21 0 0 0
SMALL
GASTEIGER

@<TRIPOS>ATOM
      1 C          -9.6333  -16.7111   22.8829 C.2     1  UNL1        0.0381
      2 C         -11.0800  -16.3438   23.0312 C.2     1  UNL1        0.0999
      3 N         -11.8641  -17.1327   22.0249 N.2     1  UNL1       -0.2478
      4 C         -10.9020  -17.9877   21.2545 C.2     1  UNL1        0.0635
      5 C         -11.1032  -18.9698   20.1388 C.3     1  UNL1        0.0722
      6 C          -9.9257  -19.6913   19.5533 C.2     1  UNL1       -0.0131
      7 C          -8.5470  -19.4307   20.0836 C.2     1  UNL1        0.0307
      8 BR         -7.3694  -20.1523   19.4980 Br      1  UNL1       -0.0493
      9 C          -8.3457  -18.4486   21.1993 C.2     1  UNL1        0.0077
     10 C          -9.5233  -17.7271   21.7848 C.2     1  UNL1        0.0173
     11 N          -4.7842  -14.8634   23.1509 N.pl3   1  UNL1       -0.3274
     12 C          -6.0716  -15.2355   23.8247 C.ar    1  UNL1        0.2137
     13 N          -6.2220  -15.0559   25.3063 N.ar    1  UNL1       -0.2125
     14 C          -7.5094  -15.4280   25.9801 C.ar    1  UNL1        0.1034
     15 C          -8.6465  -15.9797   25.1722 C.ar    1  UNL1        0.0400
     16 C          -8.4962  -16.1594   23.6907 C.ar    1  UNL1        0.0872
     17 N          -7.2087  -15.7872   23.0169 N.ar    1  UNL1       -0.2139
     18 H          -4.0378  -14.5013   23.6811 H       1  UNL1        0.1452
     19 H          -4.6855  -14.9813   22.1785 H       1  UNL1        0.1452
@<TRIPOS>BOND
     1    11    12    1
     2    12    13   ar
     3    13    14   ar
     4    14    15   ar
     5    15    16   ar
     6    16     1    1
     7     1     2    2
     8     2     3    1
     9     3     4    2
    10     4     5    1
    11     5     6    1
    12     6     7    2
    13     7     8    1
    14     7     9    1
    15     9    10    2
    16    16    17   ar
    17    17    12   ar
    18    10     1    1
    19    10     4    1
    20    11    18    1
    21    11    19    1
@<TRIPOS>MOLECULE
*****
 19 21 0 0 0
SMALL
GASTEIGER

@<TRIPOS>ATOM
      1 C          -9.2147  -17.8195   23.6333 C.2     1  UNL1        0.0381
      2 C          -9.8157  -18.5395   24.8039 C.2     1  UNL1        0.0999
      3 N         -11.2987  -18.6132   24.5910 N.2     1  UNL1       -0.2478
      4 C         -11.6142  -17.9388   23.2889 C.2     1  UNL1        0.0635
      5 C         -12.9079  -17.7081   22.5657 C.3     1  UNL1        0.0722
      6 C         -12.9136  -16.9868   21.2505 C.2     1  UNL1       -0.0131
      7 C         -11.6256  -16.4963   20.6586 C.2     1  UNL1        0.0307
      8 BR        -11.6313  -15.7749   19.3434 Br      1  UNL1       -0.0493
      9 C         -10.3319  -16.7270   21.3818 C.2     1  UNL1        0.0077
     10 C         -10.3262  -17.4483   22.6969 C.2     1  UNL1        0.0173
     11 N          -4.5790  -19.1362   21.6898 N.pl3   1  UNL1       -0.3274
     12 C          -5.4400  -18.1812   22.4622 C.ar    1  UNL1        0.2137
     13 N          -4.8442  -16.9295   23.0352 N.ar    1  UNL1       -0.2125
     14 C          -5.7053  -15.9745   23.8076 C.ar    1  UNL1        0.1034
     15 C          -7.1621  -16.2712   24.0069 C.ar    1  UNL1        0.0400
     16 C          -7.7579  -17.5228   23.4339 C.ar    1  UNL1        0.0872
     17 N          -6.8968  -18.4779   22.6615 N.ar    1  UNL1       -0.2139
     18 H          -3.6229  -18.9415   21.5589 H       1  UNL1        0.1452
     19 H          -4.9701  -19.9577   21.3137 H       1  UNL1        0.1452
@<TRIPOS>BOND
     1    11    12    1
     2    12    13   ar
     3    13    14   ar
     4    14    15   ar
     5    15    16   ar
     6    16     1    1
     7     1     2    2
     8     2     3    1
     9     3     4    2
    10     4     5    1
    11     5     6    1
    12     6     7    2
    13     7     8    1
    14     7     9    1
    15     9    10    2
    16    16    17   ar
    17    17    12   ar
    18    10     1    1
    19    10     4    1
    20    11    18    1
    21    11    19    1
@<TRIPOS>MOLECULE
*****
 19 21 0 0 0
SMALL
GASTEIGER

@<TRIPOS>ATOM
      1 C          -9.4906  -16.8242   22.6647 C.2     1  UNL1        0.0381
      2 C         -10.9118  -16.4027   22.4356 C.2     1  UNL1        0.0999
      3 N         -11.4368  -17.1647   21.2551 N.2     1  UNL1       -0.2478
      4 C         -10.3400  -18.0573   20.7545 C.2     1  UNL1        0.0635
      5 C         -10.2813  -19.0344   19.6180 C.3     1  UNL1        0.0722
      6 C          -9.0196  -19.8011   19.3527 C.2     1  UNL1       -0.0131
      7 C          -7.8168  -19.5906   20.2238 C.2     1  UNL1        0.0307
      8 BR         -6.5551  -20.3574   19.9584 Br      1  UNL1       -0.0493
      9 C          -7.8756  -18.6135   21.3603 C.2     1  UNL1        0.0077
     10 C          -9.1372  -17.8468   21.6257 C.2     1  UNL1        0.0173
     11 N          -8.4147  -16.1689   27.7058 N.pl3   1  UNL1       -0.3274
     12 C          -8.0442  -15.9853   26.2639 C.ar    1  UNL1        0.2137
     13 N          -6.7654  -15.2905   25.9006 N.ar    1  UNL1       -0.2125
     14 C          -6.3951  -15.1069   24.4587 C.ar    1  UNL1        0.1034
     15 C          -7.3035  -15.6182   23.3801 C.ar    1  UNL1        0.0400
     16 C          -8.5822  -16.3130   23.7433 C.ar    1  UNL1        0.0872
     17 N          -8.9526  -16.4965   25.1853 N.ar    1  UNL1       -0.2139
     18 H          -7.8185  -15.8333   28.4138 H       1  UNL1        0.1452
     19 H          -9.2540  -16.6249   27.9442 H       1  UNL1        0.1452
@<TRIPOS>BOND
     1    11    12    1
     2    12    13   ar
     3    13    14   ar
     4    14    15   ar
     5    15    16   ar
     6    16     1    1
     7     1     2    2
     8     2     3    1
     9     3     4    2
    10     4     5    1
    11     5     6    1
    12     6     7    2
    13     7     8    1
    14     7     9    1
    15     9    10    2
    16    16    17   ar
    17    17    12   ar
    18    10     1    1
    19    10     4    1
    20    11    18    1
    21    11    19    1
@<TRIPOS>MOLECULE
*****
 19 21 0 0 0
SMALL
GASTEIGER

@<TRIPOS>ATOM
      1 C          -7.1934  -16.8130   23.4326 C.2     1  UNL1        0.0381
      2 C          -6.5331  -15.7953   24.3147 C.2     1  UNL1        0.0999
      3 N          -5.0497  -16.0016   24.2304 N.2     1  UNL1       -0.2478
      4 C          -4.7933  -17.1468   23.2961 C.2     1  UNL1        0.0635
      5 C          -3.5246  -17.7977   22.8307 C.3     1  UNL1        0.0722
      6 C          -3.5809  -18.9501   21.8722 C.2     1  UNL1       -0.0131
      7 C          -4.9058  -19.4516   21.3792 C.2     1  UNL1        0.0307
      8 BR         -4.9619  -20.6041   20.4206 Br      1  UNL1       -0.0493
      9 C          -6.1745  -18.8007   21.8446 C.2     1  UNL1        0.0077
     10 C          -6.1183  -17.6483   22.8031 C.2     1  UNL1        0.0173
     11 N         -11.7565  -18.8562   24.8482 N.pl3   1  UNL1       -0.3274
     12 C         -10.9514  -17.9899   23.9255 C.ar    1  UNL1        0.2137
     13 N         -11.6227  -17.2788   22.7881 N.ar    1  UNL1       -0.2125
     14 C         -10.8175  -16.4125   21.8655 C.ar    1  UNL1        0.1034
     15 C          -9.3411  -16.2573   22.0804 C.ar    1  UNL1        0.0400
     16 C          -8.6698  -16.9683   23.2178 C.ar    1  UNL1        0.0872
     17 N          -9.4750  -17.8346   24.1404 N.ar    1  UNL1       -0.2139
     18 H         -12.7255  -18.9582   24.7072 H       1  UNL1        0.1452
     19 H         -11.3159  -19.3229   25.5947 H       1  UNL1        0.1452
@<TRIPOS>BOND
     1    11    12    1
     2    12    13   ar
     3    13    14   ar
     4    14    15   ar
     5    15    16   ar
     6    16     1    1
     7     1     2    2
     8     2     3    1
     9     3     4    2
    10     4     5    1
    11     5     6    1
    12     6     7    2
    13     7     8    1
    14     7     9    1
    15     9    10    2
    16    16    17   ar
    17    17    12   ar
    18    10     1    1
    19    10     4    1
    20    11    18    1
    21    11    19    1
