@<TRIPOS>MOLECULE
*****
 96 102 0 0 0
SMALL
GASTEIGER

@<TRIPOS>ATOM
      1 C          -2.3091    5.1553   25.3396 C.3     1  UNL1        0.1513
      2 C          -2.1734    4.6608   23.9299 C.3     1  UNL1        0.0625
      3 C          -1.6131    4.1138   22.6505 C.3     1  UNL1        0.1588
      4 O          -2.8700    4.1272   21.8322 O.3     1  UNL1       -0.3801
      5 C          -0.6781    3.5628   21.6151 C.3     1  UNL1        0.2151
      6 O          -1.6564    3.4119   20.4881 O.3     1  UNL1       -0.3654
      7 N           0.5486    3.0567   20.9156 N.am    1  UNL1       -0.2797
      8 C           1.9578    2.6406   20.6141 C.2     1  UNL1        0.2447
      9 O           1.7652    2.2148   19.1888 O.2     1  UNL1       -0.2732
     10 C           3.4245    2.3513   20.7376 C.3     1  UNL1        0.1790
     11 C           3.4287    1.8816   19.3131 C.3     1  UNL1        0.1390
     12 O           2.2446    1.8451   18.3931 O.3     1  UNL1       -0.3822
     13 C           4.8252    1.4546   18.9700 C.3     1  UNL1        0.0489
     14 C           5.2826    0.9163   17.6468 C.3     1  UNL1        0.0043
     15 C           5.6839    1.6605   20.1826 C.3     1  UNL1        0.0964
     16 N           4.8182    2.2147   21.2749 N.am    1  UNL1       -0.2696
     17 C           6.0152    2.2428   22.1785 C.2     1  UNL1        0.2463
     18 O           7.0321    1.6985   21.2194 O.2     1  UNL1       -0.2730
     19 C           6.9092    2.4332   23.3679 C.3     1  UNL1        0.1759
     20 N           7.4205    2.7689   24.7374 N.am    1  UNL1       -0.2950
     21 C           7.5039    3.2201   26.1656 C.2     1  UNL1        0.2433
     22 O           8.9646    2.9671   26.3950 O.2     1  UNL1       -0.2732
     23 C           7.1520    3.7467   27.5253 C.3     1  UNL1        0.1785
     24 N           6.3959    4.3019   28.6957 N.am    1  UNL1       -0.2950
     25 C           5.3029    4.8365   29.5730 C.2     1  UNL1        0.2410
     26 O           6.1074    5.0653   30.8182 O.2     1  UNL1       -0.2733
     27 C           3.9701    5.3028   30.0792 C.3     1  UNL1        0.1543
     28 C           4.6027    5.5975   31.4070 C.3     1  UNL1        0.0602
     29 C           3.5394    6.1363   32.3175 C.3     1  UNL1        0.1324
     30 O           3.7320    6.5620   33.7429 O.3     1  UNL1       -0.3826
     31 C           2.2497    6.1746   31.5526 C.3     1  UNL1        0.1230
     32 N           2.5159    5.6595   30.1692 N.am    1  UNL1       -0.2690
     33 C           1.0695    5.8748   29.8350 C.2     1  UNL1        0.2464
     34 O           0.6121    6.4131   31.1583 O.2     1  UNL1       -0.2730
     35 C          -0.2405    5.9297   29.1064 C.3     1  UNL1        0.1759
     36 N          -1.2978    5.8192   28.0482 N.am    1  UNL1       -0.2951
     37 C          -2.0084    5.5532   26.7542 C.2     1  UNL1        0.2408
     38 O          -3.3832    5.9956   27.1591 O.2     1  UNL1       -0.2733
     39 H          -2.6800    3.7915   20.9422 H       1  UNL1        0.2105
     40 H          -1.2009    3.0535   19.7103 H       1  UNL1        0.2123
     41 H           0.1464    2.8587   20.0391 H       1  UNL1        0.1517
     42 H           2.5171    1.4994   17.5288 H       1  UNL1        0.2104
     43 H           8.3629    2.5146   24.6087 H       1  UNL1        0.1499
     44 H           7.1378    4.3476   29.3413 H       1  UNL1        0.1499
     45 H           2.8869    6.8713   34.1050 H       1  UNL1        0.2104
     46 H          -2.0612    6.1616   28.5671 H       1  UNL1        0.1499
     47 C          -4.7621    4.4580   24.8429 C.2     1  UNL1        0.2461
     48 O          -4.2861    3.1131   24.3798 O.2     1  UNL1       -0.2701
     49 N          -3.7736    5.4791   25.3228 N.am    1  UNL1       -0.2947
     50 H          -4.0861    6.3619   25.6267 H       1  UNL1        0.1501
     51 C          -9.1557    5.4296   24.7926 C.ar    1  UNL1        0.0000
     52 C          -8.2505    6.1005   25.7829 C.ar    1  UNL1        0.0001
     53 C          -6.7860    5.7765   25.7996 C.ar    1  UNL1        0.0045
     54 C          -6.2267    4.7819   24.8261 C.ar    1  UNL1        0.0534
     55 C          -7.1319    4.1110   23.8358 C.ar    1  UNL1        0.0045
     56 C          -8.5963    4.4348   23.8190 C.ar    1  UNL1        0.0001
     57 C         -13.5492    6.4011   24.7422 C.ar    1  UNL1        0.0000
     58 C         -12.5394    7.4809   24.4887 C.ar    1  UNL1        0.0000
     59 C         -11.0749    7.1571   24.5055 C.ar    1  UNL1        0.0000
     60 C         -10.6203    5.7534   24.7758 C.ar    1  UNL1        0.0000
     61 C         -11.6301    4.6737   25.0293 C.ar    1  UNL1        0.0000
     62 C         -13.0946    4.9975   25.0125 C.ar    1  UNL1        0.0000
     63 C         -17.9428    7.3727   24.6919 C.ar    1  UNL1        0.1386
     64 C         -17.2975    6.7550   23.4870 C.ar    1  UNL1        0.0369
     65 C         -15.8330    6.4311   23.5037 C.ar    1  UNL1        0.0031
     66 C         -15.0138    6.7250   24.7254 C.ar    1  UNL1        0.0002
     67 C         -15.6592    7.3427   25.9304 C.ar    1  UNL1        0.0031
     68 C         -17.1238    7.6666   25.9136 C.ar    1  UNL1        0.0369
     69 O         -19.4074    7.6965   24.6751 O.3     1  UNL1       -0.4755
     70 C         -20.4105    6.6548   25.0734 C.3     1  UNL1        0.2054
     71 C         -20.0217    5.5655   26.0285 C.3     1  UNL1        0.0473
     72 C         -20.0323    5.8244   27.5059 C.3     1  UNL1        0.0038
     73 C         -18.8384    5.7482   29.8121 C.3     1  UNL1        0.0000
     74 C         -18.8326    5.4774   28.3368 C.3     1  UNL1        0.0001
     75 C           8.1925    1.9456   22.7634 C.3     1  UNL1        0.1373
     76 C           8.6472    0.5367   23.0044 C.3     1  UNL1        0.0340
     77 O           9.0209    2.8669   21.9180 O.3     1  UNL1       -0.3823
     78 H           9.8113    2.3979   21.6077 H       1  UNL1        0.2104
     79 C          -1.0884    6.4843   30.2125 C.3     1  UNL1        0.1373
     80 C          -1.9237    7.7075   29.9759 C.3     1  UNL1        0.0340
     81 O          -1.1011    5.8157   31.5552 O.3     1  UNL1       -0.3823
     82 H          -0.5113    5.0457   31.5385 H       1  UNL1        0.2104
     83 C           8.5076    3.6507   28.1601 C.3     1  UNL1        0.1681
     84 O           9.5192    4.7355   27.9359 O.3     1  UNL1       -0.3795
     85 H           9.1389    5.4186   27.3618 H       1  UNL1        0.2105
     86 C           8.8518    2.4702   29.0189 C.3     1  UNL1        0.1615
     87 O           9.2569    1.1731   28.3835 O.3     1  UNL1       -0.3775
     88 H           9.4439    0.5189   29.0748 H       1  UNL1        0.2109
     89 C           8.7910    2.5865   30.5131 C.ar    1  UNL1        0.0069
     90 C           8.2209    1.4650   31.3301 C.ar    1  UNL1        0.0012
     91 C           8.1601    1.5813   32.8243 C.ar    1  UNL1        0.0364
     92 C           8.6694    2.8191   33.5016 C.ar    1  UNL1        0.1337
     93 O           8.6086    2.9354   34.9959 O.3     1  UNL1       -0.5055
     94 C           9.2394    3.9405   32.6847 C.ar    1  UNL1        0.0364
     95 C           9.3002    3.8242   31.1904 C.ar    1  UNL1        0.0012
     96 H           8.2525    2.2349   35.5063 H       1  UNL1        0.2922
@<TRIPOS>BOND
     1    73    74    1
     2    74    72    1
     3    72    71    1
     4    71    70    1
     5    70    69    1
     6    69    63    1
     7    63    64   ar
     8    64    65   ar
     9    65    66   ar
    10    66    57    1
    11    57    58   ar
    12    58    59   ar
    13    59    60   ar
    14    60    51    1
    15    51    52   ar
    16    52    53   ar
    17    53    54   ar
    18    54    47    1
    19    47    48    2
    20    47    49   am
    21     1    49    1
    22     1     2    1
    23     2     3    1
    24     3     4    1
    25     3     5    1
    26     5     6    1
    27     5     7    1
    28     7     8   am
    29     8     9    2
    30    10     8    1
    31    10    11    1
    32    11    12    1
    33    11    13    1
    34    13    14    1
    35    13    15    1
    36    15    16    1
    37    16    17   am
    38    17    18    2
    39    17    19    1
    40    19    75    1
    41    75    76    1
    42    75    77    1
    43    19    20    1
    44    20    21   am
    45    21    22    2
    46    21    23    1
    47    23    83    1
    48    83    84    1
    49    83    86    1
    50    86    87    1
    51    86    89    1
    52    89    90   ar
    53    90    91   ar
    54    91    92   ar
    55    92    93    1
    56    92    94   ar
    57    94    95   ar
    58    23    24    1
    59    24    25   am
    60    25    26    2
    61    25    27    1
    62    27    28    1
    63    28    29    1
    64    29    30    1
    65    29    31    1
    66    31    32    1
    67    32    33   am
    68    33    34    2
    69    33    35    1
    70    35    79    1
    71    79    80    1
    72    79    81    1
    73    35    36    1
    74    36    37   am
    75    37    38    2
    76    54    55   ar
    77    55    56   ar
    78    60    61   ar
    79    61    62   ar
    80    66    67   ar
    81    67    68   ar
    82    68    63   ar
    83    62    57   ar
    84    56    51   ar
    85    37     1    1
    86    16    10    1
    87    95    89   ar
    88    32    27    1
    89    49    50    1
    90     4    39    1
    91     6    40    1
    92     7    41    1
    93    12    42    1
    94    77    78    1
    95    20    43    1
    96    84    85    1
    97    87    88    1
    98    93    96    1
    99    24    44    1
   100    30    45    1
   101    81    82    1
   102    36    46    1
@<TRIPOS>MOLECULE
*****
 96 102 0 0 0
SMALL
GASTEIGER

@<TRIPOS>ATOM
      1 C          -2.5265    3.8602   23.8404 C.3     1  UNL1        0.1513
      2 C          -2.4331    3.1998   25.1840 C.3     1  UNL1        0.0625
      3 C          -1.9070    2.5238   26.4154 C.3     1  UNL1        0.1588
      4 O          -3.2012    2.3744   27.1587 O.3     1  UNL1       -0.3801
      5 C          -0.9951    1.8923   27.4252 C.3     1  UNL1        0.2151
      6 O          -2.0176    1.5547   28.4695 O.3     1  UNL1       -0.3654
      7 N           0.2215    1.3614   28.1237 N.am    1  UNL1       -0.2797
      8 C           1.6348    0.9783   28.4489 C.2     1  UNL1        0.2447
      9 O           1.3963    0.3683   29.7984 O.2     1  UNL1       -0.2732
     10 C           3.1193    0.7770   28.3718 C.3     1  UNL1        0.1790
     11 C           3.0795    0.1329   29.7259 C.3     1  UNL1        0.1390
     12 O           1.8557   -0.0751   30.5677 O.3     1  UNL1       -0.3822
     13 C           4.4786   -0.2668   30.0903 C.3     1  UNL1        0.0489
     14 C           4.8995   -0.9446   31.3605 C.3     1  UNL1        0.0043
     15 C           5.3830    0.1304   28.9614 C.3     1  UNL1        0.0964
     16 N           4.5429    0.7754   27.8994 N.am    1  UNL1       -0.2696
     17 C           5.7792    0.9738   27.0734 C.2     1  UNL1        0.2463
     18 O           6.7761    0.3624   28.0129 O.2     1  UNL1       -0.2730
     19 C           6.7185    1.3543   25.9675 C.3     1  UNL1        0.1759
     20 N           7.2771    1.8832   24.6798 N.am    1  UNL1       -0.2950
     21 C           7.4054    2.5136   23.3247 C.2     1  UNL1        0.2433
     22 O           8.8871    2.3613   23.1468 O.2     1  UNL1       -0.2732
     23 C           7.0922    3.1894   22.0228 C.3     1  UNL1        0.1785
     24 N           6.3652    3.8505   20.8895 N.am    1  UNL1       -0.2950
     25 C           5.2889    4.4382   20.0257 C.2     1  UNL1        0.2410
     26 O           6.1396    4.8596   18.8643 O.2     1  UNL1       -0.2733
     27 C           3.9590    4.9004   19.5080 C.3     1  UNL1        0.1543
     28 C           4.6387    5.3892   18.2634 C.3     1  UNL1        0.0602
     29 C           3.5935    5.9868   17.3688 C.3     1  UNL1        0.1324
     30 O           3.8320    6.5968   16.0193 O.3     1  UNL1       -0.3826
     31 C           2.2678    5.8673   18.0604 C.3     1  UNL1        0.1230
     32 N           2.4938    5.1959   19.3826 N.am    1  UNL1       -0.2690
     33 C           1.0233    5.2984   19.6605 C.2     1  UNL1        0.2464
     34 O           0.6024    5.9763   18.3902 O.2     1  UNL1       -0.2730
     35 C          -0.3217    5.1990   20.3170 C.3     1  UNL1        0.1759
     36 N          -1.4218    4.9063   21.2938 N.am    1  UNL1       -0.2951
     37 C          -2.1792    4.4464   22.5042 C.2     1  UNL1        0.2408
     38 O          -3.5545    4.8702   22.0816 O.2     1  UNL1       -0.2733
     39 H          -3.0369    1.9392   28.0098 H       1  UNL1        0.2105
     40 H          -1.5818    1.1236   29.2212 H       1  UNL1        0.2123
     41 H          -0.2116    1.0360   28.9458 H       1  UNL1        0.1517
     42 H           2.1041   -0.5132   31.3967 H       1  UNL1        0.2104
     43 H           8.2244    1.6599   24.8281 H       1  UNL1        0.1499
     44 H           7.1341    4.0121   20.2963 H       1  UNL1        0.1499
     45 H           2.9901    6.9085   15.6520 H       1  UNL1        0.2104
     46 H          -2.1764    5.2744   20.7796 H       1  UNL1        0.1499
     47 C          -4.6302    5.0154   24.8353 C.2     1  UNL1        0.2461
     48 O          -3.7761    5.6725   25.8787 O.2     1  UNL1       -0.2701
     49 N          -4.0055    4.1093   23.8162 N.am    1  UNL1       -0.2947
     50 H          -4.5661    3.6780   23.1314 H       1  UNL1        0.1501
     51 C          -9.0672    5.7625   24.7626 C.ar    1  UNL1        0.0000
     52 C          -8.4950    4.5740   24.0484 C.ar    1  UNL1        0.0001
     53 C          -7.0160    4.3250   24.0727 C.ar    1  UNL1        0.0045
     54 C          -6.1093    5.2645   24.8111 C.ar    1  UNL1        0.0534
     55 C          -6.6815    6.4530   25.5253 C.ar    1  UNL1        0.0045
     56 C          -8.1605    6.7021   25.5010 C.ar    1  UNL1        0.0001
     57 C         -13.5041    6.5098   24.6899 C.ar    1  UNL1        0.0000
     58 C         -12.5488    7.6662   24.7008 C.ar    1  UNL1        0.0000
     59 C         -11.0699    7.4171   24.7250 C.ar    1  UNL1        0.0000
     60 C         -10.5462    6.0116   24.7384 C.ar    1  UNL1        0.0000
     61 C         -11.5015    4.8552   24.7275 C.ar    1  UNL1        0.0000
     62 C         -12.9804    5.1043   24.7033 C.ar    1  UNL1        0.0000
     63 C         -17.9410    7.2571   24.6174 C.ar    1  UNL1        0.1386
     64 C         -17.2757    6.5788   23.4567 C.ar    1  UNL1        0.0369
     65 C         -15.7967    6.3297   23.4809 C.ar    1  UNL1        0.0031
     66 C         -14.9831    6.7589   24.6657 C.ar    1  UNL1        0.0002
     67 C         -15.6485    7.4372   25.8265 C.ar    1  UNL1        0.0031
     68 C         -17.1276    7.6863   25.8022 C.ar    1  UNL1        0.0369
     69 O         -19.4201    7.5062   24.5932 O.3     1  UNL1       -0.4755
     70 C         -20.3762    6.3521   24.6560 C.3     1  UNL1        0.2054
     71 C         -20.0933    5.1924   25.5644 C.3     1  UNL1        0.0473
     72 C         -19.0454    4.1859   25.1916 C.3     1  UNL1        0.0038
     73 C         -20.0412    2.0168   24.1655 C.3     1  UNL1        0.0000
     74 C         -19.2567    3.2858   24.0104 C.3     1  UNL1        0.0001
     75 C           7.9953    0.8564   26.5773 C.3     1  UNL1        0.1373
     76 C           8.9149    1.8126   27.2773 C.3     1  UNL1        0.0340
     77 O           8.3525   -0.5976   26.4871 O.3     1  UNL1       -0.3823
     78 H           9.2026   -0.7497   26.9287 H       1  UNL1        0.2104
     79 C          -1.1435    5.8471   19.2425 C.3     1  UNL1        0.1373
     80 C          -1.3583    7.3315   19.2551 C.3     1  UNL1        0.0340
     81 O          -1.7506    5.0106   18.1554 O.3     1  UNL1       -0.3823
     82 H          -1.5165    4.0796   18.2949 H       1  UNL1        0.2104
     83 C           8.4804    3.2385   21.4566 C.3     1  UNL1        0.1681
     84 O           9.5171    4.1196   22.0883 O.3     1  UNL1       -0.3795
     85 H           9.1282    4.5851   22.8452 H       1  UNL1        0.2105
     86 C           8.8319    2.4066   20.2591 C.3     1  UNL1        0.1615
     87 O           9.5322    3.0334   19.0899 O.3     1  UNL1       -0.3775
     88 H           9.6842    2.3622   18.4063 H       1  UNL1        0.2109
     89 C           8.4833    0.9480   20.2304 C.ar    1  UNL1        0.0069
     90 C           9.4880   -0.0722   20.6774 C.ar    1  UNL1        0.0012
     91 C           9.1393   -1.5308   20.6488 C.ar    1  UNL1        0.0364
     92 C           7.7859   -1.9692   20.1732 C.ar    1  UNL1        0.1337
     93 O           7.4372   -3.4279   20.1445 O.3     1  UNL1       -0.5055
     94 C           6.7813   -0.9491   19.7262 C.ar    1  UNL1        0.0364
     95 C           7.1299    0.5096   19.7548 C.ar    1  UNL1        0.0012
     96 H           8.0648   -4.0652   20.4237 H       1  UNL1        0.2922
@<TRIPOS>BOND
     1    73    74    1
     2    74    72    1
     3    72    71    1
     4    71    70    1
     5    70    69    1
     6    69    63    1
     7    63    64   ar
     8    64    65   ar
     9    65    66   ar
    10    66    57    1
    11    57    58   ar
    12    58    59   ar
    13    59    60   ar
    14    60    51    1
    15    51    52   ar
    16    52    53   ar
    17    53    54   ar
    18    54    47    1
    19    47    48    2
    20    47    49   am
    21     1    49    1
    22     1     2    1
    23     2     3    1
    24     3     4    1
    25     3     5    1
    26     5     6    1
    27     5     7    1
    28     7     8   am
    29     8     9    2
    30    10     8    1
    31    10    11    1
    32    11    12    1
    33    11    13    1
    34    13    14    1
    35    13    15    1
    36    15    16    1
    37    16    17   am
    38    17    18    2
    39    17    19    1
    40    19    75    1
    41    75    76    1
    42    75    77    1
    43    19    20    1
    44    20    21   am
    45    21    22    2
    46    21    23    1
    47    23    83    1
    48    83    84    1
    49    83    86    1
    50    86    87    1
    51    86    89    1
    52    89    90   ar
    53    90    91   ar
    54    91    92   ar
    55    92    93    1
    56    92    94   ar
    57    94    95   ar
    58    23    24    1
    59    24    25   am
    60    25    26    2
    61    25    27    1
    62    27    28    1
    63    28    29    1
    64    29    30    1
    65    29    31    1
    66    31    32    1
    67    32    33   am
    68    33    34    2
    69    33    35    1
    70    35    79    1
    71    79    80    1
    72    79    81    1
    73    35    36    1
    74    36    37   am
    75    37    38    2
    76    54    55   ar
    77    55    56   ar
    78    60    61   ar
    79    61    62   ar
    80    66    67   ar
    81    67    68   ar
    82    68    63   ar
    83    62    57   ar
    84    56    51   ar
    85    37     1    1
    86    16    10    1
    87    95    89   ar
    88    32    27    1
    89    49    50    1
    90     4    39    1
    91     6    40    1
    92     7    41    1
    93    12    42    1
    94    77    78    1
    95    20    43    1
    96    84    85    1
    97    87    88    1
    98    93    96    1
    99    24    44    1
   100    30    45    1
   101    81    82    1
   102    36    46    1
@<TRIPOS>MOLECULE
*****
 96 102 0 0 0
SMALL
GASTEIGER

@<TRIPOS>ATOM
      1 C          -2.3452    5.3526   26.2539 C.3     1  UNL1        0.1513
      2 C          -2.4805    5.9691   27.6147 C.3     1  UNL1        0.0625
      3 C          -2.1908    6.4497   29.0057 C.3     1  UNL1        0.1588
      4 O          -3.5299    7.0488   29.3187 O.3     1  UNL1       -0.3801
      5 C          -1.5020    6.7518   30.3035 C.3     1  UNL1        0.2151
      6 O          -2.6357    7.4409   31.0033 O.3     1  UNL1       -0.3654
      7 N          -0.4752    6.8484   31.3927 N.am    1  UNL1       -0.2797
      8 C           0.7983    6.7311   32.1766 C.2     1  UNL1        0.2447
      9 O           0.3502    7.4140   33.4347 O.2     1  UNL1       -0.2732
     10 C           2.2054    6.4101   32.5854 C.3     1  UNL1        0.1790
     11 C           1.9432    7.0571   33.9131 C.3     1  UNL1        0.1390
     12 O           0.6539    7.6893   34.3466 O.3     1  UNL1       -0.3822
     13 C           3.1969    6.9610   34.7311 C.3     1  UNL1        0.0489
     14 C           3.3813    7.4801   36.1262 C.3     1  UNL1        0.0043
     15 C           4.2338    6.2546   33.9090 C.3     1  UNL1        0.0964
     16 N           3.6210    5.9141   32.5829 N.am    1  UNL1       -0.2696
     17 C           4.9193    5.2871   32.1692 C.2     1  UNL1        0.2463
     18 O           5.6997    5.5397   33.4252 O.2     1  UNL1       -0.2730
     19 C           5.9852    4.5849   31.3812 C.3     1  UNL1        0.1759
     20 N           6.7236    3.8698   30.2889 N.am    1  UNL1       -0.2950
     21 C           7.0691    3.2053   28.9892 C.2     1  UNL1        0.2433
     22 O           8.4903    2.8372   29.2972 O.2     1  UNL1       -0.2732
     23 C           6.9911    2.6505   27.5978 C.3     1  UNL1        0.1785
     24 N           6.4964    2.2548   26.2382 N.am    1  UNL1       -0.2950
     25 C           5.6289    2.0532   25.0312 C.2     1  UNL1        0.2410
     26 O           6.6207    1.3417   24.1594 O.2     1  UNL1       -0.2733
     27 C           4.4657    2.0636   24.0840 C.3     1  UNL1        0.1543
     28 C           5.3107    1.3457   23.0739 C.3     1  UNL1        0.0602
     29 C           4.4775    1.1235   21.8465 C.3     1  UNL1        0.1324
     30 O           4.9256    0.4406   20.5884 O.3     1  UNL1       -0.3826
     31 C           3.1176    1.7043   22.0981 C.3     1  UNL1        0.1230
     32 N           3.1103    2.2853   23.4810 N.am    1  UNL1       -0.2690
     33 C           1.6830    2.6984   23.2756 C.2     1  UNL1        0.2464
     34 O           1.4986    2.1792   21.8803 O.2     1  UNL1       -0.2730
     35 C           0.3107    3.2662   23.4860 C.3     1  UNL1        0.1759
     36 N          -0.8848    3.9383   24.0935 N.am    1  UNL1       -0.2951
     37 C          -1.7971    4.6551   25.0444 C.2     1  UNL1        0.2408
     38 O          -3.0188    4.7191   24.1765 O.2     1  UNL1       -0.2733
     39 H          -3.5168    7.4192   30.2151 H       1  UNL1        0.2105
     40 H          -2.3512    7.7124   31.8900 H       1  UNL1        0.2123
     41 H          -1.0185    7.3196   32.0651 H       1  UNL1        0.1517
     42 H           0.7496    8.0331   35.2485 H       1  UNL1        0.2104
     43 H           7.5888    3.7582   30.7453 H       1  UNL1        0.1499
     44 H           7.3170    1.8273   25.9021 H       1  UNL1        0.1499
     45 H           4.1958    0.4285   19.9496 H       1  UNL1        0.2104
     46 H          -1.5081    3.8402   23.3379 H       1  UNL1        0.1499
     47 C          -4.9121    4.9843   26.4123 C.2     1  UNL1        0.2461
     48 O          -4.7089    4.0719   27.5854 O.2     1  UNL1       -0.2701
     49 N          -3.7303    5.6247   25.7465 N.am    1  UNL1       -0.2947
     50 H          -3.8637    6.2235   24.9766 H       1  UNL1        0.1501
     51 C          -9.0675    5.8004   24.8902 C.ar    1  UNL1        0.0000
     52 C          -8.0794    5.0784   24.0228 C.ar    1  UNL1        0.0001
     53 C          -6.6943    4.8064   24.5302 C.ar    1  UNL1        0.0045
     54 C          -6.2973    5.2564   25.9049 C.ar    1  UNL1        0.0534
     55 C          -7.2855    5.9783   26.7723 C.ar    1  UNL1        0.0045
     56 C          -8.6706    6.2503   26.2650 C.ar    1  UNL1        0.0001
     57 C         -13.2229    6.6165   23.3681 C.ar    1  UNL1        0.0000
     58 C         -12.0990    7.5450   23.0150 C.ar    1  UNL1        0.0000
     59 C         -10.7139    7.2729   23.5223 C.ar    1  UNL1        0.0000
     60 C         -10.4527    6.0724   24.3828 C.ar    1  UNL1        0.0000
     61 C         -11.5766    5.1439   24.7359 C.ar    1  UNL1        0.0000
     62 C         -12.9617    5.4160   24.2286 C.ar    1  UNL1        0.0000
     63 C         -17.3783    7.4327   21.8460 C.ar    1  UNL1        0.1386
     64 C         -17.1800    6.8847   23.2281 C.ar    1  UNL1        0.0369
     65 C         -15.7949    6.6126   23.7355 C.ar    1  UNL1        0.0031
     66 C         -14.6081    6.8886   22.8608 C.ar    1  UNL1        0.0002
     67 C         -14.8063    7.4366   21.4785 C.ar    1  UNL1        0.0031
     68 C         -16.1915    7.7086   20.9712 C.ar    1  UNL1        0.0369
     69 O         -18.7635    7.7047   21.3386 O.3     1  UNL1       -0.4755
     70 C         -19.6224    6.5724   20.8590 C.3     1  UNL1        0.2054
     71 C         -19.5965    5.2553   21.5765 C.3     1  UNL1        0.0473
     72 C         -18.7367    4.1385   21.0632 C.3     1  UNL1        0.0038
     73 C         -16.3606    4.1071   20.0129 C.3     1  UNL1        0.0000
     74 C         -17.8326    4.3672   19.8883 C.3     1  UNL1        0.0001
     75 C           7.0832    4.6281   32.4023 C.3     1  UNL1        0.1373
     76 C           8.3121    5.4495   32.1476 C.3     1  UNL1        0.0340
     77 O           6.9522    3.8499   33.6779 O.3     1  UNL1       -0.3823
     78 H           7.7431    3.9866   34.2226 H       1  UNL1        0.2104
     79 C          -0.2828    2.9163   22.1536 C.3     1  UNL1        0.1373
     80 C          -0.7819    4.0017   21.2465 C.3     1  UNL1        0.0340
     81 O          -0.3772    1.4809   21.7283 O.3     1  UNL1       -0.3823
     82 H          -0.0130    0.9127   22.4249 H       1  UNL1        0.2104
     83 C           8.3889    2.1171   27.4910 C.3     1  UNL1        0.1681
     84 O           9.4967    3.0073   27.0107 O.3     1  UNL1       -0.3795
     85 H           9.1412    3.8880   26.8133 H       1  UNL1        0.2105
     86 C           8.6792    0.6937   27.8644 C.3     1  UNL1        0.1615
     87 O           9.4610    0.3890   29.1078 O.3     1  UNL1       -0.3775
     88 H           9.5587   -0.5716   29.2011 H       1  UNL1        0.2109
     89 C           8.1877   -0.4251   26.9946 C.ar    1  UNL1        0.0069
     90 C           6.9866   -1.2236   27.4068 C.ar    1  UNL1        0.0012
     91 C           6.4951   -2.3424   26.5370 C.ar    1  UNL1        0.0364
     92 C           7.2048   -2.6628   25.2548 C.ar    1  UNL1        0.1337
     93 O           6.7133   -3.7817   24.3849 O.3     1  UNL1       -0.5055
     94 C           8.4058   -1.8644   24.8426 C.ar    1  UNL1        0.0364
     95 C           8.8973   -0.7456   25.7125 C.ar    1  UNL1        0.0012
     96 H           5.9630   -4.2804   24.6425 H       1  UNL1        0.2922
@<TRIPOS>BOND
     1    73    74    1
     2    74    72    1
     3    72    71    1
     4    71    70    1
     5    70    69    1
     6    69    63    1
     7    63    64   ar
     8    64    65   ar
     9    65    66   ar
    10    66    57    1
    11    57    58   ar
    12    58    59   ar
    13    59    60   ar
    14    60    51    1
    15    51    52   ar
    16    52    53   ar
    17    53    54   ar
    18    54    47    1
    19    47    48    2
    20    47    49   am
    21     1    49    1
    22     1     2    1
    23     2     3    1
    24     3     4    1
    25     3     5    1
    26     5     6    1
    27     5     7    1
    28     7     8   am
    29     8     9    2
    30    10     8    1
    31    10    11    1
    32    11    12    1
    33    11    13    1
    34    13    14    1
    35    13    15    1
    36    15    16    1
    37    16    17   am
    38    17    18    2
    39    17    19    1
    40    19    75    1
    41    75    76    1
    42    75    77    1
    43    19    20    1
    44    20    21   am
    45    21    22    2
    46    21    23    1
    47    23    83    1
    48    83    84    1
    49    83    86    1
    50    86    87    1
    51    86    89    1
    52    89    90   ar
    53    90    91   ar
    54    91    92   ar
    55    92    93    1
    56    92    94   ar
    57    94    95   ar
    58    23    24    1
    59    24    25   am
    60    25    26    2
    61    25    27    1
    62    27    28    1
    63    28    29    1
    64    29    30    1
    65    29    31    1
    66    31    32    1
    67    32    33   am
    68    33    34    2
    69    33    35    1
    70    35    79    1
    71    79    80    1
    72    79    81    1
    73    35    36    1
    74    36    37   am
    75    37    38    2
    76    54    55   ar
    77    55    56   ar
    78    60    61   ar
    79    61    62   ar
    80    66    67   ar
    81    67    68   ar
    82    68    63   ar
    83    62    57   ar
    84    56    51   ar
    85    37     1    1
    86    16    10    1
    87    95    89   ar
    88    32    27    1
    89    49    50    1
    90     4    39    1
    91     6    40    1
    92     7    41    1
    93    12    42    1
    94    77    78    1
    95    20    43    1
    96    84    85    1
    97    87    88    1
    98    93    96    1
    99    24    44    1
   100    30    45    1
   101    81    82    1
   102    36    46    1
@<TRIPOS>MOLECULE
*****
 96 102 0 0 0
SMALL
GASTEIGER

@<TRIPOS>ATOM
      1 C          -2.4311    5.2631   25.8636 C.3     1  UNL1        0.1513
      2 C          -2.5536    5.8819   27.2246 C.3     1  UNL1        0.0625
      3 C          -2.2481    6.3731   28.6085 C.3     1  UNL1        0.1588
      4 O          -3.5926    6.9474   28.9438 O.3     1  UNL1       -0.3801
      5 C          -1.5419    6.6932   29.8926 C.3     1  UNL1        0.2151
      6 O          -2.6759    7.3629   30.6106 O.3     1  UNL1       -0.3654
      7 N          -0.4976    6.8136   30.9626 N.am    1  UNL1       -0.2797
      8 C           0.7919    6.7237   31.7236 C.2     1  UNL1        0.2447
      9 O           0.3535    7.4025   32.9874 O.2     1  UNL1       -0.2732
     10 C           2.2121    6.4315   32.1078 C.3     1  UNL1        0.1790
     11 C           1.9616    7.0782   33.4379 C.3     1  UNL1        0.1390
     12 O           0.6684    7.6869   33.8927 O.3     1  UNL1       -0.3822
     13 C           3.2315    7.0093   34.2333 C.3     1  UNL1        0.0489
     14 C           3.4311    7.5370   35.6231 C.3     1  UNL1        0.0043
     15 C           4.2668    6.3199   33.3948 C.3     1  UNL1        0.0964
     16 N           3.6368    5.9629   32.0813 N.am    1  UNL1       -0.2696
     17 C           4.9393    5.3595   31.6461 C.2     1  UNL1        0.2463
     18 O           5.7373    5.6317   32.8869 O.2     1  UNL1       -0.2730
     19 C           6.0041    4.6750   30.8412 C.3     1  UNL1        0.1759
     20 N           6.7363    3.9703   29.7381 N.am    1  UNL1       -0.2950
     21 C           7.0711    3.3078   28.4345 C.2     1  UNL1        0.2433
     22 O           8.5044    2.9684   28.7179 O.2     1  UNL1       -0.2732
     23 C           6.9785    2.7465   27.0466 C.3     1  UNL1        0.1785
     24 N           6.4671    2.3363   25.6976 N.am    1  UNL1       -0.2950
     25 C           5.5819    2.1136   24.5072 C.2     1  UNL1        0.2410
     26 O           6.5713    1.4182   23.6199 O.2     1  UNL1       -0.2733
     27 C           4.4018    2.0981   23.5813 C.3     1  UNL1        0.1543
     28 C           5.2421    1.3928   22.5584 C.3     1  UNL1        0.0602
     29 C           4.3913    1.1502   21.3471 C.3     1  UNL1        0.1324
     30 O           4.8296    0.4714   20.0833 O.3     1  UNL1       -0.3826
     31 C           3.0251    1.7055   21.6214 C.3     1  UNL1        0.1230
     32 N           3.0316    2.2914   23.0023 N.am    1  UNL1       -0.2690
     33 C           1.5932    2.6761   22.8215 C.2     1  UNL1        0.2464
     34 O           1.3936    2.1484   21.4315 O.2     1  UNL1       -0.2730
     35 C           0.2141    3.2181   23.0549 C.3     1  UNL1        0.1759
     36 N          -0.9829    3.8693   23.6818 N.am    1  UNL1       -0.2951
     37 C          -1.8916    4.5718   24.6467 C.2     1  UNL1        0.2408
     38 O          -3.1298    4.6091   23.8009 O.2     1  UNL1       -0.2733
     39 H          -3.5705    7.3213   29.8386 H       1  UNL1        0.2105
     40 H          -2.3807    7.6430   31.4911 H       1  UNL1        0.2123
     41 H          -1.0376    7.2767   31.6432 H       1  UNL1        0.1517
     42 H           0.7737    8.0359   34.7916 H       1  UNL1        0.2104
     43 H           7.6116    3.8771   30.1791 H       1  UNL1        0.1499
     44 H           7.2896    1.9235   25.3481 H       1  UNL1        0.1499
     45 H           4.0888    0.4429   19.4579 H       1  UNL1        0.2104
     46 H          -1.6178    3.7564   22.9380 H       1  UNL1        0.1499
     47 C          -4.9920    5.2767   26.3011 C.2     1  UNL1        0.2461
     48 O          -4.7548    4.8035   27.7046 O.2     1  UNL1       -0.2701
     49 N          -3.8301    5.5065   25.3806 N.am    1  UNL1       -0.2947
     50 H          -3.9858    5.8171   24.4595 H       1  UNL1        0.1501
     51 C          -9.1892    6.0070   24.8521 C.ar    1  UNL1        0.0000
     52 C          -8.1134    5.6323   23.8762 C.ar    1  UNL1        0.0001
     53 C          -6.7144    5.3889   24.3593 C.ar    1  UNL1        0.0045
     54 C          -6.3911    5.5202   25.8181 C.ar    1  UNL1        0.0534
     55 C          -7.4669    5.8948   26.7940 C.ar    1  UNL1        0.0045
     56 C          -8.8660    6.1382   26.3110 C.ar    1  UNL1        0.0001
     57 C         -13.3865    6.7372   23.4031 C.ar    1  UNL1        0.0000
     58 C         -12.2900    7.6935   23.0380 C.ar    1  UNL1        0.0000
     59 C         -10.8909    7.4500   23.5210 C.ar    1  UNL1        0.0000
     60 C         -10.5884    6.2504   24.3691 C.ar    1  UNL1        0.0000
     61 C         -11.6849    5.2942   24.7342 C.ar    1  UNL1        0.0000
     62 C         -13.0840    5.5376   24.2512 C.ar    1  UNL1        0.0000
     63 C         -17.5838    7.4675   21.9541 C.ar    1  UNL1        0.1386
     64 C         -17.3298    7.1854   23.4052 C.ar    1  UNL1        0.0369
     65 C         -15.9307    6.9420   23.8882 C.ar    1  UNL1        0.0031
     66 C         -14.7857    6.9807   22.9201 C.ar    1  UNL1        0.0002
     67 C         -15.0396    7.2628   21.4689 C.ar    1  UNL1        0.0031
     68 C         -16.4388    7.5062   20.9859 C.ar    1  UNL1        0.0369
     69 O         -18.9829    7.7109   21.4711 O.3     1  UNL1       -0.4755
     70 C         -19.4409    7.1202   20.1706 C.3     1  UNL1        0.2054
     71 C         -20.4416    6.0029   20.1654 C.3     1  UNL1        0.0473
     72 C         -20.0240    4.6201   20.5699 C.3     1  UNL1        0.0038
     73 C         -18.8659    3.0597   22.2943 C.3     1  UNL1        0.0000
     74 C         -19.5297    4.3633   21.9626 C.3     1  UNL1        0.0001
     75 C           7.1194    4.7431   31.8420 C.3     1  UNL1        0.1373
     76 C           8.0730    5.9008   31.8244 C.3     1  UNL1        0.0340
     77 O           7.2810    3.6537   32.8603 O.3     1  UNL1       -0.3823
     78 H           8.0441    3.8503   33.4258 H       1  UNL1        0.2104
     79 C          -0.3965    2.8520   21.7346 C.3     1  UNL1        0.1373
     80 C          -0.9122    3.9258   20.8232 C.3     1  UNL1        0.0340
     81 O          -0.4914    1.4118   21.3259 O.3     1  UNL1       -0.3823
     82 H          -0.1154    0.8523   22.0234 H       1  UNL1        0.2104
     83 C           8.3843    2.2398   26.9162 C.3     1  UNL1        0.1681
     84 O           9.5247    3.2092   26.8164 O.3     1  UNL1       -0.3795
     85 H           9.1823    4.1160   26.8516 H       1  UNL1        0.2105
     86 C           8.6498    0.7638   26.8855 C.3     1  UNL1        0.1615
     87 O           9.5316    0.1824   25.8204 O.3     1  UNL1       -0.3775
     88 H           9.5982   -0.7774   25.9441 H       1  UNL1        0.2109
     89 C           8.0335   -0.1308   27.9198 C.ar    1  UNL1        0.0069
     90 C           6.5778   -0.4828   27.8356 C.ar    1  UNL1        0.0012
     91 C           5.9615   -1.3775   28.8699 C.ar    1  UNL1        0.0364
     92 C           6.8010   -1.9201   29.9884 C.ar    1  UNL1        0.1337
     93 O           6.1847   -2.8148   31.0227 O.3     1  UNL1       -0.5055
     94 C           8.2566   -1.5681   30.0725 C.ar    1  UNL1        0.0364
     95 C           8.8729   -0.6735   29.0382 C.ar    1  UNL1        0.0012
     96 H           5.2754   -3.0347   30.9702 H       1  UNL1        0.2922
@<TRIPOS>BOND
     1    73    74    1
     2    74    72    1
     3    72    71    1
     4    71    70    1
     5    70    69    1
     6    69    63    1
     7    63    64   ar
     8    64    65   ar
     9    65    66   ar
    10    66    57    1
    11    57    58   ar
    12    58    59   ar
    13    59    60   ar
    14    60    51    1
    15    51    52   ar
    16    52    53   ar
    17    53    54   ar
    18    54    47    1
    19    47    48    2
    20    47    49   am
    21     1    49    1
    22     1     2    1
    23     2     3    1
    24     3     4    1
    25     3     5    1
    26     5     6    1
    27     5     7    1
    28     7     8   am
    29     8     9    2
    30    10     8    1
    31    10    11    1
    32    11    12    1
    33    11    13    1
    34    13    14    1
    35    13    15    1
    36    15    16    1
    37    16    17   am
    38    17    18    2
    39    17    19    1
    40    19    75    1
    41    75    76    1
    42    75    77    1
    43    19    20    1
    44    20    21   am
    45    21    22    2
    46    21    23    1
    47    23    83    1
    48    83    84    1
    49    83    86    1
    50    86    87    1
    51    86    89    1
    52    89    90   ar
    53    90    91   ar
    54    91    92   ar
    55    92    93    1
    56    92    94   ar
    57    94    95   ar
    58    23    24    1
    59    24    25   am
    60    25    26    2
    61    25    27    1
    62    27    28    1
    63    28    29    1
    64    29    30    1
    65    29    31    1
    66    31    32    1
    67    32    33   am
    68    33    34    2
    69    33    35    1
    70    35    79    1
    71    79    80    1
    72    79    81    1
    73    35    36    1
    74    36    37   am
    75    37    38    2
    76    54    55   ar
    77    55    56   ar
    78    60    61   ar
    79    61    62   ar
    80    66    67   ar
    81    67    68   ar
    82    68    63   ar
    83    62    57   ar
    84    56    51   ar
    85    37     1    1
    86    16    10    1
    87    95    89   ar
    88    32    27    1
    89    49    50    1
    90     4    39    1
    91     6    40    1
    92     7    41    1
    93    12    42    1
    94    77    78    1
    95    20    43    1
    96    84    85    1
    97    87    88    1
    98    93    96    1
    99    24    44    1
   100    30    45    1
   101    81    82    1
   102    36    46    1
@<TRIPOS>MOLECULE
*****
 96 102 0 0 0
SMALL
GASTEIGER

@<TRIPOS>ATOM
      1 C          -2.3525    5.0000   24.7402 C.3     1  UNL1        0.1513
      2 C          -2.1942    4.4272   23.3629 C.3     1  UNL1        0.0625
      3 C          -1.6148    3.8044   22.1275 C.3     1  UNL1        0.1588
      4 O          -2.8545    3.7869   21.2833 O.3     1  UNL1       -0.3801
      5 C          -0.6658    3.1867   21.1436 C.3     1  UNL1        0.2151
      6 O          -1.6227    2.9851   20.0063 O.3     1  UNL1       -0.3654
      7 N           0.5684    2.6290   20.4989 N.am    1  UNL1       -0.2797
      8 C           1.9782    2.1810   20.2504 C.2     1  UNL1        0.2447
      9 O           1.8094    1.6797   18.8467 O.2     1  UNL1       -0.2732
     10 C           3.4384    1.8824   20.4204 C.3     1  UNL1        0.1790
     11 C           3.4658    1.3350   19.0241 C.3     1  UNL1        0.1390
     12 O           2.3003    1.2615   18.0828 O.3     1  UNL1       -0.3822
     13 C           4.8635    0.8741   18.7344 C.3     1  UNL1        0.0489
     14 C           5.3411    0.2586   17.4526 C.3     1  UNL1        0.0043
     15 C           5.6999    1.1366   19.9516 C.3     1  UNL1        0.0964
     16 N           4.8191    1.7598   20.9936 N.am    1  UNL1       -0.2696
     17 C           5.9976    1.8240   21.9192 C.2     1  UNL1        0.2463
     18 O           7.0270    1.2163   21.0130 O.2     1  UNL1       -0.2730
     19 C           6.8695    2.0694   23.1150 C.3     1  UNL1        0.1759
     20 N           7.3569    2.4741   24.4745 N.am    1  UNL1       -0.2950
     21 C           7.4168    3.0022   25.8773 C.2     1  UNL1        0.2433
     22 O           8.8692    2.7457   26.1509 O.2     1  UNL1       -0.2732
     23 C           7.0437    3.6068   27.1984 C.3     1  UNL1        0.1785
     24 N           6.2710    4.2340   28.3205 N.am    1  UNL1       -0.2950
     25 C           5.1670    4.8283   29.1440 C.2     1  UNL1        0.2410
     26 O           5.9488    5.1162   30.3914 O.2     1  UNL1       -0.2733
     27 C           3.8301    5.3369   29.5957 C.3     1  UNL1        0.1543
     28 C           4.4391    5.6970   30.9184 C.3     1  UNL1        0.0602
     29 C           3.3642    6.2970   31.7755 C.3     1  UNL1        0.1324
     30 O           3.5330    6.7983   33.1792 O.3     1  UNL1       -0.3826
     31 C           2.0910    6.3078   30.9826 C.3     1  UNL1        0.1230
     32 N           2.3789    5.7144   29.6354 N.am    1  UNL1       -0.2690
     33 C           0.9425    5.9274   29.2596 C.2     1  UNL1        0.2464
     34 O           0.4648    6.5428   30.5415 O.2     1  UNL1       -0.2730
     35 C          -0.3516    5.9569   28.5017 C.3     1  UNL1        0.1759
     36 N          -1.3885    5.8004   27.4291 N.am    1  UNL1       -0.2951
     37 C          -2.0758    5.4716   26.1369 C.2     1  UNL1        0.2408
     38 O          -3.4529    5.9512   26.4880 O.2     1  UNL1       -0.2733
     39 H          -2.6506    3.4007   20.4172 H       1  UNL1        0.2105
     40 H          -1.1559    2.5794   19.2590 H       1  UNL1        0.2123
     41 H           0.1818    2.3877   19.6262 H       1  UNL1        0.1517
     42 H           2.5861    0.8656   17.2446 H       1  UNL1        0.2104
     43 H           8.2984    2.2024   24.3797 H       1  UNL1        0.1499
     44 H           7.0000    4.3067   28.9781 H       1  UNL1        0.1499
     45 H           2.6846    7.1365   33.5059 H       1  UNL1        0.2104
     46 H          -2.1579    6.1795   27.9123 H       1  UNL1        0.1499
     47 C          -4.8410    4.2635   24.8617 C.2     1  UNL1        0.2461
     48 O          -4.4102    2.8490   25.1138 O.2     1  UNL1       -0.2701
     49 N          -3.8122    5.3390   24.6749 N.am    1  UNL1       -0.2947
     50 H          -4.0950    6.2673   24.5094 H       1  UNL1        0.1501
     51 C          -9.2203    5.2803   24.6656 C.ar    1  UNL1        0.0000
     52 C          -8.6369    4.2883   23.7035 C.ar    1  UNL1        0.0001
     53 C          -7.1771    3.9494   23.7690 C.ar    1  UNL1        0.0045
     54 C          -6.3008    4.6025   24.7964 C.ar    1  UNL1        0.0534
     55 C          -6.8842    5.5945   25.7585 C.ar    1  UNL1        0.0045
     56 C          -8.3439    5.9334   25.6931 C.ar    1  UNL1        0.0001
     57 C         -13.5994    6.2973   24.4697 C.ar    1  UNL1        0.0000
     58 C         -12.5888    7.2088   23.8389 C.ar    1  UNL1        0.0000
     59 C         -11.1291    6.8698   23.9042 C.ar    1  UNL1        0.0000
     60 C         -10.6801    5.6193   24.6003 C.ar    1  UNL1        0.0000
     61 C         -11.6907    4.7078   25.2310 C.ar    1  UNL1        0.0000
     62 C         -13.1504    5.0468   25.1657 C.ar    1  UNL1        0.0000
     63 C         -17.9787    7.3141   24.2736 C.ar    1  UNL1        0.1386
     64 C         -17.2119    7.5422   25.5424 C.ar    1  UNL1        0.0369
     65 C         -15.7522    7.2033   25.6077 C.ar    1  UNL1        0.0031
     66 C         -15.0592    6.6362   24.4043 C.ar    1  UNL1        0.0002
     67 C         -15.8261    6.4081   23.1354 C.ar    1  UNL1        0.0031
     68 C         -17.2859    6.7471   23.0701 C.ar    1  UNL1        0.0369
     69 O         -19.4385    7.6531   24.2082 O.3     1  UNL1       -0.4755
     70 C         -20.4611    6.5572   24.1518 C.3     1  UNL1        0.2054
     71 C         -20.2700    5.4005   23.2162 C.3     1  UNL1        0.0473
     72 C         -20.2141    5.6347   21.7357 C.3     1  UNL1        0.0038
     73 C         -20.4128    3.9946   19.7305 C.3     1  UNL1        0.0000
     74 C         -19.6013    4.6028   20.8358 C.3     1  UNL1        0.0001
     75 C           8.1586    1.5348   22.5652 C.3     1  UNL1        0.1373
     76 C           8.6039    0.1457   22.9142 C.3     1  UNL1        0.0340
     77 O           9.0024    2.3894   21.6665 O.3     1  UNL1       -0.3823
     78 H           9.7949    1.8964   21.4021 H       1  UNL1        0.2104
     79 C          -1.2150    6.5811   29.5576 C.3     1  UNL1        0.1373
     80 C          -2.1397    7.7071   29.2014 C.3     1  UNL1        0.0340
     81 O          -1.1535    6.0793   30.9699 O.3     1  UNL1       -0.3823
     82 H          -0.5109    5.3551   31.0280 H       1  UNL1        0.2104
     83 C           8.3849    3.5305   27.8659 C.3     1  UNL1        0.1681
     84 O           9.5078    4.4066   27.3951 O.3     1  UNL1       -0.3795
     85 H           9.2009    4.9575   26.6580 H       1  UNL1        0.2105
     86 C           8.6032    2.5783   29.0040 C.3     1  UNL1        0.1615
     87 O           9.3243    3.0361   30.2371 O.3     1  UNL1       -0.3775
     88 H           9.3796    2.3033   30.8702 H       1  UNL1        0.2109
     89 C           8.1005    1.1682   28.9092 C.ar    1  UNL1        0.0069
     90 C           6.7394    0.8203   29.4348 C.ar    1  UNL1        0.0012
     91 C           6.2367   -0.5898   29.3400 C.ar    1  UNL1        0.0364
     92 C           7.0953   -1.6520   28.7197 C.ar    1  UNL1        0.1337
     93 O           6.5926   -3.0621   28.6249 O.3     1  UNL1       -0.5055
     94 C           8.4564   -1.3040   28.1942 C.ar    1  UNL1        0.0364
     95 C           8.9590    0.1060   28.2889 C.ar    1  UNL1        0.0012
     96 H           5.7423   -3.2795   28.9532 H       1  UNL1        0.2922
@<TRIPOS>BOND
     1    73    74    1
     2    74    72    1
     3    72    71    1
     4    71    70    1
     5    70    69    1
     6    69    63    1
     7    63    64   ar
     8    64    65   ar
     9    65    66   ar
    10    66    57    1
    11    57    58   ar
    12    58    59   ar
    13    59    60   ar
    14    60    51    1
    15    51    52   ar
    16    52    53   ar
    17    53    54   ar
    18    54    47    1
    19    47    48    2
    20    47    49   am
    21     1    49    1
    22     1     2    1
    23     2     3    1
    24     3     4    1
    25     3     5    1
    26     5     6    1
    27     5     7    1
    28     7     8   am
    29     8     9    2
    30    10     8    1
    31    10    11    1
    32    11    12    1
    33    11    13    1
    34    13    14    1
    35    13    15    1
    36    15    16    1
    37    16    17   am
    38    17    18    2
    39    17    19    1
    40    19    75    1
    41    75    76    1
    42    75    77    1
    43    19    20    1
    44    20    21   am
    45    21    22    2
    46    21    23    1
    47    23    83    1
    48    83    84    1
    49    83    86    1
    50    86    87    1
    51    86    89    1
    52    89    90   ar
    53    90    91   ar
    54    91    92   ar
    55    92    93    1
    56    92    94   ar
    57    94    95   ar
    58    23    24    1
    59    24    25   am
    60    25    26    2
    61    25    27    1
    62    27    28    1
    63    28    29    1
    64    29    30    1
    65    29    31    1
    66    31    32    1
    67    32    33   am
    68    33    34    2
    69    33    35    1
    70    35    79    1
    71    79    80    1
    72    79    81    1
    73    35    36    1
    74    36    37   am
    75    37    38    2
    76    54    55   ar
    77    55    56   ar
    78    60    61   ar
    79    61    62   ar
    80    66    67   ar
    81    67    68   ar
    82    68    63   ar
    83    62    57   ar
    84    56    51   ar
    85    37     1    1
    86    16    10    1
    87    95    89   ar
    88    32    27    1
    89    49    50    1
    90     4    39    1
    91     6    40    1
    92     7    41    1
    93    12    42    1
    94    77    78    1
    95    20    43    1
    96    84    85    1
    97    87    88    1
    98    93    96    1
    99    24    44    1
   100    30    45    1
   101    81    82    1
   102    36    46    1
@<TRIPOS>MOLECULE
*****
 96 102 0 0 0
SMALL
GASTEIGER

@<TRIPOS>ATOM
      1 C           3.1639    3.2772   28.5990 C.3     1  UNL1        0.1513
      2 C           2.0132    4.1937   28.3055 C.3     1  UNL1        0.0625
      3 C           0.9370    4.9615   27.5969 C.3     1  UNL1        0.1588
      4 O           0.3668    5.6892   28.7781 O.3     1  UNL1       -0.3801
      5 C           0.0307    5.5124   26.5362 C.3     1  UNL1        0.2151
      6 O          -0.8097    6.4043   27.4012 O.3     1  UNL1       -0.3654
      7 N          -0.6252    5.7974   25.2176 N.am    1  UNL1       -0.2797
      8 C          -0.9722    5.7913   23.7583 C.2     1  UNL1        0.2447
      9 O          -2.1115    6.7663   23.7954 O.2     1  UNL1       -0.2732
     10 C          -0.9797    5.4944   22.2880 C.3     1  UNL1        0.1790
     11 C          -2.1327    6.4401   22.1259 C.3     1  UNL1        0.1390
     12 O          -2.7904    7.2246   23.2221 O.3     1  UNL1       -0.3822
     13 C          -2.5125    6.4634   20.6749 C.3     1  UNL1        0.0489
     14 C          -3.6167    7.2754   20.0655 C.3     1  UNL1        0.0043
     15 C          -1.5942    5.5323   19.9404 C.3     1  UNL1        0.0964
     16 N          -0.6469    4.9334   20.9373 N.am    1  UNL1       -0.2696
     17 C          -0.0034    4.1579   19.8262 C.2     1  UNL1        0.2463
     18 O          -0.8539    4.6460   18.6911 O.2     1  UNL1       -0.2730
     19 C           0.8937    3.2369   19.0534 C.3     1  UNL1        0.1759
     20 N           1.9644    2.2523   18.6877 N.am    1  UNL1       -0.2950
     21 C           3.1140    1.2914   18.7615 C.2     1  UNL1        0.2433
     22 O           3.1927    0.9251   17.3090 O.2     1  UNL1       -0.2732
     23 C           4.2400    0.4398   19.2682 C.3     1  UNL1        0.1785
     24 N           5.2424   -0.2270   20.1628 N.am    1  UNL1       -0.2950
     25 C           6.0323   -0.6497   21.3659 C.2     1  UNL1        0.2410
     26 O           6.9810   -1.5946   20.6897 O.2     1  UNL1       -0.2733
     27 C           6.5395   -0.7907   22.7705 C.3     1  UNL1        0.1543
     28 C           7.5676   -1.7654   22.2775 C.3     1  UNL1        0.0602
     29 C           8.3823   -2.2145   23.4542 C.3     1  UNL1        0.1324
     30 O           9.5215   -3.1895   23.4172 O.3     1  UNL1       -0.3826
     31 C           7.8576   -1.5175   24.6744 C.3     1  UNL1        0.1230
     32 N           6.7187   -0.6375   24.2519 N.am    1  UNL1       -0.2690
     33 C           6.5542   -0.2037   25.6783 C.2     1  UNL1        0.2464
     34 O           7.6585   -1.0158   26.2877 O.2     1  UNL1       -0.2730
     35 C           6.0606    0.4721   26.9231 C.3     1  UNL1        0.1759
     36 N           5.2816    1.3299   27.8757 N.am    1  UNL1       -0.2951
     37 C           4.2865    2.2935   28.4514 C.2     1  UNL1        0.2408
     38 O           4.7149    2.2258   29.8873 O.2     1  UNL1       -0.2733
     39 H          -0.3673    6.2526   28.4872 H       1  UNL1        0.2105
     40 H          -1.4724    6.8542   26.8542 H       1  UNL1        0.2123
     41 H          -1.3050    6.4385   25.5274 H       1  UNL1        0.1517
     42 H          -3.5098    7.7588   22.8506 H       1  UNL1        0.2104
     43 H           1.7912    2.1998   17.7199 H       1  UNL1        0.1499
     44 H           5.7105   -0.7645   19.4836 H       1  UNL1        0.1499
     45 H           9.8764   -3.3063   24.3123 H       1  UNL1        0.2104
     46 H           5.7574    1.0970   28.7056 H       1  UNL1        0.1499
     47 C           4.0088    4.6871   30.6110 C.2     1  UNL1        0.2461
     48 O           4.6664    5.6457   29.6632 O.2     1  UNL1       -0.2701
     49 N           3.2575    3.5028   30.0789 N.am    1  UNL1       -0.2947
     50 H           2.8258    2.8736   30.7011 H       1  UNL1        0.1501
     51 C           4.2896    5.3642   35.0509 C.ar    1  UNL1        0.0000
     52 C           3.9381    6.5025   34.1394 C.ar    1  UNL1        0.0001
     53 C           3.8445    6.2767   32.6595 C.ar    1  UNL1        0.0045
     54 C           4.1024    4.9128   32.0911 C.ar    1  UNL1        0.0534
     55 C           4.4539    3.7745   33.0026 C.ar    1  UNL1        0.0045
     56 C           4.5476    4.0002   34.4825 C.ar    1  UNL1        0.0001
     57 C           4.5705    6.0412   39.4908 C.ar    1  UNL1        0.0000
     58 C           3.7329    6.9535   38.6445 C.ar    1  UNL1        0.0000
     59 C           3.6393    6.7279   37.1646 C.ar    1  UNL1        0.0000
     60 C           4.3832    5.5899   36.5310 C.ar    1  UNL1        0.0000
     61 C           5.2208    4.6775   37.3773 C.ar    1  UNL1        0.0000
     62 C           5.3144    4.9032   38.8572 C.ar    1  UNL1        0.0000
     63 C           4.8514    6.7183   43.9307 C.ar    1  UNL1        0.1386
     64 C           4.0323    5.5813   43.3958 C.ar    1  UNL1        0.0369
     65 C           3.9386    5.3556   41.9159 C.ar    1  UNL1        0.0031
     66 C           4.6641    6.2669   40.9708 C.ar    1  UNL1        0.0002
     67 C           5.4833    7.4040   41.5057 C.ar    1  UNL1        0.0031
     68 C           5.5769    7.6296   42.9858 C.ar    1  UNL1        0.0369
     69 O           4.9451    6.9439   45.4107 O.3     1  UNL1       -0.4755
     70 C           6.1012    7.7110   45.9808 C.3     1  UNL1        0.2054
     71 C           7.4889    7.4694   45.4651 C.3     1  UNL1        0.0473
     72 C           8.1636    6.1533   45.7157 C.3     1  UNL1        0.0038
     73 C           9.2061    5.6786   43.3839 C.3     1  UNL1        0.0000
     74 C           9.3365    5.7402   44.8769 C.3     1  UNL1        0.0001
     75 C           0.3105    3.4505   17.6880 C.3     1  UNL1        0.1373
     76 C           0.9478    4.4274   16.7448 C.3     1  UNL1        0.0340
     77 O          -0.9098    2.6874   17.2658 O.3     1  UNL1       -0.3823
     78 H          -1.1538    2.9419   16.3621 H       1  UNL1        0.2104
     79 C           7.0176   -0.1384   27.9036 C.3     1  UNL1        0.1373
     80 C           8.2945    0.5702   28.2460 C.3     1  UNL1        0.0340
     81 O           6.6977   -1.4578   28.5416 O.3     1  UNL1       -0.3823
     82 H           5.8424   -1.7767   28.2135 H       1  UNL1        0.2104
     83 C           4.6544   -0.1804   17.9668 C.3     1  UNL1        0.1681
     84 O           4.3459    0.5138   16.6733 O.3     1  UNL1       -0.3795
     85 H           3.8791    1.3443   16.8554 H       1  UNL1        0.2105
     86 C           5.3772   -1.4947   17.9588 C.3     1  UNL1        0.1615
     87 O           6.7404   -1.5971   17.3411 O.3     1  UNL1       -0.3775
     88 H           7.0634   -2.5084   17.4197 H       1  UNL1        0.2109
     89 C           4.7371   -2.7066   18.5683 C.ar    1  UNL1        0.0069
     90 C           3.2427   -2.8341   18.5910 C.ar    1  UNL1        0.0012
     91 C           2.6026   -4.0460   19.2005 C.ar    1  UNL1        0.0364
     92 C           3.4570   -5.1304   19.7873 C.ar    1  UNL1        0.1337
     93 O           2.8169   -6.3424   20.3969 O.3     1  UNL1       -0.5055
     94 C           4.9513   -5.0028   19.7646 C.ar    1  UNL1        0.0364
     95 C           5.5914   -3.7909   19.1551 C.ar    1  UNL1        0.0012
     96 H           1.8834   -6.4221   20.4110 H       1  UNL1        0.2922
@<TRIPOS>BOND
     1    73    74    1
     2    74    72    1
     3    72    71    1
     4    71    70    1
     5    70    69    1
     6    69    63    1
     7    63    64   ar
     8    64    65   ar
     9    65    66   ar
    10    66    57    1
    11    57    58   ar
    12    58    59   ar
    13    59    60   ar
    14    60    51    1
    15    51    52   ar
    16    52    53   ar
    17    53    54   ar
    18    54    47    1
    19    47    48    2
    20    47    49   am
    21     1    49    1
    22     1     2    1
    23     2     3    1
    24     3     4    1
    25     3     5    1
    26     5     6    1
    27     5     7    1
    28     7     8   am
    29     8     9    2
    30    10     8    1
    31    10    11    1
    32    11    12    1
    33    11    13    1
    34    13    14    1
    35    13    15    1
    36    15    16    1
    37    16    17   am
    38    17    18    2
    39    17    19    1
    40    19    75    1
    41    75    76    1
    42    75    77    1
    43    19    20    1
    44    20    21   am
    45    21    22    2
    46    21    23    1
    47    23    83    1
    48    83    84    1
    49    83    86    1
    50    86    87    1
    51    86    89    1
    52    89    90   ar
    53    90    91   ar
    54    91    92   ar
    55    92    93    1
    56    92    94   ar
    57    94    95   ar
    58    23    24    1
    59    24    25   am
    60    25    26    2
    61    25    27    1
    62    27    28    1
    63    28    29    1
    64    29    30    1
    65    29    31    1
    66    31    32    1
    67    32    33   am
    68    33    34    2
    69    33    35    1
    70    35    79    1
    71    79    80    1
    72    79    81    1
    73    35    36    1
    74    36    37   am
    75    37    38    2
    76    54    55   ar
    77    55    56   ar
    78    60    61   ar
    79    61    62   ar
    80    66    67   ar
    81    67    68   ar
    82    68    63   ar
    83    62    57   ar
    84    56    51   ar
    85    37     1    1
    86    16    10    1
    87    95    89   ar
    88    32    27    1
    89    49    50    1
    90     4    39    1
    91     6    40    1
    92     7    41    1
    93    12    42    1
    94    77    78    1
    95    20    43    1
    96    84    85    1
    97    87    88    1
    98    93    96    1
    99    24    44    1
   100    30    45    1
   101    81    82    1
   102    36    46    1
@<TRIPOS>MOLECULE
*****
 96 102 0 0 0
SMALL
GASTEIGER

@<TRIPOS>ATOM
      1 C          -2.7413    5.6440   22.0063 C.3     1  UNL1        0.1513
      2 C          -2.1093    5.5336   20.6504 C.3     1  UNL1        0.0625
      3 C          -1.1046    5.4279   19.5416 C.3     1  UNL1        0.1588
      4 O          -2.0553    5.3805   18.3823 O.3     1  UNL1       -0.3801
      5 C           0.1834    5.3364   18.7783 C.3     1  UNL1        0.2151
      6 O          -0.3833    5.2617   17.3915 O.3     1  UNL1       -0.3654
      7 N           1.6404    5.2671   18.4284 N.am    1  UNL1       -0.2797
      8 C           3.1368    5.2262   18.5229 C.2     1  UNL1        0.2447
      9 O           3.4504    5.1187   17.0600 O.2     1  UNL1       -0.2732
     10 C           4.5398    5.2174   19.0536 C.3     1  UNL1        0.1790
     11 C           5.0473    5.1075   17.6463 C.3     1  UNL1        0.1390
     12 O           4.2044    5.0514   16.4069 O.3     1  UNL1       -0.3822
     13 C           6.5459    5.0636   17.6962 C.3     1  UNL1        0.0489
     14 C           7.4646    4.9558   16.5154 C.3     1  UNL1        0.0043
     15 C           6.9644    5.1463   19.1342 C.3     1  UNL1        0.0964
     16 N           5.7247    5.2414   19.9731 N.am    1  UNL1       -0.2696
     17 C           6.5860    5.2961   21.1999 C.2     1  UNL1        0.2463
     18 O           7.9278    5.2094   20.5350 O.2     1  UNL1       -0.2730
     19 C           7.0475    5.3766   22.6249 C.3     1  UNL1        0.1759
     20 N           7.0680    5.4758   24.1214 N.am    1  UNL1       -0.2950
     21 C           6.6457    5.5849   25.5567 C.2     1  UNL1        0.2433
     22 O           8.0053    5.5843   26.1904 O.2     1  UNL1       -0.2732
     23 C           5.8181    5.6942   26.8029 C.3     1  UNL1        0.1785
     24 N           4.6589    5.7939   27.7496 N.am    1  UNL1       -0.2950
     25 C           3.2709    5.8752   28.3124 C.2     1  UNL1        0.2410
     26 O           3.6245    5.9611   29.7676 O.2     1  UNL1       -0.2733
     27 C           1.7775    5.9309   28.4416 C.3     1  UNL1        0.1543
     28 C           1.9323    6.0254   29.9306 C.3     1  UNL1        0.0602
     29 C           0.5619    6.1089   30.5347 C.3     1  UNL1        0.1324
     30 O           0.2482    6.2164   31.9976 O.3     1  UNL1       -0.3826
     31 C          -0.4399    6.0660   29.4190 C.3     1  UNL1        0.1230
     32 N           0.3114    5.9560   28.1254 N.am    1  UNL1       -0.2690
     33 C          -0.9971    5.9483   27.3921 C.2     1  UNL1        0.2464
     34 O          -1.9158    6.0561   28.5730 O.2     1  UNL1       -0.2730
     35 C          -2.0318    5.9085   26.3069 C.3     1  UNL1        0.1759
     36 N          -2.7007    5.8402   24.9660 N.am    1  UNL1       -0.2951
     37 C          -2.9444    5.7493   23.4887 C.2     1  UNL1        0.2408
     38 O          -4.4435    5.7977   23.5061 O.2     1  UNL1       -0.2733
     39 H          -1.5534    5.3095   17.5553 H       1  UNL1        0.2105
     40 H           0.3407    5.1960   16.7494 H       1  UNL1        0.2123
     41 H           1.5534    5.2045   17.4497 H       1  UNL1        0.1517
     42 H           4.7786    4.9813   15.6283 H       1  UNL1        0.2104
     43 H           8.0429    5.4541   24.2566 H       1  UNL1        0.1499
     44 H           5.1625    5.8344   28.5945 H       1  UNL1        0.1499
     45 H          -0.7132    6.2549   32.1201 H       1  UNL1        0.2104
     46 H          -3.6370    5.8897   25.2664 H       1  UNL1        0.1499
     47 C          -4.6570    6.6800   20.5899 C.2     1  UNL1        0.2461
     48 O          -3.6957    7.6821   20.0226 O.2     1  UNL1       -0.2701
     49 N          -4.1798    5.6610   21.5817 N.am    1  UNL1       -0.2947
     50 H          -4.8107    5.0033   21.9540 H       1  UNL1        0.1501
     51 C          -8.9727    6.7313   19.3161 C.ar    1  UNL1        0.0000
     52 C          -8.4833    7.7051   20.3468 C.ar    1  UNL1        0.0001
     53 C          -7.0447    7.6879   20.7713 C.ar    1  UNL1        0.0045
     54 C          -6.0956    6.6971   20.1652 C.ar    1  UNL1        0.0534
     55 C          -6.5850    5.7233   19.1346 C.ar    1  UNL1        0.0045
     56 C          -8.0235    5.7404   18.7100 C.ar    1  UNL1        0.0001
     57 C         -13.2883    6.7824   18.0423 C.ar    1  UNL1        0.0000
     58 C         -12.2972    5.9356   17.3001 C.ar    1  UNL1        0.0000
     59 C         -10.8587    5.9186   17.7247 C.ar    1  UNL1        0.0000
     60 C         -10.4113    6.7483   18.8915 C.ar    1  UNL1        0.0000
     61 C         -11.4024    7.5950   19.6337 C.ar    1  UNL1        0.0000
     62 C         -12.8409    7.6121   19.2091 C.ar    1  UNL1        0.0000
     63 C         -17.6040    6.8334   16.7686 C.ar    1  UNL1        0.1386
     64 C         -16.5808    7.5978   15.9820 C.ar    1  UNL1        0.0369
     65 C         -15.1423    7.5808   16.4066 C.ar    1  UNL1        0.0031
     66 C         -14.7269    6.7994   17.6177 C.ar    1  UNL1        0.0002
     67 C         -15.7501    6.0350   18.4043 C.ar    1  UNL1        0.0031
     68 C         -17.1887    6.0520   17.9797 C.ar    1  UNL1        0.0369
     69 O         -19.0426    6.8505   16.3440 O.3     1  UNL1       -0.4755
     70 C         -20.1105    6.3961   17.2943 C.3     1  UNL1        0.2054
     71 C         -20.3351    4.9311   17.5252 C.3     1  UNL1        0.0473
     72 C         -20.0164    3.9435   16.4421 C.3     1  UNL1        0.0038
     73 C         -18.8202    2.3014   18.0613 C.3     1  UNL1        0.0000
     74 C         -18.9999    2.8673   16.6839 C.3     1  UNL1        0.0001
     75 C           8.5268    5.3140   22.3847 C.3     1  UNL1        0.1373
     76 C           9.3371    6.5761   22.3625 C.3     1  UNL1        0.0340
     77 O           9.1959    3.9893   22.1668 O.3     1  UNL1       -0.3823
     78 H          10.1460    4.1259   22.0274 H       1  UNL1        0.2104
     79 C          -3.2589    6.0044   27.1642 C.3     1  UNL1        0.1373
     80 C          -3.7918    7.3485   27.5634 C.3     1  UNL1        0.0340
     81 O          -3.9531    4.7561   27.6222 O.3     1  UNL1       -0.3823
     82 H          -3.4832    3.9802   27.2786 H       1  UNL1        0.2104
     83 C           6.9310    5.7262   27.8082 C.3     1  UNL1        0.1681
     84 O           7.5599    7.0336   28.1894 O.3     1  UNL1       -0.3795
     85 H           7.1334    7.7530   27.6980 H       1  UNL1        0.2105
     86 C           7.4149    4.4510   28.4323 C.3     1  UNL1        0.1615
     87 O           8.7650    4.4002   29.0842 O.3     1  UNL1       -0.3775
     88 H           8.9215    3.5093   29.4346 H       1  UNL1        0.2109
     89 C           6.5490    3.2265   28.4046 C.ar    1  UNL1        0.0069
     90 C           5.6352    2.9279   29.5561 C.ar    1  UNL1        0.0012
     91 C           4.7692    1.7034   29.5284 C.ar    1  UNL1        0.0364
     92 C           4.8171    0.7775   28.3492 C.ar    1  UNL1        0.1337
     93 O           3.9511   -0.4470   28.3215 O.3     1  UNL1       -0.5055
     94 C           5.7309    1.0761   27.1978 C.ar    1  UNL1        0.0364
     95 C           6.5968    2.3006   27.2255 C.ar    1  UNL1        0.0012
     96 H           3.3803   -0.6336   29.0407 H       1  UNL1        0.2922
@<TRIPOS>BOND
     1    73    74    1
     2    74    72    1
     3    72    71    1
     4    71    70    1
     5    70    69    1
     6    69    63    1
     7    63    64   ar
     8    64    65   ar
     9    65    66   ar
    10    66    57    1
    11    57    58   ar
    12    58    59   ar
    13    59    60   ar
    14    60    51    1
    15    51    52   ar
    16    52    53   ar
    17    53    54   ar
    18    54    47    1
    19    47    48    2
    20    47    49   am
    21     1    49    1
    22     1     2    1
    23     2     3    1
    24     3     4    1
    25     3     5    1
    26     5     6    1
    27     5     7    1
    28     7     8   am
    29     8     9    2
    30    10     8    1
    31    10    11    1
    32    11    12    1
    33    11    13    1
    34    13    14    1
    35    13    15    1
    36    15    16    1
    37    16    17   am
    38    17    18    2
    39    17    19    1
    40    19    75    1
    41    75    76    1
    42    75    77    1
    43    19    20    1
    44    20    21   am
    45    21    22    2
    46    21    23    1
    47    23    83    1
    48    83    84    1
    49    83    86    1
    50    86    87    1
    51    86    89    1
    52    89    90   ar
    53    90    91   ar
    54    91    92   ar
    55    92    93    1
    56    92    94   ar
    57    94    95   ar
    58    23    24    1
    59    24    25   am
    60    25    26    2
    61    25    27    1
    62    27    28    1
    63    28    29    1
    64    29    30    1
    65    29    31    1
    66    31    32    1
    67    32    33   am
    68    33    34    2
    69    33    35    1
    70    35    79    1
    71    79    80    1
    72    79    81    1
    73    35    36    1
    74    36    37   am
    75    37    38    2
    76    54    55   ar
    77    55    56   ar
    78    60    61   ar
    79    61    62   ar
    80    66    67   ar
    81    67    68   ar
    82    68    63   ar
    83    62    57   ar
    84    56    51   ar
    85    37     1    1
    86    16    10    1
    87    95    89   ar
    88    32    27    1
    89    49    50    1
    90     4    39    1
    91     6    40    1
    92     7    41    1
    93    12    42    1
    94    77    78    1
    95    20    43    1
    96    84    85    1
    97    87    88    1
    98    93    96    1
    99    24    44    1
   100    30    45    1
   101    81    82    1
   102    36    46    1
@<TRIPOS>MOLECULE
*****
 96 102 0 0 0
SMALL
GASTEIGER

@<TRIPOS>ATOM
      1 C          -2.5347    5.4191   21.7672 C.3     1  UNL1        0.1513
      2 C          -1.9258    5.3632   20.3974 C.3     1  UNL1        0.0625
      3 C          -0.9403    5.2977   19.2685 C.3     1  UNL1        0.1588
      4 O          -1.9100    5.3103   18.1242 O.3     1  UNL1       -0.3801
      5 C           0.3343    5.2284   18.4807 C.3     1  UNL1        0.2151
      6 O          -0.2555    5.2204   17.1015 O.3     1  UNL1       -0.3654
      7 N           1.7847    5.1616   18.1040 N.am    1  UNL1       -0.2797
      8 C           3.2819    5.1031   18.1718 C.2     1  UNL1        0.2447
      9 O           3.5708    5.0577   16.7005 O.2     1  UNL1       -0.2732
     10 C           4.6932    5.0582   18.6782 C.3     1  UNL1        0.1790
     11 C           5.1768    5.0061   17.2592 C.3     1  UNL1        0.1390
     12 O           4.3135    5.0125   16.0327 O.3     1  UNL1       -0.3822
     13 C           6.6755    4.9465   17.2823 C.3     1  UNL1        0.0489
     14 C           7.5739    4.8829   16.0828 C.3     1  UNL1        0.0043
     15 C           7.1180    4.9618   18.7154 C.3     1  UNL1        0.0964
     16 N           5.8929    5.0307   19.5781 N.am    1  UNL1       -0.2696
     17 C           6.7745    5.0233   20.7917 C.2     1  UNL1        0.2463
     18 O           8.1045    4.9541   20.1014 O.2     1  UNL1       -0.2730
     19 C           7.2598    5.0365   22.2110 C.3     1  UNL1        0.1759
     20 N           7.3054    5.0691   23.7099 N.am    1  UNL1       -0.2950
     21 C           6.9074    5.1183   25.1554 C.2     1  UNL1        0.2433
     22 O           8.2770    5.0775   25.7658 O.2     1  UNL1       -0.2732
     23 C           6.1012    5.1797   26.4188 C.3     1  UNL1        0.1785
     24 N           4.9585    5.2479   27.3880 N.am    1  UNL1       -0.2950
     25 C           3.5806    5.3167   27.9768 C.2     1  UNL1        0.2410
     26 O           3.9585    5.3349   29.4283 O.2     1  UNL1       -0.2733
     27 C           2.0901    5.3801   28.1331 C.3     1  UNL1        0.1543
     28 C           2.2698    5.4071   29.6220 C.3     1  UNL1        0.0602
     29 C           0.9102    5.4761   30.2518 C.3     1  UNL1        0.1324
     30 O           0.6213    5.5216   31.7230 O.3     1  UNL1       -0.3826
     31 C          -0.1098    5.4918   29.1521 C.3     1  UNL1        0.1230
     32 N           0.6194    5.4324   27.8427 N.am    1  UNL1       -0.2690
     33 C          -0.7008    5.4690   27.1315 C.2     1  UNL1        0.2464
     34 O          -1.5992    5.5326   28.3311 O.2     1  UNL1       -0.2730
     35 C          -1.7532    5.4866   26.0629 C.3     1  UNL1        0.1759
     36 N          -2.4444    5.4837   24.7316 N.am    1  UNL1       -0.2951
     37 C          -2.7128    5.4605   23.2559 C.2     1  UNL1        0.2408
     38 O          -4.2109    5.5216   23.3003 O.2     1  UNL1       -0.2733
     39 H          -1.4222    5.2714   17.2866 H       1  UNL1        0.2105
     40 H           0.4574    5.1767   16.4452 H       1  UNL1        0.2123
     41 H           1.6813    5.1432   17.1251 H       1  UNL1        0.1517
     42 H           4.8743    4.9718   15.2423 H       1  UNL1        0.2104
     43 H           8.2821    5.0327   23.8278 H       1  UNL1        0.1499
     44 H           5.4761    5.2464   28.2254 H       1  UNL1        0.1499
     45 H          -0.3376    5.5633   31.8631 H       1  UNL1        0.2104
     46 H          -3.3752    5.5283   25.0494 H       1  UNL1        0.1499
     47 C          -4.4541    6.5061   20.3945 C.2     1  UNL1        0.2461
     48 O          -3.4836    7.4955   19.8209 O.2     1  UNL1       -0.2701
     49 N          -3.9796    5.4679   21.3677 N.am    1  UNL1       -0.2947
     50 H          -4.6166    4.8185   21.7442 H       1  UNL1        0.1501
     51 C          -8.7891    6.6526   19.1960 C.ar    1  UNL1        0.0000
     52 C          -8.2241    7.7098   20.0977 C.ar    1  UNL1        0.0001
     53 C          -6.7791    7.6609   20.4972 C.ar    1  UNL1        0.0045
     54 C          -5.8992    6.5549   19.9950 C.ar    1  UNL1        0.0534
     55 C          -6.4641    5.4976   19.0933 C.ar    1  UNL1        0.0045
     56 C          -7.9091    5.5464   18.6938 C.ar    1  UNL1        0.0001
     57 C         -13.1240    6.7989   17.9974 C.ar    1  UNL1        0.0000
     58 C         -12.1481    5.9994   17.1860 C.ar    1  UNL1        0.0000
     59 C         -10.7032    5.9506   17.5855 C.ar    1  UNL1        0.0000
     60 C         -10.2342    6.7014   18.7965 C.ar    1  UNL1        0.0000
     61 C         -11.2101    7.5009   19.6079 C.ar    1  UNL1        0.0000
     62 C         -12.6550    7.5496   19.2084 C.ar    1  UNL1        0.0000
     63 C         -17.4591    6.9452   16.7989 C.ar    1  UNL1        0.1386
     64 C         -16.4314    7.6764   15.9870 C.ar    1  UNL1        0.0369
     65 C         -14.9864    7.6276   16.3865 C.ar    1  UNL1        0.0031
     66 C         -14.5691    6.8477   17.5979 C.ar    1  UNL1        0.0002
     67 C         -15.5968    6.1164   18.4099 C.ar    1  UNL1        0.0031
     68 C         -17.0418    6.1652   18.0103 C.ar    1  UNL1        0.0369
     69 O         -18.9041    6.9940   16.3994 O.3     1  UNL1       -0.4755
     70 C         -19.8292    5.8808   16.7933 C.3     1  UNL1        0.2054
     71 C         -19.6484    4.5123   16.2065 C.3     1  UNL1        0.0473
     72 C         -19.4091    3.3361   17.1061 C.3     1  UNL1        0.0038
     73 C         -16.9381    2.6603   16.6735 C.3     1  UNL1        0.0000
     74 C         -18.3928    2.2989   16.7301 C.3     1  UNL1        0.0001
     75 C           8.7343    4.9712   21.9438 C.3     1  UNL1        0.1373
     76 C           9.4645    3.6682   22.0817 C.3     1  UNL1        0.0340
     77 O           9.4787    6.2088   21.5387 O.3     1  UNL1       -0.3823
     78 H          10.4152    5.9939   21.4058 H       1  UNL1        0.2104
     79 C          -2.9654    5.5555   26.9438 C.3     1  UNL1        0.1373
     80 C          -3.9575    4.4306   26.9438 C.3     1  UNL1        0.0340
     81 O          -3.1853    6.7495   27.8248 O.3     1  UNL1       -0.3823
     82 H          -2.4567    7.3786   27.7046 H       1  UNL1        0.2104
     83 C           7.2304    5.1572   27.4059 C.3     1  UNL1        0.1681
     84 O           7.8187    3.8482   27.8425 O.3     1  UNL1       -0.3795
     85 H           7.3577    3.1213   27.3954 H       1  UNL1        0.2105
     86 C           7.7713    6.4433   27.9564 C.3     1  UNL1        0.1615
     87 O           8.4064    7.4443   27.0372 O.3     1  UNL1       -0.3775
     88 H           8.7005    8.2133   27.5501 H       1  UNL1        0.2109
     89 C           7.6773    6.7287   29.4259 C.ar    1  UNL1        0.0069
     90 C           6.4695    7.4256   29.9789 C.ar    1  UNL1        0.0012
     91 C           6.3755    7.7109   31.4485 C.ar    1  UNL1        0.0364
     92 C           7.4893    7.2993   32.3651 C.ar    1  UNL1        0.1337
     93 O           7.3953    7.5847   33.8348 O.3     1  UNL1       -0.5055
     94 C           8.6970    6.6025   31.8122 C.ar    1  UNL1        0.0364
     95 C           8.7910    6.3171   30.3426 C.ar    1  UNL1        0.0012
     96 H           6.6409    8.0200   34.1802 H       1  UNL1        0.2922
@<TRIPOS>BOND
     1    73    74    1
     2    74    72    1
     3    72    71    1
     4    71    70    1
     5    70    69    1
     6    69    63    1
     7    63    64   ar
     8    64    65   ar
     9    65    66   ar
    10    66    57    1
    11    57    58   ar
    12    58    59   ar
    13    59    60   ar
    14    60    51    1
    15    51    52   ar
    16    52    53   ar
    17    53    54   ar
    18    54    47    1
    19    47    48    2
    20    47    49   am
    21     1    49    1
    22     1     2    1
    23     2     3    1
    24     3     4    1
    25     3     5    1
    26     5     6    1
    27     5     7    1
    28     7     8   am
    29     8     9    2
    30    10     8    1
    31    10    11    1
    32    11    12    1
    33    11    13    1
    34    13    14    1
    35    13    15    1
    36    15    16    1
    37    16    17   am
    38    17    18    2
    39    17    19    1
    40    19    75    1
    41    75    76    1
    42    75    77    1
    43    19    20    1
    44    20    21   am
    45    21    22    2
    46    21    23    1
    47    23    83    1
    48    83    84    1
    49    83    86    1
    50    86    87    1
    51    86    89    1
    52    89    90   ar
    53    90    91   ar
    54    91    92   ar
    55    92    93    1
    56    92    94   ar
    57    94    95   ar
    58    23    24    1
    59    24    25   am
    60    25    26    2
    61    25    27    1
    62    27    28    1
    63    28    29    1
    64    29    30    1
    65    29    31    1
    66    31    32    1
    67    32    33   am
    68    33    34    2
    69    33    35    1
    70    35    79    1
    71    79    80    1
    72    79    81    1
    73    35    36    1
    74    36    37   am
    75    37    38    2
    76    54    55   ar
    77    55    56   ar
    78    60    61   ar
    79    61    62   ar
    80    66    67   ar
    81    67    68   ar
    82    68    63   ar
    83    62    57   ar
    84    56    51   ar
    85    37     1    1
    86    16    10    1
    87    95    89   ar
    88    32    27    1
    89    49    50    1
    90     4    39    1
    91     6    40    1
    92     7    41    1
    93    12    42    1
    94    77    78    1
    95    20    43    1
    96    84    85    1
    97    87    88    1
    98    93    96    1
    99    24    44    1
   100    30    45    1
   101    81    82    1
   102    36    46    1
@<TRIPOS>MOLECULE
*****
 96 102 0 0 0
SMALL
GASTEIGER

@<TRIPOS>ATOM
      1 C           2.0486    3.4519   28.4595 C.3     1  UNL1        0.1513
      2 C           3.2772    2.6424   28.1673 C.3     1  UNL1        0.0625
      3 C           4.3503    1.8713   27.4576 C.3     1  UNL1        0.1588
      4 O           5.1915    1.5128   28.6466 O.3     1  UNL1       -0.3801
      5 C           5.1727    1.2070   26.3935 C.3     1  UNL1        0.2151
      6 O           6.2591    0.6505   27.2654 O.3     1  UNL1       -0.3654
      7 N           5.6713    0.7086   25.0695 N.am    1  UNL1       -0.2797
      8 C           5.8018    0.4204   23.6033 C.2     1  UNL1        0.2447
      9 O           7.0757   -0.3706   23.6434 O.2     1  UNL1       -0.2732
     10 C           5.5526    0.3680   22.1250 C.3     1  UNL1        0.1790
     11 C           6.8068   -0.4390   21.9650 C.3     1  UNL1        0.1390
     12 O           7.7305   -0.8611   23.0688 O.3     1  UNL1       -0.3822
     13 C           6.9752   -0.7497   20.5072 C.3     1  UNL1        0.0489
     14 C           8.0968   -1.5371   19.8973 C.3     1  UNL1        0.0043
     15 C           5.8250   -0.1348   19.7663 C.3     1  UNL1        0.0964
     16 N           4.9458    0.5559   20.7662 N.am    1  UNL1       -0.2696
     17 C           4.0353    0.9677   19.6475 C.2     1  UNL1        0.2463
     18 O           4.7826    0.3398   18.5084 O.2     1  UNL1       -0.2730
     19 C           2.9020    1.5666   18.8683 C.3     1  UNL1        0.1759
     20 N           1.6468    2.2994   18.4979 N.am    1  UNL1       -0.2950
     21 C           0.3810    3.1011   18.5691 C.2     1  UNL1        0.2433
     22 O           0.0390    3.1091   17.1086 O.2     1  UNL1       -0.2732
     23 C          -0.7829    3.9003   19.0757 C.3     1  UNL1        0.1785
     24 N          -1.7414    4.6261   19.9726 N.am    1  UNL1       -0.2950
     25 C          -2.4093    5.2140   21.1801 C.2     1  UNL1        0.2410
     26 O          -3.5831    5.8519   20.4980 O.2     1  UNL1       -0.2733
     27 C          -2.7275    5.6118   22.5911 C.3     1  UNL1        0.1543
     28 C          -3.9575    6.3108   22.0928 C.3     1  UNL1        0.0602
     29 C          -4.6577    6.9151   23.2737 C.3     1  UNL1        0.1324
     30 O          -5.9315    7.7061   23.2336 O.3     1  UNL1       -0.3826
     31 C          -3.8604    6.5895   24.5018 C.3     1  UNL1        0.1230
     32 N          -2.6674    5.7840   24.0799 N.am    1  UNL1       -0.2690
     33 C          -2.2345    5.7155   25.5144 C.2     1  UNL1        0.2464
     34 O          -3.3562    6.5029   26.1243 O.2     1  UNL1       -0.2730
     35 C          -1.4673    5.4122   26.7672 C.3     1  UNL1        0.1759
     36 N          -0.4340    4.9012   27.7269 N.am    1  UNL1       -0.2951
     37 C           0.7738    4.2278   28.3082 C.2     1  UNL1        0.2408
     38 O           0.5489    4.5718   29.7508 O.2     1  UNL1       -0.2733
     39 H           5.9572    0.9930   28.3561 H       1  UNL1        0.2105
     40 H           6.9005    0.1721   26.7171 H       1  UNL1        0.2123
     41 H           6.4819    0.2459   25.3827 H       1  UNL1        0.1517
     42 H           8.4657   -1.3732   22.6971 H       1  UNL1        0.2104
     43 H           1.6700    2.1479   17.5254 H       1  UNL1        0.1499
     44 H          -2.3811    4.9298   19.2886 H       1  UNL1        0.1499
     45 H          -6.1695    7.9816   24.1327 H       1  UNL1        0.2104
     46 H          -0.8179    5.2587   28.5600 H       1  UNL1        0.1499
     47 C           3.3537    4.3348   30.5251 C.2     1  UNL1        0.2461
     48 O           4.3488    4.9923   29.6155 O.2     1  UNL1       -0.2701
     49 N           2.2036    3.5646   29.9472 N.am    1  UNL1       -0.2947
     50 H           1.5506    3.1330   30.5442 H       1  UNL1        0.1501
     51 C           3.8191    4.6729   34.9882 C.ar    1  UNL1        0.0000
     52 C           4.0674    5.8675   34.1156 C.ar    1  UNL1        0.0001
     53 C           3.9123    5.7547   32.6280 C.ar    1  UNL1        0.0045
     54 C           3.5089    4.4475   32.0129 C.ar    1  UNL1        0.0534
     55 C           3.2605    3.2529   32.8855 C.ar    1  UNL1        0.0045
     56 C           3.4156    3.3656   34.3732 C.ar    1  UNL1        0.0001
     57 C           4.2845    5.0109   39.4513 C.ar    1  UNL1        0.0000
     58 C           4.5481    3.7025   38.7667 C.ar    1  UNL1        0.0000
     59 C           4.3930    3.5899   37.2790 C.ar    1  UNL1        0.0000
     60 C           3.9742    4.7856   36.4760 C.ar    1  UNL1        0.0000
     61 C           3.7106    6.0939   37.1606 C.ar    1  UNL1        0.0000
     62 C           3.8657    6.2066   38.6483 C.ar    1  UNL1        0.0000
     63 C           4.7499    5.3488   43.9144 C.ar    1  UNL1        0.1386
     64 C           3.5115    5.8705   43.2479 C.ar    1  UNL1        0.0369
     65 C           3.3564    5.7578   41.7602 C.ar    1  UNL1        0.0031
     66 C           4.4396    5.1235   40.9391 C.ar    1  UNL1        0.0002
     67 C           5.6780    4.6018   41.6056 C.ar    1  UNL1        0.0031
     68 C           5.8331    4.7145   43.0934 C.ar    1  UNL1        0.0369
     69 O           4.9050    5.4615   45.4022 O.3     1  UNL1       -0.4755
     70 C           6.1298    6.1048   45.9820 C.3     1  UNL1        0.2054
     71 C           7.4797    5.4942   45.7481 C.3     1  UNL1        0.0473
     72 C           7.6782    4.0191   45.9339 C.3     1  UNL1        0.0038
     73 C           9.2206    1.9297   45.8612 C.3     1  UNL1        0.0000
     74 C           9.0276    3.4082   45.6975 C.3     1  UNL1        0.0001
     75 C           3.3116    1.1173   17.4970 C.3     1  UNL1        0.1373
     76 C           4.3814    1.8600   16.7528 C.3     1  UNL1        0.0340
     77 O           2.6513   -0.0747   16.8700 O.3     1  UNL1       -0.3823
     78 H           3.0297   -0.2284   15.9901 H       1  UNL1        0.2104
     79 C          -2.3603    6.1092   27.7505 C.3     1  UNL1        0.1373
     80 C          -1.8528    7.2963   28.5141 C.3     1  UNL1        0.0340
     81 O          -3.7608    5.6189   27.9702 O.3     1  UNL1       -0.3823
     82 H          -3.9270    4.8501   27.4026 H       1  UNL1        0.2104
     83 C          -1.4718    4.1467   17.7663 C.3     1  UNL1        0.1681
     84 O          -0.8902    5.1200   16.7842 O.3     1  UNL1       -0.3795
     85 H          -0.0750    5.4990   17.1488 H       1  UNL1        0.2105
     86 C          -2.7424    3.4198   17.4388 C.3     1  UNL1        0.1615
     87 O          -2.6989    2.1682   16.6130 O.3     1  UNL1       -0.3775
     88 H          -3.5993    1.8272   16.4951 H       1  UNL1        0.2109
     89 C          -4.0564    3.9443   17.9369 C.ar    1  UNL1        0.0069
     90 C          -4.8532    3.1505   18.9294 C.ar    1  UNL1        0.0012
     91 C          -6.1672    3.6750   19.4276 C.ar    1  UNL1        0.0364
     92 C          -6.6845    4.9934   18.9331 C.ar    1  UNL1        0.1337
     93 O          -7.9986    5.5180   19.4313 O.3     1  UNL1       -0.5055
     94 C          -5.8877    5.7872   17.9407 C.ar    1  UNL1        0.0364
     95 C          -4.5737    5.2626   17.4426 C.ar    1  UNL1        0.0012
     96 H          -8.4963    5.0222   20.0513 H       1  UNL1        0.2922
@<TRIPOS>BOND
     1    73    74    1
     2    74    72    1
     3    72    71    1
     4    71    70    1
     5    70    69    1
     6    69    63    1
     7    63    64   ar
     8    64    65   ar
     9    65    66   ar
    10    66    57    1
    11    57    58   ar
    12    58    59   ar
    13    59    60   ar
    14    60    51    1
    15    51    52   ar
    16    52    53   ar
    17    53    54   ar
    18    54    47    1
    19    47    48    2
    20    47    49   am
    21     1    49    1
    22     1     2    1
    23     2     3    1
    24     3     4    1
    25     3     5    1
    26     5     6    1
    27     5     7    1
    28     7     8   am
    29     8     9    2
    30    10     8    1
    31    10    11    1
    32    11    12    1
    33    11    13    1
    34    13    14    1
    35    13    15    1
    36    15    16    1
    37    16    17   am
    38    17    18    2
    39    17    19    1
    40    19    75    1
    41    75    76    1
    42    75    77    1
    43    19    20    1
    44    20    21   am
    45    21    22    2
    46    21    23    1
    47    23    83    1
    48    83    84    1
    49    83    86    1
    50    86    87    1
    51    86    89    1
    52    89    90   ar
    53    90    91   ar
    54    91    92   ar
    55    92    93    1
    56    92    94   ar
    57    94    95   ar
    58    23    24    1
    59    24    25   am
    60    25    26    2
    61    25    27    1
    62    27    28    1
    63    28    29    1
    64    29    30    1
    65    29    31    1
    66    31    32    1
    67    32    33   am
    68    33    34    2
    69    33    35    1
    70    35    79    1
    71    79    80    1
    72    79    81    1
    73    35    36    1
    74    36    37   am
    75    37    38    2
    76    54    55   ar
    77    55    56   ar
    78    60    61   ar
    79    61    62   ar
    80    66    67   ar
    81    67    68   ar
    82    68    63   ar
    83    62    57   ar
    84    56    51   ar
    85    37     1    1
    86    16    10    1
    87    95    89   ar
    88    32    27    1
    89    49    50    1
    90     4    39    1
    91     6    40    1
    92     7    41    1
    93    12    42    1
    94    77    78    1
    95    20    43    1
    96    84    85    1
    97    87    88    1
    98    93    96    1
    99    24    44    1
   100    30    45    1
   101    81    82    1
   102    36    46    1
