@<TRIPOS>MOLECULE
*****
 29 31 0 0 0
SMALL
GASTEIGER

@<TRIPOS>ATOM
      1 C          -7.3612  -18.9034   21.6098 C.3     1  UNL1        0.0564
      2 C         -12.0014  -16.6191   21.1087 C.3     1  UNL1        0.0310
      3 C         -11.1407  -17.6961   21.6997 C.ar    1  UNL1       -0.0221
      4 C         -11.7394  -18.7080   22.6311 C.ar    1  UNL1       -0.0043
      5 C         -10.8788  -19.7850   23.2221 C.ar    1  UNL1       -0.0006
      6 C          -9.4194  -19.8502   22.8817 C.ar    1  UNL1       -0.0037
      7 C          -8.8207  -18.8383   21.9503 C.ar    1  UNL1       -0.0155
      8 C          -9.6814  -17.7613   21.3593 C.ar    1  UNL1       -0.0079
      9 C          -7.6705  -19.8137   20.4585 C.ar    1  UNL1       -0.0152
     10 C          -6.8598  -21.0581   20.2475 C.ar    1  UNL1       -0.0037
     11 C          -7.1691  -21.9684   19.0961 C.ar    1  UNL1       -0.0003
     12 C          -8.2890  -21.6345   18.1558 C.ar    1  UNL1       -0.0000
     13 C          -9.0996  -20.3902   18.3667 C.ar    1  UNL1       -0.0003
     14 C          -8.7904  -19.4798   19.5181 C.ar    1  UNL1       -0.0037
     15 C          -5.9019  -18.9685   21.2693 C.ar    1  UNL1       -0.0152
     16 C          -4.8981  -19.3060   22.3317 C.ar    1  UNL1       -0.0037
     17 C          -3.4388  -19.3711   21.9912 C.ar    1  UNL1       -0.0003
     18 C          -2.9831  -19.0987   20.5883 C.ar    1  UNL1       -0.0000
     19 C          -3.9867  -18.7613   19.5259 C.ar    1  UNL1       -0.0003
     20 C          -5.4462  -18.6962   19.8664 C.ar    1  UNL1       -0.0037
     21 C          -7.0520  -17.9930   22.7611 C.3     1  UNL1        0.0140
     22 C          -7.3918  -16.5345   22.6763 C.3     1  UNL1        0.0222
     23 CA         -6.7670  -15.5620   23.6324 C.3     1  UNL1        0.0879
     24 N          -7.5412  -14.3640   24.0964 N.3     1  UNL1       -0.3179
     25 H1         -8.4657  -14.3689   23.6656 H       1  UNL1        0.1191
     26 H2         -7.0455  -13.5140   23.8279 H       1  UNL1        0.1191
     27 C          -5.3681  -15.7876   24.1244 C.2     1  UNL1        0.0644
     28 O          -5.0978  -15.8880   25.5965 O.co2   1  UNL1       -0.5478
     29 OXT        -4.2395  -15.9129   23.1444 O.co2   1  UNL1       -0.5478
@<TRIPOS>UNITY_ATOM_ATTR
28 1
charge -1
@<TRIPOS>BOND
     1     2     3    1
     2     3     4   ar
     3     4     5   ar
     4     5     6   ar
     5     6     7   ar
     6     7     1    1
     7     1    21    1
     8    21    22    1
     9    22    23    1
    10    23    24    1
    11    23    27    1
    12    27    28   ar
    13    27    29   ar
    14     1     9    1
    15     9    10   ar
    16    10    11   ar
    17    11    12   ar
    18    12    13   ar
    19    13    14   ar
    20     1    15    1
    21    15    16   ar
    22    16    17   ar
    23    17    18   ar
    24    18    19   ar
    25    19    20   ar
    26     7     8   ar
    27     8     3   ar
    28    14     9   ar
    29    20    15   ar
    30    24    25    1
    31    24    26    1
@<TRIPOS>MOLECULE
*****
 29 31 0 0 0
SMALL
GASTEIGER

@<TRIPOS>ATOM
      1 C          -8.6250  -17.6967   22.1665 C.3     1  UNL1        0.0564
      2 C          -8.7802  -16.8865   27.2968 C.3     1  UNL1        0.0310
      3 C          -8.3501  -16.4553   25.9260 C.ar    1  UNL1       -0.0221
      4 C          -7.5675  -15.1879   25.7495 C.ar    1  UNL1       -0.0043
      5 C          -7.1374  -14.7567   24.3787 C.ar    1  UNL1       -0.0006
      6 C          -7.4899  -15.5930   23.1844 C.ar    1  UNL1       -0.0037
      7 C          -8.2725  -16.8604   23.3609 C.ar    1  UNL1       -0.0155
      8 C          -8.7026  -17.2916   24.7317 C.ar    1  UNL1       -0.0079
      9 C         -10.0788  -17.5877   22.5193 C.ar    1  UNL1       -0.0152
     10 C         -10.8419  -16.3420   22.1785 C.ar    1  UNL1       -0.0037
     11 C         -12.2957  -16.2330   22.5313 C.ar    1  UNL1       -0.0003
     12 C         -12.9865  -17.3695   23.2250 C.ar    1  UNL1       -0.0000
     13 C         -12.2235  -18.6151   23.5658 C.ar    1  UNL1       -0.0003
     14 C         -10.7696  -18.7242   23.2130 C.ar    1  UNL1       -0.0037
     15 C          -8.9776  -18.5330   20.9723 C.ar    1  UNL1       -0.0152
     16 C         -10.3751  -18.5114   20.4277 C.ar    1  UNL1       -0.0037
     17 C         -10.7277  -19.3477   19.2335 C.ar    1  UNL1       -0.0003
     18 C          -9.6828  -20.2056   18.5837 C.ar    1  UNL1       -0.0000
     19 C          -8.2853  -20.2272   19.1282 C.ar    1  UNL1       -0.0003
     20 C          -7.9326  -19.3909   20.3225 C.ar    1  UNL1       -0.0037
     21 C          -7.1712  -17.8058   21.8137 C.3     1  UNL1        0.0140
     22 C          -6.3132  -18.8399   22.4804 C.3     1  UNL1        0.0222
     23 CA         -4.8193  -18.7586   22.3712 C.3     1  UNL1        0.0879
     24 N          -4.0100  -18.2435   23.5243 N.3     1  UNL1       -0.3179
     25 H1         -4.6328  -17.9963   24.2933 H       1  UNL1        0.1191
     26 H2         -3.4875  -17.4181   23.2311 H       1  UNL1        0.1191
     27 C          -4.1349  -19.1925   21.1089 C.2     1  UNL1        0.0644
     28 O          -3.0803  -20.2582   21.1558 O.co2   1  UNL1       -0.5478
     29 OXT        -4.5050  -18.5606   19.7998 O.co2   1  UNL1       -0.5478
@<TRIPOS>UNITY_ATOM_ATTR
28 1
charge -1
@<TRIPOS>BOND
     1     2     3    1
     2     3     4   ar
     3     4     5   ar
     4     5     6   ar
     5     6     7   ar
     6     7     1    1
     7     1    21    1
     8    21    22    1
     9    22    23    1
    10    23    24    1
    11    23    27    1
    12    27    28   ar
    13    27    29   ar
    14     1     9    1
    15     9    10   ar
    16    10    11   ar
    17    11    12   ar
    18    12    13   ar
    19    13    14   ar
    20     1    15    1
    21    15    16   ar
    22    16    17   ar
    23    17    18   ar
    24    18    19   ar
    25    19    20   ar
    26     7     8   ar
    27     8     3   ar
    28    14     9   ar
    29    20    15   ar
    30    24    25    1
    31    24    26    1
@<TRIPOS>MOLECULE
*****
 29 31 0 0 0
SMALL
GASTEIGER

@<TRIPOS>ATOM
      1 C          -8.8568  -18.2702   22.7486 C.3     1  UNL1        0.0564
      2 C          -3.8208  -17.0324   23.0748 C.3     1  UNL1        0.0310
      3 C          -4.8950  -18.0439   22.8048 C.ar    1  UNL1       -0.0221
      4 C          -4.5255  -19.4479   22.4278 C.ar    1  UNL1       -0.0043
      5 C          -5.5997  -20.4594   22.1578 C.ar    1  UNL1       -0.0006
      6 C          -7.0435  -20.0668   22.2647 C.ar    1  UNL1       -0.0037
      7 C          -7.4130  -18.6628   22.6416 C.ar    1  UNL1       -0.0155
      8 C          -6.3387  -17.6513   22.9117 C.ar    1  UNL1       -0.0079
      9 C          -9.1173  -18.8596   21.3941 C.ar    1  UNL1       -0.0152
     10 C         -10.3994  -19.5917   21.1287 C.ar    1  UNL1       -0.0037
     11 C         -10.6599  -20.1812   19.7742 C.ar    1  UNL1       -0.0003
     12 C          -9.6385  -20.0386   18.6851 C.ar    1  UNL1       -0.0000
     13 C          -8.3564  -19.3065   18.9504 C.ar    1  UNL1       -0.0003
     14 C          -8.0958  -18.7170   20.3050 C.ar    1  UNL1       -0.0037
     15 C         -10.3005  -17.8776   22.8554 C.ar    1  UNL1       -0.0152
     16 C         -11.2096  -18.6113   23.7964 C.ar    1  UNL1       -0.0037
     17 C         -12.6533  -18.2188   23.9033 C.ar    1  UNL1       -0.0003
     18 C         -13.1881  -17.0925   23.0692 C.ar    1  UNL1       -0.0000
     19 C         -12.2791  -16.3589   22.1283 C.ar    1  UNL1       -0.0003
     20 C         -10.8352  -16.7514   22.0214 C.ar    1  UNL1       -0.0037
     21 C          -8.5962  -17.6808   24.1030 C.3     1  UNL1        0.0140
     22 C          -9.0012  -16.2665   24.3960 C.3     1  UNL1        0.0222
     23 CA         -8.0020  -15.3027   24.9643 C.3     1  UNL1        0.0879
     24 N          -7.5310  -14.1394   24.1429 N.3     1  UNL1       -0.3179
     25 H1         -7.9895  -14.1586   23.2319 H       1  UNL1        0.1191
     26 H2         -6.5206  -14.1995   24.0163 H       1  UNL1        0.1191
     27 C          -7.4740  -15.5022   26.3540 C.2     1  UNL1        0.0644
     28 O          -5.9992  -15.6562   26.5811 O.co2   1  UNL1       -0.5478
     29 OXT        -8.4206  -15.5479   27.5167 O.co2   1  UNL1       -0.5478
@<TRIPOS>UNITY_ATOM_ATTR
28 1
charge -1
@<TRIPOS>BOND
     1     2     3    1
     2     3     4   ar
     3     4     5   ar
     4     5     6   ar
     5     6     7   ar
     6     7     1    1
     7     1    21    1
     8    21    22    1
     9    22    23    1
    10    23    24    1
    11    23    27    1
    12    27    28   ar
    13    27    29   ar
    14     1     9    1
    15     9    10   ar
    16    10    11   ar
    17    11    12   ar
    18    12    13   ar
    19    13    14   ar
    20     1    15    1
    21    15    16   ar
    22    16    17   ar
    23    17    18   ar
    24    18    19   ar
    25    19    20   ar
    26     7     8   ar
    27     8     3   ar
    28    14     9   ar
    29    20    15   ar
    30    24    25    1
    31    24    26    1
@<TRIPOS>MOLECULE
*****
 29 31 0 0 0
SMALL
GASTEIGER

@<TRIPOS>ATOM
      1 C          -7.1726  -18.8497   21.6704 C.3     1  UNL1        0.0564
      2 C          -2.1130  -18.4198   22.7725 C.3     1  UNL1        0.0310
      3 C          -3.2179  -18.5314   21.7643 C.ar    1  UNL1       -0.0221
      4 C          -2.8980  -18.5397   20.2988 C.ar    1  UNL1       -0.0043
      5 C          -4.0029  -18.6513   19.2906 C.ar    1  UNL1       -0.0006
      6 C          -5.4278  -18.7546   19.7477 C.ar    1  UNL1       -0.0037
      7 C          -5.7477  -18.7463   21.2131 C.ar    1  UNL1       -0.0155
      8 C          -4.6428  -18.6347   22.2214 C.ar    1  UNL1       -0.0079
      9 C          -7.4620  -19.8067   20.5522 C.ar    1  UNL1       -0.0152
     10 C          -6.6515  -21.0609   20.4098 C.ar    1  UNL1       -0.0037
     11 C          -6.9408  -22.0180   19.2917 C.ar    1  UNL1       -0.0003
     12 C          -8.0406  -21.7209   18.3159 C.ar    1  UNL1       -0.0000
     13 C          -8.8510  -20.4668   18.4582 C.ar    1  UNL1       -0.0003
     14 C          -8.5617  -19.5096   19.5764 C.ar    1  UNL1       -0.0037
     15 C          -8.5975  -18.9531   22.1275 C.ar    1  UNL1       -0.0152
     16 C          -8.9810  -19.9677   23.1637 C.ar    1  UNL1       -0.0037
     17 C         -10.4059  -20.0710   23.6208 C.ar    1  UNL1       -0.0003
     18 C         -11.4473  -19.1598   23.0419 C.ar    1  UNL1       -0.0000
     19 C         -11.0638  -18.1453   22.0058 C.ar    1  UNL1       -0.0003
     20 C          -9.6389  -18.0418   21.5486 C.ar    1  UNL1       -0.0037
     21 C          -6.8833  -17.8926   22.7885 C.3     1  UNL1        0.0140
     22 C          -7.4946  -16.5229   22.7804 C.3     1  UNL1        0.0222
     23 CA         -6.9392  -15.4485   23.6677 C.3     1  UNL1        0.0879
     24 N          -7.8128  -14.3096   24.1034 N.3     1  UNL1       -0.3179
     25 H1         -8.7453  -14.4253   23.7066 H       1  UNL1        0.1191
     26 H2         -7.4117  -13.4299   23.7784 H       1  UNL1        0.1191
     27 C          -5.5103  -15.5130   24.1193 C.2     1  UNL1        0.0644
     28 O          -5.1908  -15.7440   25.5666 O.co2   1  UNL1       -0.5478
     29 OXT        -4.4008  -15.3465   23.1236 O.co2   1  UNL1       -0.5478
@<TRIPOS>UNITY_ATOM_ATTR
28 1
charge -1
@<TRIPOS>BOND
     1     2     3    1
     2     3     4   ar
     3     4     5   ar
     4     5     6   ar
     5     6     7   ar
     6     7     1    1
     7     1    21    1
     8    21    22    1
     9    22    23    1
    10    23    24    1
    11    23    27    1
    12    27    28   ar
    13    27    29   ar
    14     1     9    1
    15     9    10   ar
    16    10    11   ar
    17    11    12   ar
    18    12    13   ar
    19    13    14   ar
    20     1    15    1
    21    15    16   ar
    22    16    17   ar
    23    17    18   ar
    24    18    19   ar
    25    19    20   ar
    26     7     8   ar
    27     8     3   ar
    28    14     9   ar
    29    20    15   ar
    30    24    25    1
    31    24    26    1
@<TRIPOS>MOLECULE
*****
 29 31 0 0 0
SMALL
GASTEIGER

@<TRIPOS>ATOM
      1 C          -8.8685  -17.5480   23.3293 C.3     1  UNL1        0.0564
      2 C          -6.7277  -20.6926   19.7897 C.3     1  UNL1        0.0310
      3 C          -7.8526  -19.8002   20.2235 C.ar    1  UNL1       -0.0221
      4 C          -9.0320  -19.5876   19.3214 C.ar    1  UNL1       -0.0043
      5 C         -10.1569  -18.6952   19.7553 C.ar    1  UNL1       -0.0006
      6 C         -10.1024  -18.0154   21.0912 C.ar    1  UNL1       -0.0037
      7 C          -8.9230  -18.2279   21.9933 C.ar    1  UNL1       -0.0155
      8 C          -7.7981  -19.1203   21.5595 C.ar    1  UNL1       -0.0079
      9 C         -10.3664  -17.5739   23.4036 C.ar    1  UNL1       -0.0152
     10 C         -11.0650  -18.7283   24.0590 C.ar    1  UNL1       -0.0037
     11 C         -12.5629  -18.7542   24.1333 C.ar    1  UNL1       -0.0003
     12 C         -13.3623  -17.6258   23.5522 C.ar    1  UNL1       -0.0000
     13 C         -12.6637  -16.4715   22.8968 C.ar    1  UNL1       -0.0003
     14 C         -11.1658  -16.4455   22.8225 C.ar    1  UNL1       -0.0037
     15 C          -8.8140  -16.8682   24.6653 C.ar    1  UNL1       -0.0152
     16 C          -8.7076  -17.6852   25.9188 C.ar    1  UNL1       -0.0037
     17 C          -8.6531  -17.0054   27.2548 C.ar    1  UNL1       -0.0003
     18 C          -8.7050  -15.5085   27.3373 C.ar    1  UNL1       -0.0000
     19 C          -8.8114  -14.6915   26.0838 C.ar    1  UNL1       -0.0003
     20 C          -8.8659  -15.3714   24.7478 C.ar    1  UNL1       -0.0037
     21 C          -7.3706  -17.5221   23.2550 C.3     1  UNL1        0.0140
     22 C          -6.6461  -16.2111   23.1755 C.3     1  UNL1        0.0222
     23 CA         -5.3300  -16.0378   23.8740 C.3     1  UNL1        0.0879
     24 N          -5.2158  -15.0958   25.0357 N.3     1  UNL1       -0.3179
     25 H1         -6.1219  -14.6618   25.2119 H       1  UNL1        0.1191
     26 H2         -4.5287  -14.3731   24.8211 H       1  UNL1        0.1191
     27 C          -4.1282  -16.8066   23.4109 C.2     1  UNL1        0.0644
     28 O          -3.1737  -16.1885   22.4327 O.co2   1  UNL1       -0.5478
     29 OXT        -3.8809  -18.1935   23.9259 O.co2   1  UNL1       -0.5478
@<TRIPOS>UNITY_ATOM_ATTR
28 1
charge -1
@<TRIPOS>BOND
     1     2     3    1
     2     3     4   ar
     3     4     5   ar
     4     5     6   ar
     5     6     7   ar
     6     7     1    1
     7     1    21    1
     8    21    22    1
     9    22    23    1
    10    23    24    1
    11    23    27    1
    12    27    28   ar
    13    27    29   ar
    14     1     9    1
    15     9    10   ar
    16    10    11   ar
    17    11    12   ar
    18    12    13   ar
    19    13    14   ar
    20     1    15    1
    21    15    16   ar
    22    16    17   ar
    23    17    18   ar
    24    18    19   ar
    25    19    20   ar
    26     7     8   ar
    27     8     3   ar
    28    14     9   ar
    29    20    15   ar
    30    24    25    1
    31    24    26    1
@<TRIPOS>MOLECULE
*****
 29 31 0 0 0
SMALL
GASTEIGER

@<TRIPOS>ATOM
      1 C          -9.4192  -18.6198   23.1192 C.3     1  UNL1        0.0564
      2 C          -4.4328  -17.1790   22.8739 C.3     1  UNL1        0.0310
      3 C          -5.4920  -18.2272   22.7027 C.ar    1  UNL1       -0.0221
      4 C          -5.1173  -19.6031   22.2377 C.ar    1  UNL1       -0.0043
      5 C          -6.1766  -20.6513   22.0665 C.ar    1  UNL1       -0.0006
      6 C          -7.6105  -20.3236   22.3603 C.ar    1  UNL1       -0.0037
      7 C          -7.9852  -18.9476   22.8253 C.ar    1  UNL1       -0.0155
      8 C          -6.9260  -17.8994   22.9965 C.ar    1  UNL1       -0.0079
      9 C          -8.9823  -17.4362   23.9305 C.ar    1  UNL1       -0.0152
     10 C          -8.5839  -16.1629   23.2449 C.ar    1  UNL1       -0.0037
     11 C          -8.1470  -14.9793   24.0562 C.ar    1  UNL1       -0.0003
     12 C          -8.1085  -15.0690   25.5530 C.ar    1  UNL1       -0.0000
     13 C          -8.5069  -16.3422   26.2386 C.ar    1  UNL1       -0.0003
     14 C          -8.9438  -17.5259   25.4273 C.ar    1  UNL1       -0.0037
     15 C         -10.8531  -18.2920   23.4130 C.ar    1  UNL1       -0.0152
     16 C         -11.5197  -17.1463   22.7107 C.ar    1  UNL1       -0.0037
     17 C         -12.9536  -16.8185   23.0045 C.ar    1  UNL1       -0.0003
     18 C         -13.7210  -17.6362   24.0008 C.ar    1  UNL1       -0.0000
     19 C         -13.0544  -18.7818   24.7031 C.ar    1  UNL1       -0.0003
     20 C         -11.6205  -19.1097   24.4093 C.ar    1  UNL1       -0.0037
     21 C          -9.8561  -19.8034   22.3079 C.3     1  UNL1        0.0140
     22 C         -10.6483  -19.5996   21.0506 C.3     1  UNL1        0.0222
     23 CA        -10.0282  -18.8980   19.8788 C.3     1  UNL1        0.0879
     24 N         -10.5099  -17.5345   19.4802 N.3     1  UNL1       -0.3179
     25 H1        -11.2565  -17.2402   20.1098 H       1  UNL1        0.1191
     26 H2        -10.8638  -17.5650   18.5240 H       1  UNL1        0.1191
     27 C          -8.9264  -19.5599   19.1055 C.2     1  UNL1        0.0644
     28 O          -9.2389  -20.6972   18.1787 O.co2   1  UNL1       -0.5478
     29 OXT        -7.5120  -19.0844   19.2590 O.co2   1  UNL1       -0.5478
@<TRIPOS>UNITY_ATOM_ATTR
28 1
charge -1
@<TRIPOS>BOND
     1     2     3    1
     2     3     4   ar
     3     4     5   ar
     4     5     6   ar
     5     6     7   ar
     6     7     1    1
     7     1    21    1
     8    21    22    1
     9    22    23    1
    10    23    24    1
    11    23    27    1
    12    27    28   ar
    13    27    29   ar
    14     1     9    1
    15     9    10   ar
    16    10    11   ar
    17    11    12   ar
    18    12    13   ar
    19    13    14   ar
    20     1    15    1
    21    15    16   ar
    22    16    17   ar
    23    17    18   ar
    24    18    19   ar
    25    19    20   ar
    26     7     8   ar
    27     8     3   ar
    28    14     9   ar
    29    20    15   ar
    30    24    25    1
    31    24    26    1
@<TRIPOS>MOLECULE
*****
 29 31 0 0 0
SMALL
GASTEIGER

@<TRIPOS>ATOM
      1 C          -8.6088  -17.0880   23.2709 C.3     1  UNL1        0.0564
      2 C          -3.9655  -19.2706   22.4490 C.3     1  UNL1        0.0310
      3 C          -4.7898  -18.0908   22.8713 C.ar    1  UNL1       -0.0221
      4 C          -4.1168  -16.8223   23.3051 C.ar    1  UNL1       -0.0043
      5 C          -4.9411  -15.6425   23.7274 C.ar    1  UNL1       -0.0006
      6 C          -6.4384  -15.7310   23.7160 C.ar    1  UNL1       -0.0037
      7 C          -7.1114  -16.9994   23.2823 C.ar    1  UNL1       -0.0155
      8 C          -6.2871  -18.1793   22.8600 C.ar    1  UNL1       -0.0079
      9 C          -8.6428  -16.6986   24.7191 C.ar    1  UNL1       -0.0152
     10 C          -8.5768  -15.2515   25.1084 C.ar    1  UNL1       -0.0037
     11 C          -8.6107  -14.8622   26.5566 C.ar    1  UNL1       -0.0003
     12 C          -8.7108  -15.9199   27.6155 C.ar    1  UNL1       -0.0000
     13 C          -8.7768  -17.3669   27.2262 C.ar    1  UNL1       -0.0003
     14 C          -8.7428  -17.7564   25.7780 C.ar    1  UNL1       -0.0037
     15 C         -10.1061  -17.1765   23.2596 C.ar    1  UNL1       -0.0152
     16 C         -10.9127  -16.1490   22.5221 C.ar    1  UNL1       -0.0037
     17 C         -12.4100  -16.2376   22.5107 C.ar    1  UNL1       -0.0003
     18 C         -13.1008  -17.3536   23.2369 C.ar    1  UNL1       -0.0000
     19 C         -12.2943  -18.3811   23.9743 C.ar    1  UNL1       -0.0003
     20 C         -10.7970  -18.2925   23.9857 C.ar    1  UNL1       -0.0037
     21 C          -8.5748  -17.4773   21.8228 C.3     1  UNL1        0.0140
     22 C          -8.8327  -18.8997   21.4223 C.3     1  UNL1        0.0222
     23 CA         -8.3884  -19.3923   20.0769 C.3     1  UNL1        0.0879
     24 N          -6.9287  -19.4205   19.7330 N.3     1  UNL1       -0.3179
     25 H1         -6.3863  -19.0727   20.5237 H       1  UNL1        0.1191
     26 H2         -6.7597  -18.8300   18.9187 H       1  UNL1        0.1191
     27 C          -9.4040  -19.8568   19.0754 C.2     1  UNL1        0.0644
     28 O          -9.0198  -20.8584   18.0269 O.co2   1  UNL1       -0.5478
     29 OXT       -10.8037  -19.3197   19.1224 O.co2   1  UNL1       -0.5478
@<TRIPOS>UNITY_ATOM_ATTR
28 1
charge -1
@<TRIPOS>BOND
     1     2     3    1
     2     3     4   ar
     3     4     5   ar
     4     5     6   ar
     5     6     7   ar
     6     7     1    1
     7     1    21    1
     8    21    22    1
     9    22    23    1
    10    23    24    1
    11    23    27    1
    12    27    28   ar
    13    27    29   ar
    14     1     9    1
    15     9    10   ar
    16    10    11   ar
    17    11    12   ar
    18    12    13   ar
    19    13    14   ar
    20     1    15    1
    21    15    16   ar
    22    16    17   ar
    23    17    18   ar
    24    18    19   ar
    25    19    20   ar
    26     7     8   ar
    27     8     3   ar
    28    14     9   ar
    29    20    15   ar
    30    24    25    1
    31    24    26    1
@<TRIPOS>MOLECULE
*****
 29 31 0 0 0
SMALL
GASTEIGER

@<TRIPOS>ATOM
      1 C          -8.7328  -17.6679   22.3368 C.3     1  UNL1        0.0564
      2 C          -7.3481  -21.3010   18.8896 C.3     1  UNL1        0.0310
      3 C          -8.3478  -20.3032   19.3945 C.ar    1  UNL1       -0.0221
      4 C          -9.6548  -20.1239   18.6806 C.ar    1  UNL1       -0.0043
      5 C         -10.6544  -19.1261   19.1855 C.ar    1  UNL1       -0.0006
      6 C         -10.3471  -18.3074   20.4042 C.ar    1  UNL1       -0.0037
      7 C          -9.0401  -18.4866   21.1180 C.ar    1  UNL1       -0.0155
      8 C          -8.0405  -19.4845   20.6132 C.ar    1  UNL1       -0.0079
      9 C         -10.1889  -17.6570   22.6966 C.ar    1  UNL1       -0.0152
     10 C         -11.0164  -16.4329   22.4373 C.ar    1  UNL1       -0.0037
     11 C         -12.4725  -16.4220   22.7971 C.ar    1  UNL1       -0.0003
     12 C         -13.1013  -17.6350   23.4162 C.ar    1  UNL1       -0.0000
     13 C         -12.2739  -18.8590   23.6755 C.ar    1  UNL1       -0.0003
     14 C         -10.8177  -18.8700   23.3157 C.ar    1  UNL1       -0.0037
     15 C          -8.4255  -16.8493   23.5556 C.ar    1  UNL1       -0.0152
     16 C          -7.6118  -15.5952   23.4311 C.ar    1  UNL1       -0.0037
     17 C          -7.3045  -14.7766   24.6499 C.ar    1  UNL1       -0.0003
     18 C          -7.8108  -15.2119   25.9930 C.ar    1  UNL1       -0.0000
     19 C          -8.6244  -16.4659   26.1175 C.ar    1  UNL1       -0.0003
     20 C          -8.9318  -17.2846   24.8987 C.ar    1  UNL1       -0.0037
     21 C          -7.2766  -17.6789   21.9770 C.3     1  UNL1        0.0140
     22 C          -6.3673  -18.7185   22.5621 C.3     1  UNL1        0.0222
     23 CA         -4.8818  -18.5961   22.3936 C.3     1  UNL1        0.0879
     24 N          -4.0630  -17.9005   23.4403 N.3     1  UNL1       -0.3179
     25 H1         -4.6740  -17.5759   24.1898 H       1  UNL1        0.1191
     26 H2         -3.5840  -17.1027   23.0227 H       1  UNL1        0.1191
     27 C          -4.2151  -19.1693   21.1783 C.2     1  UNL1        0.0644
     28 O          -3.0798  -20.1376   21.3321 O.co2   1  UNL1       -0.5478
     29 OXT        -4.6837  -18.7743   19.8092 O.co2   1  UNL1       -0.5478
@<TRIPOS>UNITY_ATOM_ATTR
28 1
charge -1
@<TRIPOS>BOND
     1     2     3    1
     2     3     4   ar
     3     4     5   ar
     4     5     6   ar
     5     6     7   ar
     6     7     1    1
     7     1    21    1
     8    21    22    1
     9    22    23    1
    10    23    24    1
    11    23    27    1
    12    27    28   ar
    13    27    29   ar
    14     1     9    1
    15     9    10   ar
    16    10    11   ar
    17    11    12   ar
    18    12    13   ar
    19    13    14   ar
    20     1    15    1
    21    15    16   ar
    22    16    17   ar
    23    17    18   ar
    24    18    19   ar
    25    19    20   ar
    26     7     8   ar
    27     8     3   ar
    28    14     9   ar
    29    20    15   ar
    30    24    25    1
    31    24    26    1
@<TRIPOS>MOLECULE
*****
 29 31 0 0 0
SMALL
GASTEIGER

@<TRIPOS>ATOM
      1 C          -9.6764  -18.5376   23.2780 C.3     1  UNL1        0.0564
      2 C          -4.7389  -16.9227   23.1633 C.3     1  UNL1        0.0310
      3 C          -5.7685  -17.9750   22.8758 C.ar    1  UNL1       -0.0221
      4 C          -5.3590  -19.2720   22.2433 C.ar    1  UNL1       -0.0043
      5 C          -6.3886  -20.3242   21.9558 C.ar    1  UNL1       -0.0006
      6 C          -7.8277  -20.0794   22.3007 C.ar    1  UNL1       -0.0037
      7 C          -8.2372  -18.7824   22.9331 C.ar    1  UNL1       -0.0155
      8 C          -7.2076  -17.7302   23.2206 C.ar    1  UNL1       -0.0079
      9 C          -9.2587  -17.5217   24.2995 C.ar    1  UNL1       -0.0152
     10 C          -9.1002  -17.9237   25.7359 C.ar    1  UNL1       -0.0037
     11 C          -8.6825  -16.9078   26.7574 C.ar    1  UNL1       -0.0003
     12 C          -8.4233  -15.4898   26.3425 C.ar    1  UNL1       -0.0000
     13 C          -8.5818  -15.0878   24.9061 C.ar    1  UNL1       -0.0003
     14 C          -8.9995  -16.1037   23.8846 C.ar    1  UNL1       -0.0037
     15 C         -11.1155  -18.2928   23.6230 C.ar    1  UNL1       -0.0152
     16 C         -11.8761  -17.1985   22.9343 C.ar    1  UNL1       -0.0037
     17 C         -13.3152  -16.9537   23.2793 C.ar    1  UNL1       -0.0003
     18 C         -13.9937  -17.8030   24.3128 C.ar    1  UNL1       -0.0000
     19 C         -13.2331  -18.8972   25.0015 C.ar    1  UNL1       -0.0003
     20 C         -11.7940  -19.1421   24.6565 C.ar    1  UNL1       -0.0037
     21 C         -10.0941  -19.5535   22.2566 C.3     1  UNL1        0.0140
     22 C         -10.9509  -19.1419   21.0962 C.3     1  UNL1        0.0222
     23 CA        -10.3915  -18.2452   20.0317 C.3     1  UNL1        0.0879
     24 N          -9.3583  -18.7673   19.0780 N.3     1  UNL1       -0.3179
     25 H1         -9.1557  -19.7428   19.2967 H       1  UNL1        0.1191
     26 H2         -8.5052  -18.2150   19.1651 H       1  UNL1        0.1191
     27 C         -10.8655  -16.8264   19.9211 C.2     1  UNL1        0.0644
     28 O         -10.0362  -15.7122   20.4877 O.co2   1  UNL1       -0.5478
     29 OXT       -12.1688  -16.5216   19.2439 O.co2   1  UNL1       -0.5478
@<TRIPOS>UNITY_ATOM_ATTR
28 1
charge -1
@<TRIPOS>BOND
     1     2     3    1
     2     3     4   ar
     3     4     5   ar
     4     5     6   ar
     5     6     7   ar
     6     7     1    1
     7     1    21    1
     8    21    22    1
     9    22    23    1
    10    23    24    1
    11    23    27    1
    12    27    28   ar
    13    27    29   ar
    14     1     9    1
    15     9    10   ar
    16    10    11   ar
    17    11    12   ar
    18    12    13   ar
    19    13    14   ar
    20     1    15    1
    21    15    16   ar
    22    16    17   ar
    23    17    18   ar
    24    18    19   ar
    25    19    20   ar
    26     7     8   ar
    27     8     3   ar
    28    14     9   ar
    29    20    15   ar
    30    24    25    1
    31    24    26    1
