@<TRIPOS>MOLECULE
*****
 33 37 0 0 0
SMALL
GASTEIGER

@<TRIPOS>ATOM
      1 C          -6.9163  -17.8826   22.3764 C.3     1  UNL1        0.0389
      2 C          -7.4478  -18.6289   21.1888 C.ar    1  UNL1        0.0629
      3 C          -8.7935  -18.2806   20.6249 C.ar    1  UNL1        0.1344
      4 N          -9.3250  -19.0269   19.4373 N.ar    1  UNL1       -0.2091
      5 C          -8.5108  -20.1215   18.8135 C.ar    1  UNL1        0.2027
      6 N          -7.1653  -20.4697   19.3773 N.ar    1  UNL1       -0.1895
      7 C          -6.6337  -19.7234   20.5650 C.ar    1  UNL1        0.2247
      8 N          -9.6076  -17.1861   21.2487 N.pl3   1  UNL1       -0.2974
      9 H          -9.4427  -16.2476   21.0009 H       1  UNL1        0.1536
     10 C         -10.6731  -17.5213   22.2499 C.ar    1  UNL1        0.0601
     11 C         -10.3252  -18.3026   23.4822 C.ar    1  UNL1        0.0162
     12 C         -11.3906  -18.6378   24.4834 C.ar    1  UNL1        0.0116
     13 C         -12.8040  -18.1918   24.2522 C.ar    1  UNL1        0.0694
     14 C         -13.1519  -17.4105   23.0199 C.ar    1  UNL1        0.0229
     15 C         -12.0866  -17.0753   22.0188 C.ar    1  UNL1        0.0717
     16 CL        -12.4345  -16.2941   20.7865 Cl      1  UNL1       -0.0809
     17 C         -13.8695  -18.5270   25.2534 C.1     1  UNL1        0.1004
     18 N         -14.9349  -18.8623   26.2547 N.1     1  UNL1       -0.1908
     19 O          -5.2881  -20.0716   21.1288 O.3     1  UNL1       -0.4640
     20 C          -4.0562  -19.3986   20.5999 C.3     1  UNL1        0.1703
     21 C          -2.7329  -19.6225   21.2697 C.3     1  UNL1        0.0613
     22 C          -1.5012  -18.9495   20.7407 C.3     1  UNL1        0.0828
     23 C          -0.5821  -18.1094   19.9043 C.3     1  UNL1        0.0193
     24 C          -1.3990  -17.4622   18.8256 C.3     1  UNL1        0.0193
     25 C          -2.8229  -17.9023   18.9952 C.3     1  UNL1        0.0828
     26 C          -4.1478  -18.5015   19.4011 C.3     1  UNL1        0.0613
     27 N          -2.8861  -18.8215   20.1789 N.3     1  UNL1       -0.1620
     28 S          -4.1178  -19.4945   20.7078 S.O2    1  UNL1        0.0420
     29 O          -3.9413  -20.6011   19.7107 O.2     1  UNL1       -0.1573
     30 O          -4.2943  -18.3880   21.7050 O.2     1  UNL1       -0.1573
     31 C          -5.3496  -20.1676   21.2368 C.3     1  UNL1        0.1459
     32 C          -6.4214  -21.2081   21.1005 C.3     1  UNL1        0.0270
     33 C          -6.4111  -20.2930   22.2891 C.3     1  UNL1        0.0270
@<TRIPOS>BOND
     1     1     2    1
     2     2     3   ar
     3     3     8    1
     4     8    10    1
     5    10    11   ar
     6    11    12   ar
     7    12    13   ar
     8    13    17    1
     9    17    18    3
    10    13    14   ar
    11    14    15   ar
    12    15    16    1
    13     3     4   ar
    14     4     5   ar
    15     5     6   ar
    16     6     7   ar
    17     7    19    1
    18    20    19    1
    19    20    21    1
    20    22    21    1
    21    22    23    1
    22    23    24    1
    23    25    24    1
    24    25    26    1
    25    25    27    1
    26    27    28    1
    27    28    29    2
    28    28    30    2
    29    28    31    1
    30    31    32    1
    31    32    33    1
    32     7     2   ar
    33    26    20    1
    34    33    31    1
    35    15    10   ar
    36    27    22    1
    37     8     9    1
@<TRIPOS>MOLECULE
*****
 33 37 0 0 0
SMALL
GASTEIGER

@<TRIPOS>ATOM
      1 C          -9.2033  -19.7489   22.1404 C.3     1  UNL1        0.0389
      2 C          -8.8203  -18.2988   22.1192 C.ar    1  UNL1        0.0629
      3 C          -7.4109  -17.8907   22.4306 C.ar    1  UNL1        0.1344
      4 N          -7.0279  -16.4406   22.4094 N.ar    1  UNL1       -0.2091
      5 C          -8.0543  -15.3986   22.0769 C.ar    1  UNL1        0.2027
      6 N          -9.4637  -15.8067   21.7655 N.ar    1  UNL1       -0.1895
      7 C          -9.8467  -17.2568   21.7867 C.ar    1  UNL1        0.2247
      8 N          -6.3844  -18.9327   22.7632 N.pl3   1  UNL1       -0.2974
      9 H          -6.6038  -19.6562   23.3938 H       1  UNL1        0.1536
     10 C          -5.0236  -18.8725   22.1349 C.ar    1  UNL1        0.0601
     11 C          -3.9260  -18.0930   22.7963 C.ar    1  UNL1        0.0162
     12 C          -2.5653  -18.0327   22.1680 C.ar    1  UNL1        0.0116
     13 C          -2.3022  -18.7520   20.8783 C.ar    1  UNL1        0.0694
     14 C          -3.3999  -19.5315   20.2169 C.ar    1  UNL1        0.0229
     15 C          -4.7606  -19.5918   20.8451 C.ar    1  UNL1        0.0717
     16 CL         -5.8582  -20.3713   20.1836 Cl      1  UNL1       -0.0809
     17 C          -0.9415  -18.6918   20.2500 C.1     1  UNL1        0.1004
     18 N           0.4193  -18.6315   19.6217 N.1     1  UNL1       -0.1908
     19 O         -11.2561  -17.6649   21.4754 O.3     1  UNL1       -0.4640
     20 C         -12.2253  -17.9252   22.5903 C.3     1  UNL1        0.1703
     21 C         -13.6999  -17.9340   22.3156 C.3     1  UNL1        0.0613
     22 C         -14.6689  -18.1943   23.4306 C.3     1  UNL1        0.0828
     23 C         -15.2373  -18.4851   24.7879 C.3     1  UNL1        0.0193
     24 C         -14.0941  -18.6252   25.7488 C.3     1  UNL1        0.0193
     25 C         -12.8192  -18.4209   24.9854 C.3     1  UNL1        0.0828
     26 C         -11.7198  -18.1767   23.9800 C.3     1  UNL1        0.0613
     27 N         -13.1744  -18.1546   23.5526 N.3     1  UNL1       -0.1620
     28 S         -12.2054  -17.8944   22.4377 S.O2    1  UNL1        0.0420
     29 O         -12.2748  -16.4230   22.7207 O.2     1  UNL1       -0.1573
     30 O         -12.1359  -19.3658   22.1546 O.2     1  UNL1       -0.1573
     31 C         -11.2363  -17.6341   21.3227 C.3     1  UNL1        0.1459
     32 C         -10.2261  -18.1388   20.3353 C.3     1  UNL1        0.0270
     33 C         -10.5680  -16.6788   20.3789 C.3     1  UNL1        0.0270
@<TRIPOS>BOND
     1     1     2    1
     2     2     3   ar
     3     3     8    1
     4     8    10    1
     5    10    11   ar
     6    11    12   ar
     7    12    13   ar
     8    13    17    1
     9    17    18    3
    10    13    14   ar
    11    14    15   ar
    12    15    16    1
    13     3     4   ar
    14     4     5   ar
    15     5     6   ar
    16     6     7   ar
    17     7    19    1
    18    20    19    1
    19    20    21    1
    20    22    21    1
    21    22    23    1
    22    23    24    1
    23    25    24    1
    24    25    26    1
    25    25    27    1
    26    27    28    1
    27    28    29    2
    28    28    30    2
    29    28    31    1
    30    31    32    1
    31    32    33    1
    32     7     2   ar
    33    26    20    1
    34    33    31    1
    35    15    10   ar
    36    27    22    1
    37     8     9    1
@<TRIPOS>MOLECULE
*****
 33 37 0 0 0
SMALL
GASTEIGER

@<TRIPOS>ATOM
      1 C          -5.9830  -19.7743   21.1767 C.3     1  UNL1        0.0389
      2 C          -6.0468  -18.4966   21.9599 C.ar    1  UNL1        0.0629
      3 C          -7.3709  -17.8413   22.2195 C.ar    1  UNL1        0.1344
      4 N          -7.4347  -16.5636   23.0027 N.ar    1  UNL1       -0.2091
      5 C          -6.1744  -15.9411   23.5262 C.ar    1  UNL1        0.2027
      6 N          -4.8503  -16.5963   23.2665 N.ar    1  UNL1       -0.1895
      7 C          -4.7866  -17.8740   22.4834 C.ar    1  UNL1        0.2247
      8 N          -8.6313  -18.4638   21.6961 N.pl3   1  UNL1       -0.2974
      9 H          -8.6532  -18.8411   20.7870 H       1  UNL1        0.1536
     10 C          -9.8582  -18.5114   22.5576 C.ar    1  UNL1        0.0601
     11 C          -9.8033  -19.1675   23.9054 C.ar    1  UNL1        0.0162
     12 C         -11.0302  -19.2151   24.7670 C.ar    1  UNL1        0.0116
     13 C         -12.3121  -18.6066   24.2807 C.ar    1  UNL1        0.0694
     14 C         -12.3671  -17.9506   22.9329 C.ar    1  UNL1        0.0229
     15 C         -11.1402  -17.9029   22.0714 C.ar    1  UNL1        0.0717
     16 CL        -11.1952  -17.2468   20.7236 Cl      1  UNL1       -0.0809
     17 C         -13.5391  -18.6543   25.1422 C.1     1  UNL1        0.1004
     18 N         -14.7661  -18.7019   26.0038 N.1     1  UNL1       -0.1908
     19 O          -3.4624  -18.5293   22.2237 O.3     1  UNL1       -0.4640
     20 C          -2.7449  -18.2833   20.9296 C.3     1  UNL1        0.1703
     21 C          -1.2487  -18.1789   20.9096 C.3     1  UNL1        0.0613
     22 C          -0.5312  -17.9330   19.6155 C.3     1  UNL1        0.0828
     23 C          -0.2547  -17.6925   18.1610 C.3     1  UNL1        0.0193
     24 C          -1.5681  -17.6711   17.4369 C.3     1  UNL1        0.0193
     25 C          -2.6564  -17.8984   18.4438 C.3     1  UNL1        0.0828
     26 C          -3.5236  -18.1419   19.6553 C.3     1  UNL1        0.0613
     27 N          -2.0155  -18.0602   19.7904 N.3     1  UNL1       -0.1620
     28 S          -2.7330  -18.3062   21.0845 S.O2    1  UNL1        0.0420
     29 O          -2.8352  -16.8266   21.3090 O.2     1  UNL1       -0.1573
     30 O          -2.6309  -19.7857   20.8599 O.2     1  UNL1       -0.1573
     31 C          -3.4505  -18.5521   22.3786 C.3     1  UNL1        0.1459
     32 C          -3.7726  -18.1389   23.7841 C.3     1  UNL1        0.0270
     33 C          -4.3709  -19.3910   23.2145 C.3     1  UNL1        0.0270
@<TRIPOS>BOND
     1     1     2    1
     2     2     3   ar
     3     3     8    1
     4     8    10    1
     5    10    11   ar
     6    11    12   ar
     7    12    13   ar
     8    13    17    1
     9    17    18    3
    10    13    14   ar
    11    14    15   ar
    12    15    16    1
    13     3     4   ar
    14     4     5   ar
    15     5     6   ar
    16     6     7   ar
    17     7    19    1
    18    20    19    1
    19    20    21    1
    20    22    21    1
    21    22    23    1
    22    23    24    1
    23    25    24    1
    24    25    26    1
    25    25    27    1
    26    27    28    1
    27    28    29    2
    28    28    30    2
    29    28    31    1
    30    31    32    1
    31    32    33    1
    32     7     2   ar
    33    26    20    1
    34    33    31    1
    35    15    10   ar
    36    27    22    1
    37     8     9    1
@<TRIPOS>MOLECULE
*****
 33 37 0 0 0
SMALL
GASTEIGER

@<TRIPOS>ATOM
      1 C          -8.0513  -17.5804   23.2503 C.3     1  UNL1        0.0389
      2 C          -8.2177  -18.2847   21.9364 C.ar    1  UNL1        0.0629
      3 C          -7.1605  -19.2336   21.4550 C.ar    1  UNL1        0.1344
      4 N          -7.3268  -19.9379   20.1411 N.ar    1  UNL1       -0.2091
      5 C          -8.5505  -19.6933   19.3087 C.ar    1  UNL1        0.2027
      6 N          -9.6076  -18.7444   19.7902 N.ar    1  UNL1       -0.1895
      7 C          -9.4412  -18.0401   21.1040 C.ar    1  UNL1        0.2247
      8 N          -5.9368  -19.4782   22.2874 N.pl3   1  UNL1       -0.2974
      9 H          -6.0161  -19.9318   23.1576 H       1  UNL1        0.1536
     10 C          -4.5925  -19.0319   21.7939 C.ar    1  UNL1        0.0601
     11 C          -3.9959  -19.6613   20.5701 C.ar    1  UNL1        0.0162
     12 C          -2.6515  -19.2149   20.0766 C.ar    1  UNL1        0.0116
     13 C          -1.9038  -18.1391   20.8071 C.ar    1  UNL1        0.0694
     14 C          -2.5005  -17.5096   22.0310 C.ar    1  UNL1        0.0229
     15 C          -3.8447  -17.9560   22.5244 C.ar    1  UNL1        0.0717
     16 CL         -4.4414  -17.3266   23.7482 Cl      1  UNL1       -0.0809
     17 C          -0.5595  -17.6927   20.3137 C.1     1  UNL1        0.1004
     18 N           0.7849  -17.2463   19.8202 N.1     1  UNL1       -0.1908
     19 O         -10.4985  -17.0912   21.5855 O.3     1  UNL1       -0.4640
     20 C         -11.4879  -17.5340   22.6224 C.3     1  UNL1        0.1703
     21 C         -12.9395  -17.1884   22.4700 C.3     1  UNL1        0.0613
     22 C         -13.9288  -17.6312   23.5069 C.3     1  UNL1        0.0828
     23 C         -14.5282  -18.2547   24.7325 C.3     1  UNL1        0.0193
     24 C         -13.4231  -18.9094   25.5071 C.3     1  UNL1        0.0193
     25 C         -12.1407  -18.6906   24.7604 C.3     1  UNL1        0.0828
     26 C         -11.0255  -18.3224   23.8118 C.3     1  UNL1        0.0613
     27 N         -12.4532  -17.9006   23.5241 N.3     1  UNL1       -0.1620
     28 S         -11.4640  -17.4578   22.4872 S.O2    1  UNL1        0.0420
     29 O         -11.7545  -18.6905   21.6835 O.2     1  UNL1       -0.1573
     30 O         -11.1734  -16.2250   23.2909 O.2     1  UNL1       -0.1573
     31 C         -10.4747  -17.0149   21.4503 C.3     1  UNL1        0.1459
     32 C         -10.0353  -16.9516   20.0175 C.3     1  UNL1        0.0270
     33 C          -9.2008  -16.3113   21.0870 C.3     1  UNL1        0.0270
@<TRIPOS>BOND
     1     1     2    1
     2     2     3   ar
     3     3     8    1
     4     8    10    1
     5    10    11   ar
     6    11    12   ar
     7    12    13   ar
     8    13    17    1
     9    17    18    3
    10    13    14   ar
    11    14    15   ar
    12    15    16    1
    13     3     4   ar
    14     4     5   ar
    15     5     6   ar
    16     6     7   ar
    17     7    19    1
    18    20    19    1
    19    20    21    1
    20    22    21    1
    21    22    23    1
    22    23    24    1
    23    25    24    1
    24    25    26    1
    25    25    27    1
    26    27    28    1
    27    28    29    2
    28    28    30    2
    29    28    31    1
    30    31    32    1
    31    32    33    1
    32     7     2   ar
    33    26    20    1
    34    33    31    1
    35    15    10   ar
    36    27    22    1
    37     8     9    1
@<TRIPOS>MOLECULE
*****
 33 37 0 0 0
SMALL
GASTEIGER

@<TRIPOS>ATOM
      1 C          -7.0575  -18.0914   21.7761 C.3     1  UNL1        0.0389
      2 C          -6.6238  -17.2567   22.9444 C.ar    1  UNL1        0.0629
      3 C          -5.3051  -17.5228   23.6079 C.ar    1  UNL1        0.1344
      4 N          -4.8714  -16.6880   24.7763 N.ar    1  UNL1       -0.2091
      5 C          -5.7564  -15.5872   25.2811 C.ar    1  UNL1        0.2027
      6 N          -7.0750  -15.3211   24.6177 N.ar    1  UNL1       -0.1895
      7 C          -7.5087  -16.1559   23.4493 C.ar    1  UNL1        0.2247
      8 N          -4.4201  -18.6236   23.1030 N.pl3   1  UNL1       -0.2974
      9 H          -4.3042  -19.4446   23.6338 H       1  UNL1        0.1536
     10 C          -3.7115  -18.4735   21.7895 C.ar    1  UNL1        0.0601
     11 C          -2.6788  -17.4002   21.6127 C.ar    1  UNL1        0.0162
     12 C          -1.9702  -17.2501   20.2991 C.ar    1  UNL1        0.0116
     13 C          -2.2946  -18.1735   19.1623 C.ar    1  UNL1        0.0694
     14 C          -3.3273  -19.2468   19.3391 C.ar    1  UNL1        0.0229
     15 C          -4.0358  -19.3969   20.6526 C.ar    1  UNL1        0.0717
     16 CL         -5.0686  -20.4703   20.8294 Cl      1  UNL1       -0.0809
     17 C          -1.5860  -18.0234   17.8488 C.1     1  UNL1        0.1004
     18 N          -0.8775  -17.8733   16.5352 N.1     1  UNL1       -0.1908
     19 O          -8.8274  -15.8898   22.7858 O.3     1  UNL1       -0.4640
     20 C         -10.0428  -16.6688   23.1935 C.3     1  UNL1        0.1703
     21 C         -11.4006  -16.2431   22.7189 C.3     1  UNL1        0.0613
     22 C         -12.6159  -17.0221   23.1265 C.3     1  UNL1        0.0828
     23 C         -13.5041  -18.0539   23.7562 C.3     1  UNL1        0.0193
     24 C         -12.6379  -18.9952   24.5396 C.3     1  UNL1        0.0193
     25 C         -11.2144  -18.5452   24.3940 C.3     1  UNL1        0.0828
     26 C          -9.9004  -17.8736   24.0757 C.3     1  UNL1        0.0613
     27 N         -11.2008  -17.3258   23.5207 N.3     1  UNL1       -0.1620
     28 S          -9.9855  -16.5468   23.1130 S.O2    1  UNL1        0.0420
     29 O         -10.0406  -17.1734   21.7513 O.2     1  UNL1       -0.1573
     30 O          -9.9304  -15.9201   24.4747 O.2     1  UNL1       -0.1573
     31 C          -8.7702  -15.7677   22.7054 C.3     1  UNL1        0.1459
     32 C          -7.7422  -14.7160   23.0003 C.3     1  UNL1        0.0270
     33 C          -7.6933  -15.4701   21.7045 C.3     1  UNL1        0.0270
@<TRIPOS>BOND
     1     1     2    1
     2     2     3   ar
     3     3     8    1
     4     8    10    1
     5    10    11   ar
     6    11    12   ar
     7    12    13   ar
     8    13    17    1
     9    17    18    3
    10    13    14   ar
    11    14    15   ar
    12    15    16    1
    13     3     4   ar
    14     4     5   ar
    15     5     6   ar
    16     6     7   ar
    17     7    19    1
    18    20    19    1
    19    20    21    1
    20    22    21    1
    21    22    23    1
    22    23    24    1
    23    25    24    1
    24    25    26    1
    25    25    27    1
    26    27    28    1
    27    28    29    2
    28    28    30    2
    29    28    31    1
    30    31    32    1
    31    32    33    1
    32     7     2   ar
    33    26    20    1
    34    33    31    1
    35    15    10   ar
    36    27    22    1
    37     8     9    1
@<TRIPOS>MOLECULE
*****
 33 37 0 0 0
SMALL
GASTEIGER

@<TRIPOS>ATOM
      1 C          -6.7838  -18.0330   22.1615 C.3     1  UNL1        0.0389
      2 C          -7.3589  -18.8124   21.0162 C.ar    1  UNL1        0.0629
      3 C          -8.7082  -18.4540   20.4675 C.ar    1  UNL1        0.1344
      4 N          -9.2833  -19.2333   19.3222 N.ar    1  UNL1       -0.2091
      5 C          -8.5091  -20.3711   18.7255 C.ar    1  UNL1        0.2027
      6 N          -7.1599  -20.7295   19.2741 N.ar    1  UNL1       -0.1895
      7 C          -6.5848  -19.9501   20.4194 C.ar    1  UNL1        0.2247
      8 N          -9.4824  -17.3162   21.0643 N.pl3   1  UNL1       -0.2974
      9 H         -10.1992  -16.8835   20.5465 H       1  UNL1        0.1536
     10 C          -9.1645  -16.8378   22.4500 C.ar    1  UNL1        0.0601
     11 C          -8.3253  -15.6100   22.6454 C.ar    1  UNL1        0.0162
     12 C          -8.0074  -15.1316   24.0311 C.ar    1  UNL1        0.0116
     13 C          -8.5287  -15.8812   25.2213 C.ar    1  UNL1        0.0694
     14 C          -9.3679  -17.1090   25.0258 C.ar    1  UNL1        0.0229
     15 C          -9.6858  -17.5874   23.6402 C.ar    1  UNL1        0.0717
     16 CL        -10.5250  -18.8152   23.4447 Cl      1  UNL1       -0.0809
     17 C          -8.2108  -15.4028   26.6070 C.1     1  UNL1        0.1004
     18 N          -7.8929  -14.9244   27.9926 N.1     1  UNL1       -0.1908
     19 O          -5.2355  -20.3085   20.9680 O.3     1  UNL1       -0.4640
     20 C          -4.0169  -19.5649   20.5074 C.3     1  UNL1        0.1703
     21 C          -2.6841  -19.8473   21.1350 C.3     1  UNL1        0.0613
     22 C          -1.4655  -19.1037   20.6743 C.3     1  UNL1        0.0828
     23 C          -0.5648  -18.1630   19.9300 C.3     1  UNL1        0.0193
     24 C          -1.4003  -17.4077   18.9394 C.3     1  UNL1        0.0193
     25 C          -2.8174  -17.8815   19.0714 C.3     1  UNL1        0.0828
     26 C          -4.1311  -18.5389   19.4191 C.3     1  UNL1        0.0613
     27 N          -2.8577  -18.9296   20.1436 N.3     1  UNL1       -0.1620
     28 S          -4.0762  -19.6733   20.6043 S.O2    1  UNL1        0.0420
     29 O          -3.9885  -20.5631   19.4000 O.2     1  UNL1       -0.1573
     30 O          -4.1640  -18.7834   21.8086 O.2     1  UNL1       -0.1573
     31 C          -5.2947  -20.4169   21.0650 C.3     1  UNL1        0.1459
     32 C          -6.4055  -20.6032   22.0557 C.3     1  UNL1        0.0270
     33 C          -6.2945  -21.5183   20.8723 C.3     1  UNL1        0.0270
@<TRIPOS>BOND
     1     1     2    1
     2     2     3   ar
     3     3     8    1
     4     8    10    1
     5    10    11   ar
     6    11    12   ar
     7    12    13   ar
     8    13    17    1
     9    17    18    3
    10    13    14   ar
    11    14    15   ar
    12    15    16    1
    13     3     4   ar
    14     4     5   ar
    15     5     6   ar
    16     6     7   ar
    17     7    19    1
    18    20    19    1
    19    20    21    1
    20    22    21    1
    21    22    23    1
    22    23    24    1
    23    25    24    1
    24    25    26    1
    25    25    27    1
    26    27    28    1
    27    28    29    2
    28    28    30    2
    29    28    31    1
    30    31    32    1
    31    32    33    1
    32     7     2   ar
    33    26    20    1
    34    33    31    1
    35    15    10   ar
    36    27    22    1
    37     8     9    1
@<TRIPOS>MOLECULE
*****
 33 37 0 0 0
SMALL
GASTEIGER

@<TRIPOS>ATOM
      1 C           7.7760   -3.5378   20.4808 C.3     1  UNL1        0.0389
      2 C           6.5614   -3.1625   21.2770 C.ar    1  UNL1        0.0629
      3 C           6.5854   -3.2620   22.7735 C.ar    1  UNL1        0.1344
      4 N           5.3708   -2.8868   23.5697 N.ar    1  UNL1       -0.2091
      5 C           4.1323   -2.4120   22.8694 C.ar    1  UNL1        0.2027
      6 N           4.1083   -2.3125   21.3729 N.ar    1  UNL1       -0.1895
      7 C           5.3229   -2.6877   20.5768 C.ar    1  UNL1        0.2247
      8 N           7.8240   -3.7368   23.4739 N.pl3   1  UNL1       -0.2974
      9 H           8.6647   -3.2326   23.3832 H       1  UNL1        0.1536
     10 C           7.7817   -4.9799   24.3123 C.ar    1  UNL1        0.0601
     11 C           7.1652   -4.9419   25.6792 C.ar    1  UNL1        0.0162
     12 C           7.1229   -6.1850   26.5177 C.ar    1  UNL1        0.0116
     13 C           7.6972   -7.4660   25.9892 C.ar    1  UNL1        0.0694
     14 C           8.3138   -7.5039   24.6223 C.ar    1  UNL1        0.0229
     15 C           8.3561   -6.2609   23.7839 C.ar    1  UNL1        0.0717
     16 CL          8.9727   -6.2988   22.4170 Cl      1  UNL1       -0.0809
     17 C           7.6550   -8.7090   26.8277 C.1     1  UNL1        0.1004
     18 N           7.6127   -9.9521   27.6661 N.1     1  UNL1       -0.1908
     19 O           5.2989   -2.5882   19.0802 O.3     1  UNL1       -0.4640
     20 C           5.9004   -1.3953   18.3982 C.3     1  UNL1        0.1703
     21 C           5.1863   -0.7498   17.2478 C.3     1  UNL1        0.0613
     22 C           5.7879    0.4431   16.5658 C.3     1  UNL1        0.0828
     23 C           6.7221    1.5601   16.2059 C.3     1  UNL1        0.0193
     24 C           7.8940    1.5035   17.1406 C.3     1  UNL1        0.0193
     25 C           7.6840    0.3515   18.0780 C.3     1  UNL1        0.0828
     26 C           7.2161   -0.8478   18.8666 C.3     1  UNL1        0.0613
     27 N           6.3824   -0.3039   17.7228 N.3     1  UNL1       -0.1620
     28 S           5.7808   -1.4968   18.4048 S.O2    1  UNL1        0.0420
     29 O           5.0248   -0.5878   19.3279 O.2     1  UNL1       -0.1573
     30 O           6.5368   -2.4058   17.4817 O.2     1  UNL1       -0.1573
     31 C           5.1792   -2.6897   19.0868 C.3     1  UNL1        0.1459
     32 C           4.0198   -3.3424   19.7793 C.3     1  UNL1        0.0270
     33 C           5.2966   -4.1029   19.5755 C.3     1  UNL1        0.0270
@<TRIPOS>BOND
     1     1     2    1
     2     2     3   ar
     3     3     8    1
     4     8    10    1
     5    10    11   ar
     6    11    12   ar
     7    12    13   ar
     8    13    17    1
     9    17    18    3
    10    13    14   ar
    11    14    15   ar
    12    15    16    1
    13     3     4   ar
    14     4     5   ar
    15     5     6   ar
    16     6     7   ar
    17     7    19    1
    18    20    19    1
    19    20    21    1
    20    22    21    1
    21    22    23    1
    22    23    24    1
    23    25    24    1
    24    25    26    1
    25    25    27    1
    26    27    28    1
    27    28    29    2
    28    28    30    2
    29    28    31    1
    30    31    32    1
    31    32    33    1
    32     7     2   ar
    33    26    20    1
    34    33    31    1
    35    15    10   ar
    36    27    22    1
    37     8     9    1
