@<TRIPOS>MOLECULE
*****
 33 37 0 0 0
SMALL
GASTEIGER

@<TRIPOS>ATOM
      1 N          -0.9814    2.5382   26.8502 N.3     1  UNL1       -0.2695
      2 C           0.1618    2.7526   25.9031 C.3     1  UNL1        0.0939
      3 C           1.3812    1.8834   25.9905 C.3     1  UNL1        0.1107
      4 N           1.4574    0.7999   27.0250 N.am    1  UNL1       -0.2764
      5 C           2.6768   -0.0693   27.1123 C.2     1  UNL1        0.2302
      6 O           2.7530   -1.1528   28.1468 O.2     1  UNL1       -0.2745
      7 C           0.3141    0.5855   27.9721 C.3     1  UNL1        0.1107
      8 C          -0.9053    1.4547   27.8847 C.3     1  UNL1        0.0939
      9 C          -2.2008    3.4073   26.7629 C.3     1  UNL1        0.0769
     10 C          -2.9669    3.4977   25.4764 C.3     1  UNL1        0.0433
     11 C          -4.8402    3.0074   23.1850 C.3     1  UNL1        0.0305
     12 C          -5.2451    3.9230   24.3020 C.ar    1  UNL1       -0.0260
     13 C          -4.3085    4.1681   25.4478 C.ar    1  UNL1       -0.0249
     14 C          -4.7133    5.0836   26.5648 C.ar    1  UNL1       -0.0043
     15 C          -6.0548    5.7541   26.5362 C.ar    1  UNL1        0.0059
     16 C          -6.9915    5.5089   25.3906 C.ar    1  UNL1        0.0748
     17 C          -6.5867    4.5934   24.2735 C.ar    1  UNL1        0.0233
     18 C          -7.7125    4.5440   23.2835 C.3     1  UNL1        0.2352
     19 O          -8.8131    5.4290   23.7888 O.3     1  UNL1       -0.4404
     20 C          -8.3675    6.0254   25.0910 C.2     1  UNL1        0.3413
     21 O          -9.1591    6.9720   25.9439 O.2     1  UNL1       -0.2449
     22 C           3.8201    0.1452   26.1652 C.3     1  UNL1        0.1131
     23 C           3.9306   -0.6874   24.9224 C.ar    1  UNL1        0.0062
     24 C           3.1361   -0.3238   23.7031 C.ar    1  UNL1        0.0009
     25 C           3.2466   -1.1564   22.4602 C.ar    1  UNL1        0.0386
     26 C           4.1514   -2.3525   22.4366 C.ar    1  UNL1        0.1672
     27 N           4.9458   -2.7160   23.6560 N.ar    1  UNL1       -0.2252
     28 C           4.8354   -1.8835   24.8989 C.ar    1  UNL1        0.0968
     29 N           4.2619   -3.1851   21.1939 N.ar    1  UNL1       -0.1708
     30 C           3.6023   -2.8967   19.8779 C.ar    1  UNL1        0.2272
     31 N           3.9841   -3.9856   18.9196 N.ar    1  UNL1       -0.1044
     32 N           4.8798   -4.9470   19.6432 N.ar    1  UNL1       -0.0222
     33 N           5.0514   -4.4522   21.0488 N.ar    1  UNL1       -0.0371
@<TRIPOS>BOND
     1    11    12    1
     2    12    13   ar
     3    13    10    1
     4    10     9    1
     5     9     1    1
     6     1     2    1
     7     2     3    1
     8     3     4    1
     9     4     5   am
    10     5     6    2
    11     5    22    1
    12    22    23    1
    13    23    24   ar
    14    24    25   ar
    15    25    26   ar
    16    26    29    1
    17    29    30   ar
    18    30    31   ar
    19    31    32   ar
    20    32    33   ar
    21    26    27   ar
    22    27    28   ar
    23     4     7    1
    24     7     8    1
    25    13    14   ar
    26    14    15   ar
    27    15    16   ar
    28    16    17   ar
    29    17    18    1
    30    18    19    1
    31    19    20    1
    32    20    21    2
    33    17    12   ar
    34     8     1    1
    35    20    16    1
    36    28    23   ar
    37    33    29   ar
@<TRIPOS>MOLECULE
*****
 33 37 0 0 0
SMALL
GASTEIGER

@<TRIPOS>ATOM
      1 N           0.6594    2.8710   19.4176 N.3     1  UNL1       -0.2695
      2 C          -0.1988    2.0496   20.3335 C.3     1  UNL1        0.0939
      3 C          -1.6278    2.4385   20.5715 C.3     1  UNL1        0.1107
      4 N          -2.1986    3.6488   19.8938 N.am    1  UNL1       -0.2764
      5 C          -3.6277    4.0377   20.1319 C.2     1  UNL1        0.2302
      6 O          -4.1985    5.2480   19.4541 O.2     1  UNL1       -0.2745
      7 C          -1.3404    4.4702   18.9779 C.3     1  UNL1        0.1107
      8 C           0.0886    4.0813   18.7399 C.3     1  UNL1        0.0939
      9 C           2.0884    2.4822   19.1795 C.3     1  UNL1        0.0769
     10 C           2.4081    1.2379   18.4051 C.3     1  UNL1        0.0433
     11 C           3.9060   -0.8826   16.9018 C.3     1  UNL1        0.0305
     12 C           3.6442   -1.0471   18.3696 C.ar    1  UNL1       -0.0260
     13 C           2.8952    0.0131   19.1213 C.ar    1  UNL1       -0.0249
     14 C           2.6334   -0.1513   20.5890 C.ar    1  UNL1       -0.0043
     15 C           3.1205   -1.3760   21.3052 C.ar    1  UNL1        0.0059
     16 C           3.8694   -2.4362   20.5535 C.ar    1  UNL1        0.0748
     17 C           4.1313   -2.2718   19.0857 C.ar    1  UNL1        0.0233
     18 C           4.8909   -3.4756   18.6126 C.3     1  UNL1        0.2352
     19 O           5.0985   -4.3840   19.7881 O.3     1  UNL1       -0.4404
     20 C           4.4672   -3.7417   20.9876 C.2     1  UNL1        0.3413
     21 O           4.4387   -4.3058   22.3772 O.2     1  UNL1       -0.2449
     22 C          -4.4858    3.2162   21.0477 C.3     1  UNL1        0.1131
     23 C          -4.9813    3.8017   22.3368 C.ar    1  UNL1        0.0062
     24 C          -4.2145    3.5767   23.6062 C.ar    1  UNL1        0.0009
     25 C          -4.7099    4.1622   24.8955 C.ar    1  UNL1        0.0386
     26 C          -5.9720    4.9726   24.9151 C.ar    1  UNL1        0.1672
     27 N          -6.7387    5.1975   23.6456 N.ar    1  UNL1       -0.2252
     28 C          -6.2434    4.6121   22.3565 C.ar    1  UNL1        0.0968
     29 N          -6.4674    5.5580   26.2042 N.ar    1  UNL1       -0.1708
     30 C          -7.7662    6.2818   26.4023 C.ar    1  UNL1        0.2272
     31 N          -7.8525    6.6935   27.8421 N.ar    1  UNL1       -0.1044
     32 N          -6.6070    6.2242   28.5339 N.ar    1  UNL1       -0.0222
     33 N          -5.7510    5.5224   27.5216 N.ar    1  UNL1       -0.0371
@<TRIPOS>BOND
     1    11    12    1
     2    12    13   ar
     3    13    10    1
     4    10     9    1
     5     9     1    1
     6     1     2    1
     7     2     3    1
     8     3     4    1
     9     4     5   am
    10     5     6    2
    11     5    22    1
    12    22    23    1
    13    23    24   ar
    14    24    25   ar
    15    25    26   ar
    16    26    29    1
    17    29    30   ar
    18    30    31   ar
    19    31    32   ar
    20    32    33   ar
    21    26    27   ar
    22    27    28   ar
    23     4     7    1
    24     7     8    1
    25    13    14   ar
    26    14    15   ar
    27    15    16   ar
    28    16    17   ar
    29    17    18    1
    30    18    19    1
    31    19    20    1
    32    20    21    2
    33    17    12   ar
    34     8     1    1
    35    20    16    1
    36    28    23   ar
    37    33    29   ar
@<TRIPOS>MOLECULE
*****
 33 37 0 0 0
SMALL
GASTEIGER

@<TRIPOS>ATOM
      1 N          -0.8711    3.3187   27.4646 N.3     1  UNL1       -0.2695
      2 C           0.2385    4.0265   28.1843 C.3     1  UNL1        0.0939
      3 C           1.1482    3.2602   29.0983 C.3     1  UNL1        0.1107
      4 N           0.9483    1.7864   29.2927 N.am    1  UNL1       -0.2764
      5 C           1.8580    1.0203   30.2067 C.2     1  UNL1        0.2302
      6 O           1.6582   -0.4536   30.4011 O.2     1  UNL1       -0.2745
      7 C          -0.1614    1.0787   28.5730 C.3     1  UNL1        0.1107
      8 C          -1.0710    1.8449   27.6590 C.3     1  UNL1        0.0939
      9 C          -1.7809    4.0848   26.5506 C.3     1  UNL1        0.0769
     10 C          -2.9402    3.3947   25.8952 C.3     1  UNL1        0.0433
     11 C          -4.6798    2.9074   23.5000 C.3     1  UNL1        0.0305
     12 C          -5.1289    3.8548   24.5728 C.ar    1  UNL1       -0.0260
     13 C          -4.2591    4.0985   25.7705 C.ar    1  UNL1       -0.0249
     14 C          -4.7081    5.0458   26.8432 C.ar    1  UNL1       -0.0043
     15 C          -6.0268    5.7495   26.7185 C.ar    1  UNL1        0.0059
     16 C          -6.8966    5.5059   25.5209 C.ar    1  UNL1        0.0748
     17 C          -6.4476    4.5586   24.4481 C.ar    1  UNL1        0.0233
     18 C          -7.5106    4.5184   23.3905 C.3     1  UNL1        0.2352
     19 O          -8.6165    5.4410   23.8097 O.3     1  UNL1       -0.4404
     20 C          -8.2371    6.0513   25.1264 C.2     1  UNL1        0.3413
     21 O          -9.0546    7.0344   25.9107 O.2     1  UNL1       -0.2449
     22 C           2.9677    1.7280   30.9263 C.3     1  UNL1        0.1131
     23 C           3.0098    1.7268   32.4257 C.ar    1  UNL1        0.0062
     24 C           4.0328    0.8998   33.1465 C.ar    1  UNL1        0.0009
     25 C           4.0750    0.8985   34.6460 C.ar    1  UNL1        0.0386
     26 C           3.0942    1.7242   35.4246 C.ar    1  UNL1        0.1672
     27 N           2.0712    2.5512   34.7037 N.ar    1  UNL1       -0.2252
     28 C           2.0290    2.5525   33.2043 C.ar    1  UNL1        0.0968
     29 N           3.1363    1.7229   36.9240 N.ar    1  UNL1       -0.1708
     30 C           4.3735    1.7579   37.7713 C.ar    1  UNL1        0.2272
     31 N           3.9504    1.7431   39.2103 N.ar    1  UNL1       -0.1044
     32 N           2.4516    1.6990   39.2524 N.ar    1  UNL1       -0.0222
     33 N           1.9485    1.6866   37.8393 N.ar    1  UNL1       -0.0371
@<TRIPOS>BOND
     1    11    12    1
     2    12    13   ar
     3    13    10    1
     4    10     9    1
     5     9     1    1
     6     1     2    1
     7     2     3    1
     8     3     4    1
     9     4     5   am
    10     5     6    2
    11     5    22    1
    12    22    23    1
    13    23    24   ar
    14    24    25   ar
    15    25    26   ar
    16    26    29    1
    17    29    30   ar
    18    30    31   ar
    19    31    32   ar
    20    32    33   ar
    21    26    27   ar
    22    27    28   ar
    23     4     7    1
    24     7     8    1
    25    13    14   ar
    26    14    15   ar
    27    15    16   ar
    28    16    17   ar
    29    17    18    1
    30    18    19    1
    31    19    20    1
    32    20    21    2
    33    17    12   ar
    34     8     1    1
    35    20    16    1
    36    28    23   ar
    37    33    29   ar
@<TRIPOS>MOLECULE
*****
 33 37 0 0 0
SMALL
GASTEIGER

@<TRIPOS>ATOM
      1 N           7.8029   -3.6754   22.6697 N.3     1  UNL1       -0.2695
      2 C           6.3637   -3.9362   22.3369 C.3     1  UNL1        0.0939
      3 C           5.8296   -3.5739   20.9828 C.3     1  UNL1        0.1107
      4 N           6.7346   -2.9510   19.9616 N.am    1  UNL1       -0.2764
      5 C           6.2004   -2.5888   18.6075 C.2     1  UNL1        0.2302
      6 O           7.1054   -1.9658   17.5863 O.2     1  UNL1       -0.2745
      7 C           8.1738   -2.6902   20.2945 C.3     1  UNL1        0.1107
      8 C           8.7079   -3.0524   21.6485 C.3     1  UNL1        0.0939
      9 C           8.3370   -4.0376   24.0238 C.3     1  UNL1        0.0769
     10 C           7.5430   -4.9326   24.9285 C.3     1  UNL1        0.0433
     11 C           7.8234   -6.8981   27.1776 C.3     1  UNL1        0.0305
     12 C           7.3917   -5.4900   27.4616 C.ar    1  UNL1       -0.0260
     13 C           7.2514   -4.5071   26.3371 C.ar    1  UNL1       -0.0249
     14 C           6.8197   -3.0990   26.6211 C.ar    1  UNL1       -0.0043
     15 C           6.5282   -2.6736   28.0296 C.ar    1  UNL1        0.0059
     16 C           6.6684   -3.6563   29.1542 C.ar    1  UNL1        0.0748
     17 C           7.1001   -5.0645   28.8702 C.ar    1  UNL1        0.0233
     18 C           7.1504   -5.8057   30.1733 C.3     1  UNL1        0.2352
     19 O           6.7498   -4.8555   31.2626 O.3     1  UNL1       -0.4404
     20 C           6.4519   -3.5272   30.6328 C.2     1  UNL1        0.3413
     21 O           6.0143   -2.2874   31.3549 O.2     1  UNL1       -0.2449
     22 C           4.7613   -2.8495   18.2747 C.3     1  UNL1        0.1131
     23 C           3.7191   -1.8190   18.5937 C.ar    1  UNL1        0.0062
     24 C           2.8590   -1.9747   19.8127 C.ar    1  UNL1        0.0009
     25 C           1.8168   -0.9440   20.1319 C.ar    1  UNL1        0.0386
     26 C           1.6347    0.2422   19.2320 C.ar    1  UNL1        0.1672
     27 N           2.4949    0.3977   18.0130 N.ar    1  UNL1       -0.2252
     28 C           3.5371   -0.6328   17.6939 C.ar    1  UNL1        0.0968
     29 N           0.5926    1.2727   19.5511 N.ar    1  UNL1       -0.1708
     30 C           0.3187    2.5218   18.7670 C.ar    1  UNL1        0.2272
     31 N          -0.8018    3.2561   19.4416 N.ar    1  UNL1       -0.1044
     32 N          -1.2204    2.4610   20.6428 N.ar    1  UNL1       -0.0222
     33 N          -0.3586    1.2352   20.7103 N.ar    1  UNL1       -0.0371
@<TRIPOS>BOND
     1    11    12    1
     2    12    13   ar
     3    13    10    1
     4    10     9    1
     5     9     1    1
     6     1     2    1
     7     2     3    1
     8     3     4    1
     9     4     5   am
    10     5     6    2
    11     5    22    1
    12    22    23    1
    13    23    24   ar
    14    24    25   ar
    15    25    26   ar
    16    26    29    1
    17    29    30   ar
    18    30    31   ar
    19    31    32   ar
    20    32    33   ar
    21    26    27   ar
    22    27    28   ar
    23     4     7    1
    24     7     8    1
    25    13    14   ar
    26    14    15   ar
    27    15    16   ar
    28    16    17   ar
    29    17    18    1
    30    18    19    1
    31    19    20    1
    32    20    21    2
    33    17    12   ar
    34     8     1    1
    35    20    16    1
    36    28    23   ar
    37    33    29   ar
@<TRIPOS>MOLECULE
*****
 33 37 0 0 0
SMALL
GASTEIGER

@<TRIPOS>ATOM
      1 N           8.8506   -5.6180   26.9729 N.3     1  UNL1       -0.2695
      2 C           8.8794   -4.2512   27.5902 C.3     1  UNL1        0.0939
      3 C           8.3577   -4.0455   28.9815 C.3     1  UNL1        0.1107
      4 N           7.8073   -5.2066   29.7554 N.am    1  UNL1       -0.2764
      5 C           7.2858   -5.0008   31.1467 C.2     1  UNL1        0.2302
      6 O           6.7354   -6.1619   31.9207 O.2     1  UNL1       -0.2745
      7 C           7.7786   -6.5734   29.1381 C.3     1  UNL1        0.1107
      8 C           8.3002   -6.7790   27.7468 C.3     1  UNL1        0.0939
      9 C           9.3722   -5.8237   25.5816 C.3     1  UNL1        0.0769
     10 C           8.4447   -6.2731   24.4917 C.3     1  UNL1        0.0433
     11 C           6.4202   -4.0663   24.6705 C.3     1  UNL1        0.0305
     12 C           7.1820   -4.2839   23.3967 C.ar    1  UNL1       -0.0260
     13 C           8.1943   -5.3873   23.3073 C.ar    1  UNL1       -0.0249
     14 C           8.9560   -5.6049   22.0337 C.ar    1  UNL1       -0.0043
     15 C           8.7057   -4.7192   20.8493 C.ar    1  UNL1        0.0059
     16 C           7.6935   -3.6158   20.9387 C.ar    1  UNL1        0.0748
     17 C           6.9317   -3.3981   22.2123 C.ar    1  UNL1        0.0233
     18 C           6.0030   -2.2387   22.0047 C.3     1  UNL1        0.2352
     19 O           6.1908   -1.7397   20.6027 O.3     1  UNL1       -0.4404
     20 C           7.2356   -2.5908   19.9438 C.2     1  UNL1        0.3413
     21 O           7.7348   -2.4428   18.5371 O.2     1  UNL1       -0.2449
     22 C           7.3146   -3.6340   31.7640 C.3     1  UNL1        0.1131
     23 C           6.1257   -2.7283   31.6363 C.ar    1  UNL1        0.0062
     24 C           5.9666   -1.8669   30.4186 C.ar    1  UNL1        0.0009
     25 C           4.7777   -0.9611   30.2909 C.ar    1  UNL1        0.0386
     26 C           3.7480   -0.9168   31.3807 C.ar    1  UNL1        0.1672
     27 N           3.9073   -1.7782   32.5984 N.ar    1  UNL1       -0.2252
     28 C           5.0961   -2.6840   32.7261 C.ar    1  UNL1        0.0968
     29 N           2.5592   -0.0111   31.2530 N.ar    1  UNL1       -0.1708
     30 C           2.2496    1.1662   32.1294 C.ar    1  UNL1        0.2272
     31 N           0.9703    1.7812   31.6445 N.ar    1  UNL1       -0.1044
     32 N           0.4892    0.9840   30.4683 N.ar    1  UNL1       -0.0222
     33 N           1.4713   -0.1237   30.2265 N.ar    1  UNL1       -0.0371
@<TRIPOS>BOND
     1    11    12    1
     2    12    13   ar
     3    13    10    1
     4    10     9    1
     5     9     1    1
     6     1     2    1
     7     2     3    1
     8     3     4    1
     9     4     5   am
    10     5     6    2
    11     5    22    1
    12    22    23    1
    13    23    24   ar
    14    24    25   ar
    15    25    26   ar
    16    26    29    1
    17    29    30   ar
    18    30    31   ar
    19    31    32   ar
    20    32    33   ar
    21    26    27   ar
    22    27    28   ar
    23     4     7    1
    24     7     8    1
    25    13    14   ar
    26    14    15   ar
    27    15    16   ar
    28    16    17   ar
    29    17    18    1
    30    18    19    1
    31    19    20    1
    32    20    21    2
    33    17    12   ar
    34     8     1    1
    35    20    16    1
    36    28    23   ar
    37    33    29   ar
@<TRIPOS>MOLECULE
*****
 33 37 0 0 0
SMALL
GASTEIGER

@<TRIPOS>ATOM
      1 N          -4.1103    4.6820   20.5179 N.3     1  UNL1       -0.2695
      2 C          -3.8122    3.6460   19.4749 C.3     1  UNL1        0.0939
      3 C          -2.3904    3.2851   19.1611 C.3     1  UNL1        0.1107
      4 N          -1.2668    3.9602   19.8903 N.am    1  UNL1       -0.2764
      5 C           0.1549    3.5992   19.5764 C.2     1  UNL1        0.2302
      6 O           1.2785    4.2743   20.3056 O.2     1  UNL1       -0.2745
      7 C          -1.5649    4.9962   20.9333 C.3     1  UNL1        0.1107
      8 C          -2.9866    5.3571   21.2470 C.3     1  UNL1        0.0939
      9 C          -5.5319    5.0430   20.8317 C.3     1  UNL1        0.0769
     10 C          -6.3087    4.2341   21.8279 C.3     1  UNL1        0.0433
     11 C          -4.4000    3.6958   24.0790 C.3     1  UNL1        0.0305
     12 C          -5.6296    4.5206   24.3193 C.ar    1  UNL1       -0.0260
     13 C          -6.5840    4.7898   23.1938 C.ar    1  UNL1       -0.0249
     14 C          -7.8136    5.6146   23.4341 C.ar    1  UNL1       -0.0043
     15 C          -8.0889    6.1702   24.7999 C.ar    1  UNL1        0.0059
     16 C          -7.1346    5.9011   25.9254 C.ar    1  UNL1        0.0748
     17 C          -5.9050    5.0763   25.6851 C.ar    1  UNL1        0.0233
     18 C          -5.1521    4.9787   26.9788 C.3     1  UNL1        0.2352
     19 O          -5.9165    5.7433   28.0187 O.3     1  UNL1       -0.4404
     20 C          -7.1417    6.3133   27.3676 C.2     1  UNL1        0.3413
     21 O          -8.1900    7.1488   28.0407 O.2     1  UNL1       -0.2449
     22 C           0.4529    2.5632   18.5334 C.3     1  UNL1        0.1131
     23 C           1.1813    1.3074   18.9105 C.ar    1  UNL1        0.0062
     24 C           2.5121    0.9977   18.2915 C.ar    1  UNL1        0.0009
     25 C           3.2406   -0.2583   18.6686 C.ar    1  UNL1        0.0386
     26 C           2.6384   -1.2044   19.6646 C.ar    1  UNL1        0.1672
     27 N           1.3076   -0.8946   20.2836 N.ar    1  UNL1       -0.2252
     28 C           0.5791    0.3613   19.9066 C.ar    1  UNL1        0.0968
     29 N           3.3668   -2.4602   20.0417 N.ar    1  UNL1       -0.1708
     30 C           3.4400   -3.7162   19.2249 C.ar    1  UNL1        0.2272
     31 N           4.2683   -4.7127   19.9803 N.ar    1  UNL1       -0.1044
     32 N           4.7072   -4.0727   21.2640 N.ar    1  UNL1       -0.0222
     33 N           4.1500   -2.6806   21.3019 N.ar    1  UNL1       -0.0371
@<TRIPOS>BOND
     1    11    12    1
     2    12    13   ar
     3    13    10    1
     4    10     9    1
     5     9     1    1
     6     1     2    1
     7     2     3    1
     8     3     4    1
     9     4     5   am
    10     5     6    2
    11     5    22    1
    12    22    23    1
    13    23    24   ar
    14    24    25   ar
    15    25    26   ar
    16    26    29    1
    17    29    30   ar
    18    30    31   ar
    19    31    32   ar
    20    32    33   ar
    21    26    27   ar
    22    27    28   ar
    23     4     7    1
    24     7     8    1
    25    13    14   ar
    26    14    15   ar
    27    15    16   ar
    28    16    17   ar
    29    17    18    1
    30    18    19    1
    31    19    20    1
    32    20    21    2
    33    17    12   ar
    34     8     1    1
    35    20    16    1
    36    28    23   ar
    37    33    29   ar
@<TRIPOS>MOLECULE
*****
 33 37 0 0 0
SMALL
GASTEIGER

@<TRIPOS>ATOM
      1 N          -1.0239    3.8581   22.9996 N.3     1  UNL1       -0.2695
      2 C           0.4319    3.5486   22.8126 C.3     1  UNL1        0.0939
      3 C           0.9640    3.2444   21.4435 C.3     1  UNL1        0.1107
      4 N           0.0405    3.2496   20.2615 N.am    1  UNL1       -0.2764
      5 C           0.5727    2.9454   18.8925 C.2     1  UNL1        0.2302
      6 O          -0.3508    2.9506   17.7106 O.2     1  UNL1       -0.2745
      7 C          -1.4153    3.5591   20.4486 C.3     1  UNL1        0.1107
      8 C          -1.9474    3.8633   21.8176 C.3     1  UNL1        0.0939
      9 C          -1.5561    4.1624   24.3686 C.3     1  UNL1        0.0769
     10 C          -2.7366    3.4045   24.8998 C.3     1  UNL1        0.0433
     11 C          -4.8929    2.8960   22.8769 C.3     1  UNL1        0.0305
     12 C          -5.1446    3.8312   24.0225 C.ar    1  UNL1       -0.0260
     13 C          -4.0665    4.0855   25.0339 C.ar    1  UNL1       -0.0249
     14 C          -4.3181    5.0205   26.1794 C.ar    1  UNL1       -0.0043
     15 C          -5.6479    5.7015   26.3135 C.ar    1  UNL1        0.0059
     16 C          -6.7260    5.4473   25.3021 C.ar    1  UNL1        0.0748
     17 C          -6.4744    4.5121   24.1566 C.ar    1  UNL1        0.0233
     18 C          -7.7188    4.4574   23.3208 C.3     1  UNL1        0.2352
     19 O          -8.7395    5.3588   23.9499 O.3     1  UNL1       -0.4404
     20 C          -8.1260    5.9705   25.1743 C.2     1  UNL1        0.3413
     21 O          -8.7950    6.9360   26.1072 O.2     1  UNL1       -0.2449
     22 C           2.0285    2.6359   18.7055 C.3     1  UNL1        0.1131
     23 C           2.5246    1.2308   18.8773 C.ar    1  UNL1        0.0062
     24 C           3.8957    0.8558   18.3984 C.ar    1  UNL1        0.0009
     25 C           4.3919   -0.5494   18.5702 C.ar    1  UNL1        0.0386
     26 C           3.5169   -1.5795   19.2209 C.ar    1  UNL1        0.1672
     27 N           2.1458   -1.2043   19.6998 N.ar    1  UNL1       -0.2252
     28 C           1.6496    0.2008   19.5280 C.ar    1  UNL1        0.0968
     29 N           4.0130   -2.9845   19.3927 N.ar    1  UNL1       -0.1708
     30 C           5.3967   -3.3863   19.8097 C.ar    1  UNL1        0.2272
     31 N           5.4513   -4.8846   19.8524 N.ar    1  UNL1       -0.1044
     32 N           4.1012   -5.4091   19.4618 N.ar    1  UNL1       -0.0222
     33 N           3.2123   -4.2346   19.1778 N.ar    1  UNL1       -0.0371
@<TRIPOS>BOND
     1    11    12    1
     2    12    13   ar
     3    13    10    1
     4    10     9    1
     5     9     1    1
     6     1     2    1
     7     2     3    1
     8     3     4    1
     9     4     5   am
    10     5     6    2
    11     5    22    1
    12    22    23    1
    13    23    24   ar
    14    24    25   ar
    15    25    26   ar
    16    26    29    1
    17    29    30   ar
    18    30    31   ar
    19    31    32   ar
    20    32    33   ar
    21    26    27   ar
    22    27    28   ar
    23     4     7    1
    24     7     8    1
    25    13    14   ar
    26    14    15   ar
    27    15    16   ar
    28    16    17   ar
    29    17    18    1
    30    18    19    1
    31    19    20    1
    32    20    21    2
    33    17    12   ar
    34     8     1    1
    35    20    16    1
    36    28    23   ar
    37    33    29   ar
@<TRIPOS>MOLECULE
*****
 33 37 0 0 0
SMALL
GASTEIGER

@<TRIPOS>ATOM
      1 N           0.7067    2.3835   23.3504 N.3     1  UNL1       -0.2695
      2 C           0.3702    1.2059   24.2165 C.3     1  UNL1        0.0939
      3 C           0.1384    1.3978   25.6861 C.3     1  UNL1        0.1107
      4 N           0.2430    2.7671   26.2895 N.am    1  UNL1       -0.2764
      5 C           0.0111    2.9588   27.7590 C.2     1  UNL1        0.2302
      6 O           0.1157    4.3281   28.3624 O.2     1  UNL1       -0.2745
      7 C           0.5794    3.9446   25.4233 C.3     1  UNL1        0.1107
      8 C           0.8113    3.7528   23.9538 C.3     1  UNL1        0.0939
      9 C           0.9385    2.1918   21.8809 C.3     1  UNL1        0.0769
     10 C           0.6413    0.8680   21.2411 C.3     1  UNL1        0.0433
     11 C           1.1773    1.1149   18.2997 C.3     1  UNL1        0.0305
     12 C           2.0153    0.1978   19.1403 C.ar    1  UNL1       -0.0260
     13 C           1.7474    0.0743   20.6111 C.ar    1  UNL1       -0.0249
     14 C           2.5854   -0.8427   21.4517 C.ar    1  UNL1       -0.0043
     15 C           3.6913   -1.6363   20.8217 C.ar    1  UNL1        0.0059
     16 C           3.9593   -1.5129   19.3510 C.ar    1  UNL1        0.0748
     17 C           3.1213   -0.5959   18.5103 C.ar    1  UNL1        0.0233
     18 C           3.6168   -0.6805   17.0971 C.3     1  UNL1        0.2352
     19 O           4.7610   -1.6498   17.0643 O.3     1  UNL1       -0.4404
     20 C           4.9727   -2.1643   18.4573 C.2     1  UNL1        0.3413
     21 O           6.0148   -3.1561   18.8820 O.2     1  UNL1       -0.2449
     22 C          -0.3253    1.7812   28.6251 C.3     1  UNL1        0.1131
     23 C           0.7621    1.0580   29.3629 C.ar    1  UNL1        0.0062
     24 C           1.2560    1.5861   30.6772 C.ar    1  UNL1        0.0009
     25 C           2.3435    0.8629   31.4151 C.ar    1  UNL1        0.0386
     26 C           2.9370   -0.3884   30.8389 C.ar    1  UNL1        0.1672
     27 N           2.4430   -0.9164   29.5246 N.ar    1  UNL1       -0.2252
     28 C           1.3556   -0.1933   28.7867 C.ar    1  UNL1        0.0968
     29 N           4.0244   -1.1116   31.5767 N.ar    1  UNL1       -0.1708
     30 C           5.4959   -1.0024   31.3074 C.ar    1  UNL1        0.2272
     31 N           6.2121   -1.8943   32.2777 N.ar    1  UNL1       -0.1044
     32 N           5.1832   -2.5548   33.1468 N.ar    1  UNL1       -0.0222
     33 N           3.8311   -2.0709   32.7135 N.ar    1  UNL1       -0.0371
@<TRIPOS>BOND
     1    11    12    1
     2    12    13   ar
     3    13    10    1
     4    10     9    1
     5     9     1    1
     6     1     2    1
     7     2     3    1
     8     3     4    1
     9     4     5   am
    10     5     6    2
    11     5    22    1
    12    22    23    1
    13    23    24   ar
    14    24    25   ar
    15    25    26   ar
    16    26    29    1
    17    29    30   ar
    18    30    31   ar
    19    31    32   ar
    20    32    33   ar
    21    26    27   ar
    22    27    28   ar
    23     4     7    1
    24     7     8    1
    25    13    14   ar
    26    14    15   ar
    27    15    16   ar
    28    16    17   ar
    29    17    18    1
    30    18    19    1
    31    19    20    1
    32    20    21    2
    33    17    12   ar
    34     8     1    1
    35    20    16    1
    36    28    23   ar
    37    33    29   ar
@<TRIPOS>MOLECULE
*****
 33 37 0 0 0
SMALL
GASTEIGER

@<TRIPOS>ATOM
      1 N           7.0654   -4.8113   26.3581 N.3     1  UNL1       -0.2695
      2 C           7.2245   -3.4856   27.0416 C.3     1  UNL1        0.0939
      3 C           7.2050   -3.4070   28.5395 C.3     1  UNL1        0.1107
      4 N           7.0264   -4.6540   29.3538 N.am    1  UNL1       -0.2764
      5 C           7.0069   -4.5752   30.8516 C.2     1  UNL1        0.2302
      6 O           6.8283   -5.8222   31.6659 O.2     1  UNL1       -0.2745
      7 C           6.8673   -5.9797   28.6702 C.3     1  UNL1        0.1107
      8 C           6.8868   -6.0583   27.1724 C.3     1  UNL1        0.0939
      9 C           7.0849   -4.8901   24.8603 C.3     1  UNL1        0.0769
     10 C           7.2829   -3.6458   24.0464 C.3     1  UNL1        0.0433
     11 C           7.6182   -4.1723   21.1120 C.3     1  UNL1        0.0305
     12 C           6.3915   -3.4689   21.6123 C.ar    1  UNL1       -0.0260
     13 C           6.2238   -3.2056   23.0795 C.ar    1  UNL1       -0.0249
     14 C           4.9971   -2.5022   23.5799 C.ar    1  UNL1       -0.0043
     15 C           3.9381   -2.0620   22.6131 C.ar    1  UNL1        0.0059
     16 C           4.1057   -2.3253   21.1460 C.ar    1  UNL1        0.0748
     17 C           5.3324   -3.0287   20.6456 C.ar    1  UNL1        0.0233
     18 C           5.2221   -3.1490   19.1545 C.3     1  UNL1        0.2352
     19 O           3.9272   -2.5198   18.7333 O.3     1  UNL1       -0.4404
     20 C           3.2372   -2.0108   19.9641 C.2     1  UNL1        0.3413
     21 O           1.9115   -1.3102   20.0057 O.2     1  UNL1       -0.2449
     22 C           7.1661   -3.2495   31.5350 C.3     1  UNL1        0.1131
     23 C           6.0126   -2.2923   31.5928 C.ar    1  UNL1        0.0062
     24 C           5.9382   -1.1484   30.6253 C.ar    1  UNL1        0.0009
     25 C           4.7847   -0.1912   30.6830 C.ar    1  UNL1        0.0386
     26 C           3.7057   -0.3778   31.7082 C.ar    1  UNL1        0.1672
     27 N           3.7803   -1.5218   32.6757 N.ar    1  UNL1       -0.2252
     28 C           4.9337   -2.4790   32.6180 C.ar    1  UNL1        0.0968
     29 N           2.5523    0.5793   31.7660 N.ar    1  UNL1       -0.1708
     30 C           2.3178    1.6145   32.8259 C.ar    1  UNL1        0.2272
     31 N           1.0514    2.3443   32.4889 N.ar    1  UNL1       -0.1044
     32 N           0.5031    1.7602   31.2206 N.ar    1  UNL1       -0.0222
     33 N           1.4308    0.6694   30.7739 N.ar    1  UNL1       -0.0371
@<TRIPOS>BOND
     1    11    12    1
     2    12    13   ar
     3    13    10    1
     4    10     9    1
     5     9     1    1
     6     1     2    1
     7     2     3    1
     8     3     4    1
     9     4     5   am
    10     5     6    2
    11     5    22    1
    12    22    23    1
    13    23    24   ar
    14    24    25   ar
    15    25    26   ar
    16    26    29    1
    17    29    30   ar
    18    30    31   ar
    19    31    32   ar
    20    32    33   ar
    21    26    27   ar
    22    27    28   ar
    23     4     7    1
    24     7     8    1
    25    13    14   ar
    26    14    15   ar
    27    15    16   ar
    28    16    17   ar
    29    17    18    1
    30    18    19    1
    31    19    20    1
    32    20    21    2
    33    17    12   ar
    34     8     1    1
    35    20    16    1
    36    28    23   ar
    37    33    29   ar
