@<TRIPOS>MOLECULE
*****
 12 13 0 0 0
SMALL
GASTEIGER

@<TRIPOS>ATOM
      1 CA          5.2121  -12.6432   28.3200 C.ar    1  UNL1        0.0739
      2 C           4.4934  -13.4274   27.2624 C.ar    1  UNL1        0.0571
      3 C           3.0547  -13.5454   27.6700 C.ar    1  UNL1        0.1624
      4 O           1.7214  -14.1030   27.2683 O.2     1  UNL1       -0.4489
      5 C           0.7268  -13.7363   28.3296 C.ar    1  UNL1        0.1812
      6 C           1.4454  -12.9521   29.3872 C.ar    1  UNL1        0.0607
      7 C           2.8841  -12.8341   28.9796 C.ar    1  UNL1        0.0949
      8 N           4.2174  -12.2765   29.3813 N.ar    1  UNL1       -0.3497
      9 H           4.4065  -11.7605   30.1981 H       1  UNL1        0.1661
     10 O           7.1115  -10.9391   27.8322 O.co2   1  UNL1       -0.5431
     11 C           6.6693  -12.2880   28.3169 C.2     1  UNL1        0.0885
     12 OXT         7.6846  -13.2818   28.7985 O.co2   1  UNL1       -0.5431
@<TRIPOS>UNITY_ATOM_ATTR
10 1
charge -1
@<TRIPOS>BOND
     1    10    11   ar
     2    11    12   ar
     3    11     1    1
     4     1     2   ar
     5     2     3   ar
     6     3     4   ar
     7     4     5   ar
     8     5     6   ar
     9     6     7   ar
    10     7     8   ar
    11     8     1   ar
    12     7     3   ar
    13     8     9    1
@<TRIPOS>MOLECULE
*****
 12 13 0 0 0
SMALL
GASTEIGER

@<TRIPOS>ATOM
      1 CA          2.4865  -13.5970   28.0190 C.ar    1  UNL1        0.0739
      2 C           3.3729  -13.8851   26.8437 C.ar    1  UNL1        0.0571
      3 C           4.7512  -13.3917   27.1706 C.ar    1  UNL1        0.1624
      4 O           6.1508  -13.2649   26.6463 O.2     1  UNL1       -0.4489
      5 C           6.9813  -12.5935   27.6996 C.ar    1  UNL1        0.1812
      6 C           6.0950  -12.3054   28.8749 C.ar    1  UNL1        0.0607
      7 C           4.7167  -12.7987   28.5480 C.ar    1  UNL1        0.0949
      8 N           3.3170  -12.9255   29.0724 N.ar    1  UNL1       -0.3497
      9 H           2.9993  -12.6215   29.9532 H       1  UNL1        0.1661
     10 O           0.5640  -15.3443   27.9953 O.co2   1  UNL1       -0.5431
     11 C           1.0261  -13.9230   28.1228 C.2     1  UNL1        0.0885
     12 OXT         0.0276  -12.8277   28.3542 O.co2   1  UNL1       -0.5431
@<TRIPOS>UNITY_ATOM_ATTR
10 1
charge -1
@<TRIPOS>BOND
     1    10    11   ar
     2    11    12   ar
     3    11     1    1
     4     1     2   ar
     5     2     3   ar
     6     3     4   ar
     7     4     5   ar
     8     5     6   ar
     9     6     7   ar
    10     7     8   ar
    11     8     1   ar
    12     7     3   ar
    13     8     9    1
@<TRIPOS>MOLECULE
*****
 12 13 0 0 0
SMALL
GASTEIGER

@<TRIPOS>ATOM
      1 CA          4.9737  -12.8703   28.6164 C.ar    1  UNL1        0.0739
      2 C           3.8928  -11.9497   29.1005 C.ar    1  UNL1        0.0571
      3 C           2.5711  -12.6106   28.8428 C.ar    1  UNL1        0.1624
      4 O           1.0864  -12.4500   28.9828 O.2     1  UNL1       -0.4489
      5 C           0.4327  -13.6798   28.4259 C.ar    1  UNL1        0.1812
      6 C           1.5134  -14.6005   27.9418 C.ar    1  UNL1        0.0607
      7 C           2.8351  -13.9396   28.1995 C.ar    1  UNL1        0.0949
      8 N           4.3199  -14.1002   28.0595 N.ar    1  UNL1       -0.3497
      9 H           4.7839  -14.8765   27.6705 H       1  UNL1        0.1661
     10 O           7.3551  -13.5770   29.3773 O.co2   1  UNL1       -0.5431
     11 C           6.4491  -12.6073   28.6783 C.2     1  UNL1        0.0885
     12 OXT         7.0185  -11.3744   28.0411 O.co2   1  UNL1       -0.5431
@<TRIPOS>UNITY_ATOM_ATTR
10 1
charge -1
@<TRIPOS>BOND
     1    10    11   ar
     2    11    12   ar
     3    11     1    1
     4     1     2   ar
     5     2     3   ar
     6     3     4   ar
     7     4     5   ar
     8     5     6   ar
     9     6     7   ar
    10     7     8   ar
    11     8     1   ar
    12     7     3   ar
    13     8     9    1
@<TRIPOS>MOLECULE
*****
 12 13 0 0 0
SMALL
GASTEIGER

@<TRIPOS>ATOM
      1 CA         -4.9984  -19.1675   20.5186 C.ar    1  UNL1        0.0739
      2 C          -3.8369  -19.5489   21.3879 C.ar    1  UNL1        0.0571
      3 C          -2.5866  -19.0216   20.7487 C.ar    1  UNL1        0.1624
      4 O          -1.0961  -18.9316   20.8909 O.2     1  UNL1       -0.4489
      5 C          -0.5636  -18.1685   19.7144 C.ar    1  UNL1        0.1812
      6 C          -1.7249  -17.7870   18.8451 C.ar    1  UNL1        0.0607
      7 C          -2.9753  -18.3143   19.4843 C.ar    1  UNL1        0.0949
      8 N          -4.4658  -18.4043   19.3421 N.ar    1  UNL1       -0.3497
      9 H          -5.0006  -18.0286   18.6059 H       1  UNL1        0.1661
     10 O          -7.5072  -18.9393   19.8833 O.co2   1  UNL1       -0.5431
     11 C          -6.4393  -19.4920   20.7799 C.2     1  UNL1        0.0885
     12 OXT        -6.8124  -20.3694   21.9380 O.co2   1  UNL1       -0.5431
@<TRIPOS>UNITY_ATOM_ATTR
10 1
charge -1
@<TRIPOS>BOND
     1    10    11   ar
     2    11    12   ar
     3    11     1    1
     4     1     2   ar
     5     2     3   ar
     6     3     4   ar
     7     4     5   ar
     8     5     6   ar
     9     6     7   ar
    10     7     8   ar
    11     8     1   ar
    12     7     3   ar
    13     8     9    1
@<TRIPOS>MOLECULE
*****
 12 13 0 0 0
SMALL
GASTEIGER

@<TRIPOS>ATOM
      1 CA        -10.2795  -16.0369   21.4374 C.ar    1  UNL1        0.0739
      2 C         -10.6169  -16.5471   22.8070 C.ar    1  UNL1        0.0571
      3 C          -9.4374  -16.2954   23.6990 C.ar    1  UNL1        0.1624
      4 O          -8.9170  -16.4552   25.0967 O.2     1  UNL1       -0.4489
      5 C          -7.5291  -15.8882   25.1421 C.ar    1  UNL1        0.1812
      6 C          -7.1917  -15.3780   23.7725 C.ar    1  UNL1        0.0607
      7 C          -8.3711  -15.6297   22.8806 C.ar    1  UNL1        0.0949
      8 N          -8.8915  -15.4698   21.4829 N.ar    1  UNL1       -0.3497
      9 H          -8.4071  -15.0641   20.7279 H       1  UNL1        0.1661
     10 O         -10.9196  -15.1681   19.0740 O.co2   1  UNL1       -0.5431
     11 C         -11.1732  -16.0851   20.2337 C.2     1  UNL1        0.0885
     12 OXT       -12.3205  -17.0505   20.1895 O.co2   1  UNL1       -0.5431
@<TRIPOS>UNITY_ATOM_ATTR
10 1
charge -1
@<TRIPOS>BOND
     1    10    11   ar
     2    11    12   ar
     3    11     1    1
     4     1     2   ar
     5     2     3   ar
     6     3     4   ar
     7     4     5   ar
     8     5     6   ar
     9     6     7   ar
    10     7     8   ar
    11     8     1   ar
    12     7     3   ar
    13     8     9    1
@<TRIPOS>MOLECULE
*****
 12 13 0 0 0
SMALL
GASTEIGER

@<TRIPOS>ATOM
      1 CA         -9.2029  -16.3098   22.7535 C.ar    1  UNL1        0.0739
      2 C          -9.3637  -17.3792   23.7930 C.ar    1  UNL1        0.0571
      3 C         -10.8183  -17.7377   23.8681 C.ar    1  UNL1        0.1624
      4 O         -11.8167  -18.6202   24.5569 O.2     1  UNL1       -0.4489
      5 C         -13.1718  -18.3179   23.9894 C.ar    1  UNL1        0.1812
      6 C         -13.0111  -17.2485   22.9499 C.ar    1  UNL1        0.0607
      7 C         -11.5565  -16.8899   22.8749 C.ar    1  UNL1        0.0949
      8 N         -10.5582  -16.0074   22.1861 N.ar    1  UNL1       -0.3497
      9 H         -10.7574  -15.3459   21.4847 H       1  UNL1        0.1661
     10 O          -7.8752  -14.7372   21.1680 O.co2   1  UNL1       -0.5431
     11 C          -7.9134  -15.6573   22.3520 C.2     1  UNL1        0.0885
     12 OXT        -6.6618  -15.9250   23.1344 O.co2   1  UNL1       -0.5431
@<TRIPOS>UNITY_ATOM_ATTR
10 1
charge -1
@<TRIPOS>BOND
     1    10    11   ar
     2    11    12   ar
     3    11     1    1
     4     1     2   ar
     5     2     3   ar
     6     3     4   ar
     7     4     5   ar
     8     5     6   ar
     9     6     7   ar
    10     7     8   ar
    11     8     1   ar
    12     7     3   ar
    13     8     9    1
@<TRIPOS>MOLECULE
*****
 12 13 0 0 0
SMALL
GASTEIGER

@<TRIPOS>ATOM
      1 CA          2.1883  -13.5387   28.2186 C.ar    1  UNL1        0.0739
      2 C           2.8050  -12.6555   29.2625 C.ar    1  UNL1        0.0571
      3 C           4.2518  -12.4668   28.9142 C.ar    1  UNL1        0.1624
      4 O           5.5270  -11.8043   29.3442 O.2     1  UNL1       -0.4489
      5 C           6.5926  -12.1614   28.3507 C.ar    1  UNL1        0.1812
      6 C           5.9759  -13.0445   27.3068 C.ar    1  UNL1        0.0607
      7 C           4.5292  -13.2333   27.6551 C.ar    1  UNL1        0.0949
      8 N           3.2540  -13.8957   27.2251 N.ar    1  UNL1       -0.3497
      9 H           3.1369  -14.4649   26.4304 H       1  UNL1        0.1661
     10 O          -0.3475  -12.9748   28.2565 O.co2   1  UNL1       -0.5431
     11 C           0.7573  -13.9861   28.1757 C.2     1  UNL1        0.0885
     12 OXT         0.4310  -15.4450   28.0520 O.co2   1  UNL1       -0.5431
@<TRIPOS>UNITY_ATOM_ATTR
10 1
charge -1
@<TRIPOS>BOND
     1    10    11   ar
     2    11    12   ar
     3    11     1    1
     4     1     2   ar
     5     2     3   ar
     6     3     4   ar
     7     4     5   ar
     8     5     6   ar
     9     6     7   ar
    10     7     8   ar
    11     8     1   ar
    12     7     3   ar
    13     8     9    1
@<TRIPOS>MOLECULE
*****
 12 13 0 0 0
SMALL
GASTEIGER

@<TRIPOS>ATOM
      1 CA         -2.8205  -18.8432   20.1281 C.ar    1  UNL1        0.0739
      2 C          -3.6209  -20.0436   19.7177 C.ar    1  UNL1        0.0571
      3 C          -4.8690  -20.0750   20.5491 C.ar    1  UNL1        0.1624
      4 O          -6.1349  -20.8364   20.8093 O.2     1  UNL1       -0.4489
      5 C          -6.8884  -20.1259   21.8944 C.ar    1  UNL1        0.1812
      6 C          -6.0881  -18.9254   22.3049 C.ar    1  UNL1        0.0607
      7 C          -4.8400  -18.8940   21.4735 C.ar    1  UNL1        0.0949
      8 N          -3.5741  -18.1327   21.2133 N.ar    1  UNL1       -0.3497
      9 H          -3.2880  -17.3109   21.6739 H       1  UNL1        0.1661
     10 O          -1.3993  -18.0305   18.1109 O.co2   1  UNL1       -0.5431
     11 C          -1.4989  -18.4264   19.5543 C.2     1  UNL1        0.0885
     12 OXT        -0.2767  -18.4055   20.4238 O.co2   1  UNL1       -0.5431
@<TRIPOS>UNITY_ATOM_ATTR
10 1
charge -1
@<TRIPOS>BOND
     1    10    11   ar
     2    11    12   ar
     3    11     1    1
     4     1     2   ar
     5     2     3   ar
     6     3     4   ar
     7     4     5   ar
     8     5     6   ar
     9     6     7   ar
    10     7     8   ar
    11     8     1   ar
    12     7     3   ar
    13     8     9    1
@<TRIPOS>MOLECULE
*****
 12 13 0 0 0
SMALL
GASTEIGER

@<TRIPOS>ATOM
      1 CA         -8.1887  -16.0553   23.0992 C.ar    1  UNL1        0.0739
      2 C          -9.3975  -16.4462   23.8969 C.ar    1  UNL1        0.0571
      3 C         -10.5600  -16.5527   22.9550 C.ar    1  UNL1        0.1624
      4 O         -12.0254  -16.8601   22.8659 O.2     1  UNL1       -0.4489
      5 C         -12.4409  -16.7251   21.4309 C.ar    1  UNL1        0.1812
      6 C         -11.2322  -16.3342   20.6332 C.ar    1  UNL1        0.0607
      7 C         -10.0697  -16.2277   21.5751 C.ar    1  UNL1        0.0949
      8 N          -8.6043  -15.9203   21.6642 N.ar    1  UNL1       -0.3497
      9 H          -8.0181  -15.6733   20.9128 H       1  UNL1        0.1661
     10 O          -6.5472  -14.7176   24.6044 O.co2   1  UNL1       -0.5431
     11 C          -6.8072  -15.8377   23.6412 C.2     1  UNL1        0.0885
     12 OXT        -5.6855  -16.7403   23.2202 O.co2   1  UNL1       -0.5431
@<TRIPOS>UNITY_ATOM_ATTR
10 1
charge -1
@<TRIPOS>BOND
     1    10    11   ar
     2    11    12   ar
     3    11     1    1
     4     1     2   ar
     5     2     3   ar
     6     3     4   ar
     7     4     5   ar
     8     5     6   ar
     9     6     7   ar
    10     7     8   ar
    11     8     1   ar
    12     7     3   ar
    13     8     9    1
