@<TRIPOS>MOLECULE
*****
 33 36 0 0 0
SMALL
GASTEIGER

@<TRIPOS>ATOM
      1 C           6.9381   -4.2747   25.0763 C.ar    1  UNL1        0.0541
      2 C           5.8441   -3.5449   24.3549 C.ar    1  UNL1        0.0180
      3 C           5.8705   -3.4427   22.8586 C.ar    1  UNL1        0.0382
      4 C           6.9909   -4.0704   22.0837 C.ar    1  UNL1        0.1386
      5 C           8.0850   -4.8003   22.8051 C.ar    1  UNL1        0.0382
      6 C           8.0585   -4.9024   24.3014 C.ar    1  UNL1        0.0180
      7 O           6.6998   -6.0249   31.7193 O.2     1  UNL1       -0.2699
      8 C           6.8323   -4.6834   31.0615 C.2     1  UNL1        0.2494
      9 N           6.8587   -4.5812   29.5651 N.am    1  UNL1       -0.2660
     10 C           6.7527   -5.8205   28.7268 C.3     1  UNL1        0.1160
     11 C           6.7792   -5.7184   27.2304 C.3     1  UNL1        0.1197
     12 N           6.9116   -4.3769   26.5725 N.am    1  UNL1       -0.2555
     13 C           7.0176   -3.1375   27.4109 C.2     1  UNL1        0.2497
     14 O           7.1501   -1.7961   26.7530 O.2     1  UNL1       -0.2727
     15 C           6.9912   -3.2398   28.9072 C.3     1  UNL1        0.1799
     16 C           6.9383   -3.4441   31.8998 C.ar    1  UNL1        0.0537
     17 C           5.6955   -2.7488   32.3710 C.ar    1  UNL1        0.0068
     18 C           5.8015   -1.5094   33.2094 C.ar    1  UNL1        0.0298
     19 C           7.1504   -0.9654   33.5764 C.ar    1  UNL1        0.1401
     20 F           7.2564    0.2739   34.4147 F       1  UNL1       -0.2042
     21 C           8.3932   -1.6607   33.1052 C.ar    1  UNL1        0.0298
     22 C           8.2870   -2.9001   32.2668 C.ar    1  UNL1        0.0068
     23 O           7.0174   -3.9683   20.5874 O.3     1  UNL1       -0.4754
     24 C           7.6506   -2.7790   19.9280 C.3     1  UNL1        0.2068
     25 C           7.1104   -2.2678   18.6253 C.3     1  UNL1        0.0646
     26 C           5.7418   -2.6775   18.1684 C.3     1  UNL1        0.0759
     27 N           4.5426   -1.8755   18.5792 N.3     1  UNL1       -0.2726
     28 C           4.0817   -0.8427   17.5937 C.3     1  UNL1        0.0721
     29 C           2.9272    0.1084   17.7068 C.3     1  UNL1        0.0173
     30 C           1.9486    0.2615   18.8331 C.3     1  UNL1        0.0015
     31 C           1.8826   -0.4985   20.1247 C.3     1  UNL1        0.0015
     32 C           2.7790   -1.5994   20.6088 C.3     1  UNL1        0.0173
     33 C           3.9628   -2.2122   19.9209 C.3     1  UNL1        0.0721
@<TRIPOS>BOND
     1     7     8    2
     2     8    16    1
     3    16    17   ar
     4    17    18   ar
     5    18    19   ar
     6    19    20    1
     7    19    21   ar
     8    21    22   ar
     9     8     9   am
    10     9    10    1
    11    10    11    1
    12    11    12    1
    13    12     1    1
    14     1     2   ar
    15     2     3   ar
    16     3     4   ar
    17     4    23    1
    18    23    24    1
    19    24    25    1
    20    25    26    1
    21    26    27    1
    22    27    28    1
    23    28    29    1
    24    29    30    1
    25    30    31    1
    26    31    32    1
    27    32    33    1
    28     4     5   ar
    29     5     6   ar
    30    12    13   am
    31    13    14    2
    32    13    15    1
    33    22    16   ar
    34    15     9    1
    35     6     1   ar
    36    33    27    1
@<TRIPOS>MOLECULE
*****
 33 36 0 0 0
SMALL
GASTEIGER

@<TRIPOS>ATOM
      1 C           1.7533    0.9613   20.8343 C.ar    1  UNL1        0.0541
      2 C           2.3032    1.9423   19.8418 C.ar    1  UNL1        0.0180
      3 C           2.9982    1.4503   18.6069 C.ar    1  UNL1        0.0382
      4 C           3.1433   -0.0229   18.3646 C.ar    1  UNL1        0.1386
      5 C           2.5934   -1.0040   19.3572 C.ar    1  UNL1        0.0382
      6 C           1.8985   -0.5119   20.5920 C.ar    1  UNL1        0.0180
      7 O          -2.2276    3.8201   25.6540 O.2     1  UNL1       -0.2699
      8 C          -1.0265    2.9296   25.7738 C.2     1  UNL1        0.2494
      9 N          -0.3315    2.4375   24.5389 N.am    1  UNL1       -0.2660
     10 C          -0.8377    2.8360   23.1843 C.3     1  UNL1        0.1160
     11 C          -0.1427    2.3439   21.9494 C.3     1  UNL1        0.1197
     12 N           1.0584    1.4533   22.0691 N.am    1  UNL1       -0.2555
     13 C           1.5646    1.0549   23.4238 C.2     1  UNL1        0.2497
     14 O           2.7657    0.1644   23.5436 O.2     1  UNL1       -0.2727
     15 C           0.8696    1.5470   24.6587 C.3     1  UNL1        0.1799
     16 C          -0.5204    2.5312   27.1284 C.ar    1  UNL1        0.0537
     17 C          -0.9630    1.2367   27.7435 C.ar    1  UNL1        0.0068
     18 C          -0.4568    0.8382   29.0982 C.ar    1  UNL1        0.0298
     19 C           0.4920    1.7343   29.8377 C.ar    1  UNL1        0.1401
     20 F           0.9982    1.3359   31.1923 F       1  UNL1       -0.2042
     21 C           0.9346    3.0288   29.2226 C.ar    1  UNL1        0.0298
     22 C           0.4284    3.4272   27.8679 C.ar    1  UNL1        0.0068
     23 O           3.8382   -0.5150   17.1297 O.3     1  UNL1       -0.4754
     24 C           5.2130   -0.0176   16.7943 C.3     1  UNL1        0.2068
     25 C           6.3148   -0.1177   17.8074 C.3     1  UNL1        0.0646
     26 C           6.8236   -1.4635   18.2315 C.3     1  UNL1        0.0759
     27 N           5.9700   -2.3529   19.0861 N.3     1  UNL1       -0.2726
     28 C           5.9409   -2.0177   20.5480 C.3     1  UNL1        0.0721
     29 C           5.1930   -2.7067   21.6507 C.3     1  UNL1        0.0173
     30 C           4.2896   -3.9009   21.5640 C.3     1  UNL1        0.0015
     31 C           3.9109   -4.7012   20.3531 C.3     1  UNL1        0.0015
     32 C           4.3421   -4.5048   18.9299 C.3     1  UNL1        0.0173
     33 C           5.2585   -3.4597   18.3661 C.3     1  UNL1        0.0721
@<TRIPOS>BOND
     1     7     8    2
     2     8    16    1
     3    16    17   ar
     4    17    18   ar
     5    18    19   ar
     6    19    20    1
     7    19    21   ar
     8    21    22   ar
     9     8     9   am
    10     9    10    1
    11    10    11    1
    12    11    12    1
    13    12     1    1
    14     1     2   ar
    15     2     3   ar
    16     3     4   ar
    17     4    23    1
    18    23    24    1
    19    24    25    1
    20    25    26    1
    21    26    27    1
    22    27    28    1
    23    28    29    1
    24    29    30    1
    25    30    31    1
    26    31    32    1
    27    32    33    1
    28     4     5   ar
    29     5     6   ar
    30    12    13   am
    31    13    14    2
    32    13    15    1
    33    22    16   ar
    34    15     9    1
    35     6     1   ar
    36    33    27    1
@<TRIPOS>MOLECULE
*****
 33 36 0 0 0
SMALL
GASTEIGER

@<TRIPOS>ATOM
      1 C           6.7586   -4.1682   24.7452 C.ar    1  UNL1        0.0541
      2 C           7.8928   -4.6876   23.9123 C.ar    1  UNL1        0.0180
      3 C           7.8576   -4.5381   22.4202 C.ar    1  UNL1        0.0382
      4 C           6.6882   -3.8690   21.7609 C.ar    1  UNL1        0.1386
      5 C           5.5538   -3.3495   22.5937 C.ar    1  UNL1        0.0382
      6 C           5.5891   -3.4991   24.0858 C.ar    1  UNL1        0.0180
      7 O           6.8095   -6.1296   31.3330 O.2     1  UNL1       -0.2699
      8 C           6.8994   -4.7664   30.7136 C.2     1  UNL1        0.2494
      9 N           6.8642   -4.6168   29.2214 N.am    1  UNL1       -0.2660
     10 C           6.7390   -5.8304   28.3489 C.3     1  UNL1        0.1160
     11 C           6.7038   -5.6808   26.8567 C.3     1  UNL1        0.1197
     12 N           6.7938   -4.3177   26.2372 N.am    1  UNL1       -0.2555
     13 C           6.9190   -3.1041   27.1099 C.2     1  UNL1        0.2497
     14 O           7.0089   -1.7409   26.4904 O.2     1  UNL1       -0.2727
     15 C           6.9542   -3.2537   28.6020 C.3     1  UNL1        0.1799
     16 C           7.0246   -3.5528   31.5862 C.ar    1  UNL1        0.0537
     17 C           8.3804   -3.0674   32.0060 C.ar    1  UNL1        0.0068
     18 C           8.5055   -1.8538   32.8787 C.ar    1  UNL1        0.0298
     19 C           7.2748   -1.1255   33.3315 C.ar    1  UNL1        0.1401
     20 F           7.4000    0.0880   34.2041 F       1  UNL1       -0.2042
     21 C           5.9190   -1.6109   32.9117 C.ar    1  UNL1        0.0298
     22 C           5.7940   -2.8245   32.0391 C.ar    1  UNL1        0.0068
     23 O           6.6529   -3.7195   20.2688 O.3     1  UNL1       -0.4754
     24 C           5.4631   -4.2039   19.4945 C.3     1  UNL1        0.2068
     25 C           4.3895   -3.2386   19.0872 C.3     1  UNL1        0.0646
     26 C           4.6178   -1.7623   19.2224 C.3     1  UNL1        0.0759
     27 N           3.4486   -0.8238   19.2698 N.3     1  UNL1       -0.2726
     28 C           2.2856   -1.2747   20.1031 C.3     1  UNL1        0.0721
     29 C           0.9837   -0.5717   20.3501 C.3     1  UNL1        0.0173
     30 C           0.5234    0.7557   19.8248 C.3     1  UNL1        0.0015
     31 C           1.2510    1.7080   18.9228 C.3     1  UNL1        0.0015
     32 C           2.6189    1.5681   18.3233 C.3     1  UNL1        0.0173
     33 C           3.5968    0.4412   18.4778 C.3     1  UNL1        0.0721
@<TRIPOS>BOND
     1     7     8    2
     2     8    16    1
     3    16    17   ar
     4    17    18   ar
     5    18    19   ar
     6    19    20    1
     7    19    21   ar
     8    21    22   ar
     9     8     9   am
    10     9    10    1
    11    10    11    1
    12    11    12    1
    13    12     1    1
    14     1     2   ar
    15     2     3   ar
    16     3     4   ar
    17     4    23    1
    18    23    24    1
    19    24    25    1
    20    25    26    1
    21    26    27    1
    22    27    28    1
    23    28    29    1
    24    29    30    1
    25    30    31    1
    26    31    32    1
    27    32    33    1
    28     4     5   ar
    29     5     6   ar
    30    12    13   am
    31    13    14    2
    32    13    15    1
    33    22    16   ar
    34    15     9    1
    35     6     1   ar
    36    33    27    1
@<TRIPOS>MOLECULE
*****
 33 36 0 0 0
SMALL
GASTEIGER

@<TRIPOS>ATOM
      1 C           1.9625    1.6929   18.6288 C.ar    1  UNL1        0.0541
      2 C           1.9093    0.3418   17.9796 C.ar    1  UNL1        0.0180
      3 C           3.1779   -0.3374   17.5561 C.ar    1  UNL1        0.0382
      4 C           4.4998    0.3345   17.7820 C.ar    1  UNL1        0.1386
      5 C           4.5531    1.6858   18.4312 C.ar    1  UNL1        0.0382
      6 C           3.2844    2.3649   18.8546 C.ar    1  UNL1        0.0180
      7 O          -3.8863    5.2341   19.3370 O.2     1  UNL1       -0.2699
      8 C          -3.1121    4.4097   20.3224 C.2     1  UNL1        0.2494
      9 N          -1.8434    3.7305   19.8990 N.am    1  UNL1       -0.2660
     10 C          -1.3490    3.8757   18.4903 C.3     1  UNL1        0.1160
     11 C          -0.0803    3.1965   18.0668 C.3     1  UNL1        0.1197
     12 N           0.6939    2.3721   19.0522 N.am    1  UNL1       -0.2555
     13 C           0.1995    2.2268   20.4609 C.2     1  UNL1        0.2497
     14 O           0.9738    1.4024   21.4462 O.2     1  UNL1       -0.2727
     15 C          -1.0691    2.9061   20.8843 C.3     1  UNL1        0.1799
     16 C          -3.6064    4.2644   21.7311 C.ar    1  UNL1        0.0537
     17 C          -4.5470    3.1508   22.0848 C.ar    1  UNL1        0.0068
     18 C          -5.0414    3.0055   23.4936 C.ar    1  UNL1        0.0298
     19 C          -4.5951    3.9740   24.5486 C.ar    1  UNL1        0.1401
     20 F          -5.0894    3.8287   25.9573 F       1  UNL1       -0.2042
     21 C          -3.6545    5.0876   24.1949 C.ar    1  UNL1        0.0298
     22 C          -3.1602    5.2328   22.7861 C.ar    1  UNL1        0.0068
     23 O           5.7685   -0.3446   17.3586 O.3     1  UNL1       -0.4754
     24 C           6.4259   -1.3398   18.2681 C.3     1  UNL1        0.2068
     25 C           5.9858   -2.7738   18.2540 C.3     1  UNL1        0.0646
     26 C           4.7615   -3.1901   19.0140 C.3     1  UNL1        0.0759
     27 N           4.6330   -2.8555   20.4705 N.3     1  UNL1       -0.2726
     28 C           5.4780   -3.6721   21.4029 C.3     1  UNL1        0.0721
     29 C           5.5752   -3.5833   22.8972 C.3     1  UNL1        0.0173
     30 C           4.8515   -2.6562   23.8280 C.3     1  UNL1        0.0015
     31 C           3.8517   -1.5888   23.4946 C.3     1  UNL1        0.0015
     32 C           3.3288   -1.1849   22.1480 C.3     1  UNL1        0.0173
     33 C           3.6766   -1.7487   20.8022 C.3     1  UNL1        0.0721
@<TRIPOS>BOND
     1     7     8    2
     2     8    16    1
     3    16    17   ar
     4    17    18   ar
     5    18    19   ar
     6    19    20    1
     7    19    21   ar
     8    21    22   ar
     9     8     9   am
    10     9    10    1
    11    10    11    1
    12    11    12    1
    13    12     1    1
    14     1     2   ar
    15     2     3   ar
    16     3     4   ar
    17     4    23    1
    18    23    24    1
    19    24    25    1
    20    25    26    1
    21    26    27    1
    22    27    28    1
    23    28    29    1
    24    29    30    1
    25    30    31    1
    26    31    32    1
    27    32    33    1
    28     4     5   ar
    29     5     6   ar
    30    12    13   am
    31    13    14    2
    32    13    15    1
    33    22    16   ar
    34    15     9    1
    35     6     1   ar
    36    33    27    1
@<TRIPOS>MOLECULE
*****
 33 36 0 0 0
SMALL
GASTEIGER

@<TRIPOS>ATOM
      1 C           2.2230    1.9072   18.4698 C.ar    1  UNL1        0.0541
      2 C           2.3036    0.4683   18.0540 C.ar    1  UNL1        0.0180
      3 C           3.6080   -0.1051   17.5853 C.ar    1  UNL1        0.0382
      4 C           4.8319    0.7605   17.5324 C.ar    1  UNL1        0.1386
      5 C           4.7514    2.1996   17.9482 C.ar    1  UNL1        0.0382
      6 C           3.4469    2.7728   18.4169 C.ar    1  UNL1        0.0180
      7 O          -3.8808    4.9341   19.3819 O.2     1  UNL1       -0.2699
      8 C          -2.9948    4.2006   20.3448 C.2     1  UNL1        0.2494
      9 N          -1.6903    3.6272   19.8760 N.am    1  UNL1       -0.2660
     10 C          -1.2719    3.7874   18.4445 C.3     1  UNL1        0.1160
     11 C           0.0326    3.2140   17.9758 C.3     1  UNL1        0.1197
     12 N           0.9186    2.4806   18.9386 N.am    1  UNL1       -0.2555
     13 C           0.5002    2.3204   20.3702 C.2     1  UNL1        0.2497
     14 O           1.3862    1.5870   21.3329 O.2     1  UNL1       -0.2727
     15 C          -0.8043    2.8938   20.8388 C.3     1  UNL1        0.1799
     16 C          -3.4132    4.0405   21.7763 C.ar    1  UNL1        0.0537
     17 C          -2.7136    4.8154   22.8534 C.ar    1  UNL1        0.0068
     18 C          -3.1320    4.6552   24.2850 C.ar    1  UNL1        0.0298
     19 C          -4.2500    3.7201   24.6394 C.ar    1  UNL1        0.1401
     20 F          -4.6684    3.5599   26.0709 F       1  UNL1       -0.2042
     21 C          -4.9496    2.9451   23.5623 C.ar    1  UNL1        0.0298
     22 C          -4.5311    3.1054   22.1308 C.ar    1  UNL1        0.0068
     23 O           6.1364    0.1873   17.0636 O.3     1  UNL1       -0.4754
     24 C           7.4296    0.7535   17.5704 C.3     1  UNL1        0.2068
     25 C           7.9443    0.3550   18.9219 C.3     1  UNL1        0.0646
     26 C           7.8001   -1.0623   19.3914 C.3     1  UNL1        0.0759
     27 N           6.4350   -1.6500   19.5941 N.3     1  UNL1       -0.2726
     28 C           5.5843   -0.9775   20.6306 C.3     1  UNL1        0.0721
     29 C           4.1895   -1.3215   21.0625 C.3     1  UNL1        0.0173
     30 C           3.3012   -2.4227   20.5646 C.3     1  UNL1        0.0015
     31 C           3.5879   -3.4520   19.5119 C.3     1  UNL1        0.0015
     32 C           4.8340   -3.6343   18.6970 C.3     1  UNL1        0.0173
     33 C           6.1011   -2.8323   18.7337 C.3     1  UNL1        0.0721
@<TRIPOS>BOND
     1     7     8    2
     2     8    16    1
     3    16    17   ar
     4    17    18   ar
     5    18    19   ar
     6    19    20    1
     7    19    21   ar
     8    21    22   ar
     9     8     9   am
    10     9    10    1
    11    10    11    1
    12    11    12    1
    13    12     1    1
    14     1     2   ar
    15     2     3   ar
    16     3     4   ar
    17     4    23    1
    18    23    24    1
    19    24    25    1
    20    25    26    1
    21    26    27    1
    22    27    28    1
    23    28    29    1
    24    29    30    1
    25    30    31    1
    26    31    32    1
    27    32    33    1
    28     4     5   ar
    29     5     6   ar
    30    12    13   am
    31    13    14    2
    32    13    15    1
    33    22    16   ar
    34    15     9    1
    35     6     1   ar
    36    33    27    1
@<TRIPOS>MOLECULE
*****
 33 36 0 0 0
SMALL
GASTEIGER

@<TRIPOS>ATOM
      1 C           8.2003   -5.5419   29.1656 C.ar    1  UNL1        0.0541
      2 C           7.4737   -5.9495   27.9183 C.ar    1  UNL1        0.0180
      3 C           7.7781   -7.2673   27.2696 C.ar    1  UNL1        0.0382
      4 C           8.8091   -8.1776   27.8682 C.ar    1  UNL1        0.1386
      5 C           9.5358   -7.7700   29.1156 C.ar    1  UNL1        0.0382
      6 C           9.2314   -6.4522   29.7643 C.ar    1  UNL1        0.0180
      7 O           7.3829    1.0077   31.0851 O.2     1  UNL1       -0.2699
      8 C           6.9828   -0.2707   31.7602 C.2     1  UNL1        0.2494
      9 N           7.2872   -1.5886   31.1115 N.am    1  UNL1       -0.2660
     10 C           7.9916   -1.6279   29.7878 C.3     1  UNL1        0.1160
     11 C           8.2960   -2.9458   29.1391 C.3     1  UNL1        0.1197
     12 N           7.8960   -4.2242   29.8142 N.am    1  UNL1       -0.2555
     13 C           7.1915   -4.1848   31.1380 C.2     1  UNL1        0.2497
     14 O           6.7915   -5.4631   31.8130 O.2     1  UNL1       -0.2727
     15 C           6.8871   -2.8669   31.7866 C.3     1  UNL1        0.1799
     16 C           6.2784   -0.2313   33.0839 C.ar    1  UNL1        0.0537
     17 C           4.7894   -0.0579   33.1362 C.ar    1  UNL1        0.0068
     18 C           4.0849   -0.0185   34.4600 C.ar    1  UNL1        0.0298
     19 C           4.8696   -0.1525   35.7314 C.ar    1  UNL1        0.1401
     20 F           4.1652   -0.1132   37.0550 F       1  UNL1       -0.2042
     21 C           6.3586   -0.3259   35.6790 C.ar    1  UNL1        0.0298
     22 C           7.0630   -0.3653   34.3552 C.ar    1  UNL1        0.0068
     23 O           9.1135   -9.4954   27.2196 O.3     1  UNL1       -0.4754
     24 C           8.6705  -10.7719   27.8710 C.3     1  UNL1        0.2068
     25 C           7.2109  -11.0280   28.1033 C.3     1  UNL1        0.0646
     26 C           6.7209  -12.4286   28.3230 C.3     1  UNL1        0.0759
     27 N           5.2515  -12.7257   28.2730 N.3     1  UNL1       -0.2726
     28 C           4.7923  -13.5432   27.1021 C.3     1  UNL1        0.0721
     29 C           3.4036  -14.0029   26.7695 C.3     1  UNL1        0.0173
     30 C           2.1315  -13.7586   27.5256 C.3     1  UNL1        0.0015
     31 C           1.9335  -12.9944   28.8011 C.3     1  UNL1        0.0015
     32 C           2.9589  -12.2857   29.6354 C.3     1  UNL1        0.0173
     33 C           4.4356  -12.1661   29.4003 C.3     1  UNL1        0.0721
@<TRIPOS>BOND
     1     7     8    2
     2     8    16    1
     3    16    17   ar
     4    17    18   ar
     5    18    19   ar
     6    19    20    1
     7    19    21   ar
     8    21    22   ar
     9     8     9   am
    10     9    10    1
    11    10    11    1
    12    11    12    1
    13    12     1    1
    14     1     2   ar
    15     2     3   ar
    16     3     4   ar
    17     4    23    1
    18    23    24    1
    19    24    25    1
    20    25    26    1
    21    26    27    1
    22    27    28    1
    23    28    29    1
    24    29    30    1
    25    30    31    1
    26    31    32    1
    27    32    33    1
    28     4     5   ar
    29     5     6   ar
    30    12    13   am
    31    13    14    2
    32    13    15    1
    33    22    16   ar
    34    15     9    1
    35     6     1   ar
    36    33    27    1
@<TRIPOS>MOLECULE
*****
 33 36 0 0 0
SMALL
GASTEIGER

@<TRIPOS>ATOM
      1 C           6.5313   -2.6761   31.7755 C.ar    1  UNL1        0.0541
      2 C           6.7741   -4.1105   32.1407 C.ar    1  UNL1        0.0180
      3 C           6.8914   -5.1489   31.0647 C.ar    1  UNL1        0.0382
      4 C           6.7658   -4.7529   29.6234 C.ar    1  UNL1        0.1386
      5 C           6.5230   -3.3184   29.2581 C.ar    1  UNL1        0.0382
      6 C           6.4057   -2.2800   30.3342 C.ar    1  UNL1        0.0180
      7 O           7.2662    2.2741   36.4878 O.2     1  UNL1       -0.2699
      8 C           6.0623    1.4776   36.0799 C.2     1  UNL1        0.2494
      9 N           6.1796    0.4391   35.0038 N.am    1  UNL1       -0.2660
     10 C           7.5006    0.1973   34.3357 C.3     1  UNL1        0.1160
     11 C           7.6178   -0.8411   33.2595 C.3     1  UNL1        0.1197
     12 N           6.4141   -1.6377   32.8516 N.am    1  UNL1       -0.2555
     13 C           5.0930   -1.3958   33.5197 C.2     1  UNL1        0.2497
     14 O           3.8892   -2.1924   33.1118 O.2     1  UNL1       -0.2727
     15 C           4.9758   -0.3574   34.5958 C.3     1  UNL1        0.1799
     16 C           4.7413    1.7194   36.7480 C.ar    1  UNL1        0.0537
     17 C           3.8207    2.7828   36.2267 C.ar    1  UNL1        0.0068
     18 C           2.4996    3.0246   36.8949 C.ar    1  UNL1        0.0298
     19 C           2.0993    2.2030   38.0843 C.ar    1  UNL1        0.1401
     20 F           0.7782    2.4449   38.7524 F       1  UNL1       -0.2042
     21 C           3.0199    1.1397   38.6056 C.ar    1  UNL1        0.0298
     22 C           4.3409    0.8979   37.9374 C.ar    1  UNL1        0.0068
     23 O           6.8830   -5.7913   28.5472 O.3     1  UNL1       -0.4754
     24 C           7.6021   -5.4703   27.2706 C.3     1  UNL1        0.2068
     25 C           6.8238   -5.2368   26.0097 C.3     1  UNL1        0.0646
     26 C           6.9541   -3.9337   25.2783 C.3     1  UNL1        0.0759
     27 N           6.5992   -3.8515   23.8233 N.3     1  UNL1       -0.2726
     28 C           5.2033   -3.3943   23.5188 C.3     1  UNL1        0.0721
     29 C           4.5505   -3.2100   22.1808 C.3     1  UNL1        0.0173
     30 C           5.1322   -3.4374   20.8172 C.3     1  UNL1        0.0015
     31 C           6.5105   -3.9052   20.4544 C.3     1  UNL1        0.0015
     32 C           7.6474   -4.2612   21.3658 C.3     1  UNL1        0.0173
     33 C           7.6868   -4.2372   22.8652 C.3     1  UNL1        0.0721
@<TRIPOS>BOND
     1     7     8    2
     2     8    16    1
     3    16    17   ar
     4    17    18   ar
     5    18    19   ar
     6    19    20    1
     7    19    21   ar
     8    21    22   ar
     9     8     9   am
    10     9    10    1
    11    10    11    1
    12    11    12    1
    13    12     1    1
    14     1     2   ar
    15     2     3   ar
    16     3     4   ar
    17     4    23    1
    18    23    24    1
    19    24    25    1
    20    25    26    1
    21    26    27    1
    22    27    28    1
    23    28    29    1
    24    29    30    1
    25    30    31    1
    26    31    32    1
    27    32    33    1
    28     4     5   ar
    29     5     6   ar
    30    12    13   am
    31    13    14    2
    32    13    15    1
    33    22    16   ar
    34    15     9    1
    35     6     1   ar
    36    33    27    1
@<TRIPOS>MOLECULE
*****
 33 36 0 0 0
SMALL
GASTEIGER

@<TRIPOS>ATOM
      1 C           2.2287    1.7107   19.1744 C.ar    1  UNL1        0.0541
      2 C           2.1977    0.3518   18.5401 C.ar    1  UNL1        0.0180
      3 C           3.3602   -0.1186   17.7171 C.ar    1  UNL1        0.0382
      4 C           4.5538    0.7701   17.5284 C.ar    1  UNL1        0.1386
      5 C           4.5848    2.1291   18.1626 C.ar    1  UNL1        0.0382
      6 C           3.4222    2.5994   18.9856 C.ar    1  UNL1        0.0180
      7 O          -2.3830    3.4645   23.9604 O.2     1  UNL1       -0.2699
      8 C          -2.4216    3.5919   22.4663 C.2     1  UNL1        0.2494
      9 N          -1.2589    3.1216   21.6433 N.am    1  UNL1       -0.2660
     10 C          -0.0580    2.5239   22.3144 C.3     1  UNL1        0.1160
     11 C           1.1046    2.0536   21.4914 C.3     1  UNL1        0.1197
     12 N           1.0662    2.1810   19.9973 N.am    1  UNL1       -0.2555
     13 C          -0.1349    2.7787   19.3262 C.2     1  UNL1        0.2497
     14 O          -0.1733    2.9061   17.8321 O.2     1  UNL1       -0.2727
     15 C          -1.2974    3.2490   20.1492 C.3     1  UNL1        0.1799
     16 C          -3.6225    4.1896   21.7952 C.ar    1  UNL1        0.0537
     17 C          -3.7007    5.6718   21.5788 C.ar    1  UNL1        0.0068
     18 C          -4.9017    6.2695   20.9076 C.ar    1  UNL1        0.0298
     19 C          -6.0245    5.3849   20.4529 C.ar    1  UNL1        0.1401
     20 F          -7.2255    5.9826   19.7818 F       1  UNL1       -0.2042
     21 C          -5.9463    3.9026   20.6693 C.ar    1  UNL1        0.0298
     22 C          -4.7453    3.3050   21.3405 C.ar    1  UNL1        0.0068
     23 O           5.7163    0.2998   16.7054 O.3     1  UNL1       -0.4754
     24 C           7.0920    0.8320   16.9778 C.3     1  UNL1        0.2068
     25 C           7.7870    0.4917   18.2629 C.3     1  UNL1        0.0646
     26 C           7.7895   -0.9227   18.7624 C.3     1  UNL1        0.0759
     27 N           6.5087   -1.5621   19.2105 N.3     1  UNL1       -0.2726
     28 C           6.0472   -2.7346   18.3965 C.3     1  UNL1        0.0721
     29 C           4.8218   -3.5791   18.5844 C.3     1  UNL1        0.0173
     30 C           3.7554   -3.4597   19.6323 C.3     1  UNL1        0.0015
     31 C           3.6508   -2.4664   20.7515 C.3     1  UNL1        0.0015
     32 C           4.5870   -1.3471   21.0989 C.3     1  UNL1        0.0173
     33 C           5.8589   -0.9447   20.4130 C.3     1  UNL1        0.0721
@<TRIPOS>BOND
     1     7     8    2
     2     8    16    1
     3    16    17   ar
     4    17    18   ar
     5    18    19   ar
     6    19    20    1
     7    19    21   ar
     8    21    22   ar
     9     8     9   am
    10     9    10    1
    11    10    11    1
    12    11    12    1
    13    12     1    1
    14     1     2   ar
    15     2     3   ar
    16     3     4   ar
    17     4    23    1
    18    23    24    1
    19    24    25    1
    20    25    26    1
    21    26    27    1
    22    27    28    1
    23    28    29    1
    24    29    30    1
    25    30    31    1
    26    31    32    1
    27    32    33    1
    28     4     5   ar
    29     5     6   ar
    30    12    13   am
    31    13    14    2
    32    13    15    1
    33    22    16   ar
    34    15     9    1
    35     6     1   ar
    36    33    27    1
@<TRIPOS>MOLECULE
*****
 33 36 0 0 0
SMALL
GASTEIGER

@<TRIPOS>ATOM
      1 C          -2.4301    3.9912   24.1956 C.ar    1  UNL1        0.0541
      2 C          -1.9270    5.2501   24.8374 C.ar    1  UNL1        0.0180
      3 C          -2.6855    5.8670   25.9750 C.ar    1  UNL1        0.0382
      4 C          -3.9473    5.2249   26.4707 C.ar    1  UNL1        0.1386
      5 C          -4.4504    3.9659   25.8288 C.ar    1  UNL1        0.0382
      6 C          -3.6918    3.3491   24.6913 C.ar    1  UNL1        0.0180
      7 O           0.1612    1.7615   18.2320 O.2     1  UNL1       -0.2699
      8 C           0.6044    1.5239   19.6453 C.2     1  UNL1        0.2494
      9 N          -0.1543    2.1408   20.7829 N.am    1  UNL1       -0.2660
     10 C          -1.3560    2.9951   20.5072 C.3     1  UNL1        0.1160
     11 C          -2.1146    3.6119   21.6448 C.3     1  UNL1        0.1197
     12 N          -1.6715    3.3744   23.0580 N.am    1  UNL1       -0.2555
     13 C          -0.4697    2.5201   23.3337 C.2     1  UNL1        0.2497
     14 O          -0.0266    2.2826   24.7470 O.2     1  UNL1       -0.2727
     15 C           0.2889    1.9033   22.1961 C.3     1  UNL1        0.1799
     16 C           1.8061    0.6697   19.9210 C.ar    1  UNL1        0.0537
     17 C           1.6472   -0.8099   20.1094 C.ar    1  UNL1        0.0068
     18 C           2.8490   -1.6643   20.3851 C.ar    1  UNL1        0.0298
     19 C           4.2096   -1.0389   20.4724 C.ar    1  UNL1        0.1401
     20 F           5.4113   -1.8931   20.7481 F       1  UNL1       -0.2042
     21 C           4.3685    0.4407   20.2839 C.ar    1  UNL1        0.0298
     22 C           3.1667    1.2950   20.0082 C.ar    1  UNL1        0.0068
     23 O          -4.7059    5.8416   27.6083 O.3     1  UNL1       -0.4754
     24 C          -6.2058    5.8335   27.6012 C.3     1  UNL1        0.2068
     25 C          -6.9583    6.9043   26.8681 C.3     1  UNL1        0.0646
     26 C          -7.7269    6.5642   25.6257 C.3     1  UNL1        0.0759
     27 N          -7.0063    6.0482   24.4156 N.3     1  UNL1       -0.2726
     28 C          -5.8954    6.9150   23.9009 C.3     1  UNL1        0.0721
     29 C          -4.9957    6.6813   22.7236 C.3     1  UNL1        0.0173
     30 C          -4.9846    5.5233   21.7704 C.3     1  UNL1        0.0015
     31 C          -5.8704    4.3129   21.7588 C.3     1  UNL1        0.0015
     32 C          -6.9862    3.9615   22.6977 C.3     1  UNL1        0.0173
     33 C          -7.4916    4.7339   23.8801 C.3     1  UNL1        0.0721
@<TRIPOS>BOND
     1     7     8    2
     2     8    16    1
     3    16    17   ar
     4    17    18   ar
     5    18    19   ar
     6    19    20    1
     7    19    21   ar
     8    21    22   ar
     9     8     9   am
    10     9    10    1
    11    10    11    1
    12    11    12    1
    13    12     1    1
    14     1     2   ar
    15     2     3   ar
    16     3     4   ar
    17     4    23    1
    18    23    24    1
    19    24    25    1
    20    25    26    1
    21    26    27    1
    22    27    28    1
    23    28    29    1
    24    29    30    1
    25    30    31    1
    26    31    32    1
    27    32    33    1
    28     4     5   ar
    29     5     6   ar
    30    12    13   am
    31    13    14    2
    32    13    15    1
    33    22    16   ar
    34    15     9    1
    35     6     1   ar
    36    33    27    1
