@<TRIPOS>MOLECULE
*****
 41 45 0 0 0
SMALL
GASTEIGER

@<TRIPOS>ATOM
      1 C           3.6466   -0.7778   21.1179 C.ar    1  UNL1        0.0383
      2 C           5.0156   -1.3897   21.1544 C.ar    1  UNL1        0.0433
      3 N           5.6817   -0.9599   22.4278 N.ar    1  UNL1       -0.3260
      4 C           4.7243   -0.0824   23.1784 C.ar    1  UNL1        0.0606
      5 C           4.8354    0.6288   24.4944 C.ar    1  UNL1        0.0203
      6 C           3.6887    1.4525   25.0008 C.ar    1  UNL1        0.0384
      7 C           2.4309    1.5650   24.1913 C.ar    1  UNL1        0.1392
      8 C           2.3199    0.8539   22.8753 C.ar    1  UNL1        0.0389
      9 C           3.4666    0.0302   22.3688 C.ar    1  UNL1        0.0256
     10 S           2.6351   -0.9446   20.0229 S.3     1  UNL1       -0.1142
     11 C           0.7588    0.0328   19.8673 C.3     1  UNL1        0.0112
     12 C           2.1231    0.2570   19.2855 C.3     1  UNL1        0.0434
     13 C           3.4874    0.4813   18.7036 C.3     1  UNL1        0.0112
     14 C           1.6110    1.4587   18.5480 C.3     1  UNL1        0.0112
     15 C           5.6135   -2.2759   20.1021 C.3     1  UNL1        0.0495
     16 C           4.8890   -3.5140   19.6639 C.3     1  UNL1        0.0376
     17 C           5.0127   -3.0801   18.2334 C.3     1  UNL1        0.0059
     18 C           4.7652   -3.9479   21.0944 C.3     1  UNL1        0.0059
     19 C           4.1643   -4.7521   19.2256 C.2     1  UNL1        0.0500
     20 O           2.6887   -4.7033   18.9606 O.co2   1  UNL1       -0.5492
     21 O           4.9153   -6.0389   19.0522 O.co2   1  UNL1       -0.5492
     22 C           7.0626   -1.3408   22.8726 C.3     1  UNL1        0.1324
     23 C           7.2671   -2.5585   23.7245 C.ar    1  UNL1        0.0004
     24 C           8.0944   -3.7007   23.2139 C.ar    1  UNL1       -0.0023
     25 C           8.2989   -4.9183   24.0657 C.ar    1  UNL1        0.0017
     26 C           7.6760   -4.9936   25.4281 C.ar    1  UNL1        0.0238
     27 C           6.8487   -3.8514   25.9387 C.ar    1  UNL1        0.0017
     28 C           6.6442   -2.6338   25.0869 C.ar    1  UNL1       -0.0023
     29 C           7.8805   -6.2112   26.2800 C.ar    1  UNL1        0.1108
     30 N           8.3108   -6.2198   27.7169 N.ar    1  UNL1       -0.2368
     31 C           8.3867   -7.6479   28.1695 C.ar    1  UNL1        0.1064
     32 C           8.0033   -8.5219   27.0123 C.ar    1  UNL1        0.0575
     33 S           7.6905   -7.6340   25.8445 S.2     1  UNL1       -0.0659
     34 O           1.2842    2.3888   24.6979 O.3     1  UNL1       -0.4690
     35 C           1.1918    2.7294   26.1557 C.3     1  UNL1        0.2508
     36 C           0.6550    1.7219   27.1288 C.ar    1  UNL1        0.1026
     37 C          -0.8166    1.6643   27.4136 C.ar    1  UNL1        0.0185
     38 C          -1.3532    0.6568   28.3867 C.ar    1  UNL1        0.0029
     39 C          -0.4184   -0.2931   29.0749 C.ar    1  UNL1        0.0207
     40 C           1.0532   -0.2355   28.7901 C.ar    1  UNL1        0.0986
     41 N           1.5899    0.7719   27.8170 N.ar    1  UNL1       -0.2445
@<TRIPOS>UNITY_ATOM_ATTR
20 1
charge -1
@<TRIPOS>BOND
     1    11    12    1
     2    12    13    1
     3    12    14    1
     4    12    10    1
     5    10     1    1
     6     1     2   ar
     7     2    15    1
     8    15    16    1
     9    16    17    1
    10    16    18    1
    11    16    19    1
    12    19    20   ar
    13    19    21   ar
    14     2     3   ar
    15     3    22    1
    16    22    23    1
    17    23    24   ar
    18    24    25   ar
    19    25    26   ar
    20    26    29    1
    21    29    30   ar
    22    30    31   ar
    23    31    32   ar
    24    32    33   ar
    25    26    27   ar
    26    27    28   ar
    27     3     4   ar
    28     4     5   ar
    29     5     6   ar
    30     6     7   ar
    31     7    34    1
    32    34    35    1
    33    35    36    1
    34    36    37   ar
    35    37    38   ar
    36    38    39   ar
    37    39    40   ar
    38    40    41   ar
    39     7     8   ar
    40     8     9   ar
    41     9     1   ar
    42    28    23   ar
    43     9     4   ar
    44    33    29   ar
    45    41    36   ar
@<TRIPOS>MOLECULE
*****
 41 45 0 0 0
SMALL
GASTEIGER

@<TRIPOS>ATOM
      1 C           7.0304   -3.4076   23.0375 C.ar    1  UNL1        0.0383
      2 C           6.0102   -3.4335   21.9382 C.ar    1  UNL1        0.0433
      3 N           4.7796   -2.7318   22.4314 N.ar    1  UNL1       -0.3260
      4 C           5.0392   -2.2723   23.8355 C.ar    1  UNL1        0.0606
      5 C           4.1886   -1.5275   24.8213 C.ar    1  UNL1        0.0203
      6 C           4.7292   -1.2004   26.1817 C.ar    1  UNL1        0.0384
      7 C           6.1203   -1.6181   26.5563 C.ar    1  UNL1        0.1392
      8 C           6.9709   -2.3629   25.5705 C.ar    1  UNL1        0.0389
      9 C           6.4303   -2.6900   24.2101 C.ar    1  UNL1        0.0256
     10 S           8.4088   -3.9961   22.9753 S.3     1  UNL1       -0.1142
     11 C           9.2769   -5.3169   21.5605 C.3     1  UNL1        0.0112
     12 C           8.5861   -5.4825   22.8816 C.3     1  UNL1        0.0434
     13 C           7.8954   -5.6482   24.2028 C.3     1  UNL1        0.0112
     14 C           8.7635   -6.9690   22.7880 C.3     1  UNL1        0.0112
     15 C           6.1892   -4.0523   20.5836 C.3     1  UNL1        0.0495
     16 C           6.0137   -3.2186   19.3491 C.3     1  UNL1        0.0376
     17 C           4.8781   -4.0981   18.9167 C.3     1  UNL1        0.0059
     18 C           7.1492   -2.3392   19.7815 C.3     1  UNL1        0.0059
     19 C           5.8381   -2.3850   18.1144 C.2     1  UNL1        0.0500
     20 O           7.0396   -1.9218   17.3452 O.co2   1  UNL1       -0.5492
     21 O           4.4611   -2.0145   17.6492 O.co2   1  UNL1       -0.5492
     22 C           3.5118   -2.5258   21.6565 C.3     1  UNL1        0.1324
     23 C           3.2755   -1.2319   20.9352 C.ar    1  UNL1        0.0004
     24 C           4.3259   -0.1612   20.9520 C.ar    1  UNL1       -0.0023
     25 C           4.0897    1.1326   20.2308 C.ar    1  UNL1        0.0017
     26 C           2.8030    1.3557   19.4927 C.ar    1  UNL1        0.0238
     27 C           1.7526    0.2850   19.4760 C.ar    1  UNL1        0.0017
     28 C           1.9889   -1.0088   20.1972 C.ar    1  UNL1       -0.0023
     29 C           2.5667    2.6495   18.7714 C.ar    1  UNL1        0.1108
     30 N           1.2328    3.2873   18.5190 N.ar    1  UNL1       -0.2368
     31 C           1.4646    4.5647   17.7675 C.ar    1  UNL1        0.1064
     32 C           2.9417    4.7163   17.5555 C.ar    1  UNL1        0.0575
     33 S           3.6229    3.5326   18.1759 S.2     1  UNL1       -0.0659
     34 O           6.6609   -1.2910   27.9168 O.3     1  UNL1       -0.4690
     35 C           5.9373   -1.7603   29.1441 C.3     1  UNL1        0.2508
     36 C           6.3162   -3.0619   29.7863 C.ar    1  UNL1        0.1026
     37 C           6.5692   -4.2719   28.9367 C.ar    1  UNL1        0.0185
     38 C           6.9480   -5.5734   29.5789 C.ar    1  UNL1        0.0029
     39 C           7.0738   -5.6649   31.0708 C.ar    1  UNL1        0.0207
     40 C           6.8208   -4.4550   31.9205 C.ar    1  UNL1        0.0986
     41 N           6.4420   -3.1535   31.2782 N.ar    1  UNL1       -0.2445
@<TRIPOS>UNITY_ATOM_ATTR
20 1
charge -1
@<TRIPOS>BOND
     1    11    12    1
     2    12    13    1
     3    12    14    1
     4    12    10    1
     5    10     1    1
     6     1     2   ar
     7     2    15    1
     8    15    16    1
     9    16    17    1
    10    16    18    1
    11    16    19    1
    12    19    20   ar
    13    19    21   ar
    14     2     3   ar
    15     3    22    1
    16    22    23    1
    17    23    24   ar
    18    24    25   ar
    19    25    26   ar
    20    26    29    1
    21    29    30   ar
    22    30    31   ar
    23    31    32   ar
    24    32    33   ar
    25    26    27   ar
    26    27    28   ar
    27     3     4   ar
    28     4     5   ar
    29     5     6   ar
    30     6     7   ar
    31     7    34    1
    32    34    35    1
    33    35    36    1
    34    36    37   ar
    35    37    38   ar
    36    38    39   ar
    37    39    40   ar
    38    40    41   ar
    39     7     8   ar
    40     8     9   ar
    41     9     1   ar
    42    28    23   ar
    43     9     4   ar
    44    33    29   ar
    45    41    36   ar
@<TRIPOS>MOLECULE
*****
 41 45 0 0 0
SMALL
GASTEIGER

@<TRIPOS>ATOM
      1 C           3.3147   -0.9591   20.5869 C.ar    1  UNL1        0.0383
      2 C           2.8293    0.4601   20.5996 C.ar    1  UNL1        0.0433
      3 N           3.1308    1.0410   21.9493 N.ar    1  UNL1       -0.3260
      4 C           3.8025   -0.0192   22.7708 C.ar    1  UNL1        0.0606
      5 C           4.3254   -0.0187   24.1767 C.ar    1  UNL1        0.0203
      6 C           4.9619   -1.2544   24.7405 C.ar    1  UNL1        0.0384
      7 C           5.0755   -2.4905   23.8985 C.ar    1  UNL1        0.1392
      8 C           4.5527   -2.4910   22.4926 C.ar    1  UNL1        0.0389
      9 C           3.9162   -1.2554   21.9288 C.ar    1  UNL1        0.0256
     10 S           3.2160   -1.9145   19.4347 S.3     1  UNL1       -0.1142
     11 C           3.9989   -3.8698   19.1826 C.3     1  UNL1        0.0112
     12 C           4.4616   -2.4880   18.8271 C.3     1  UNL1        0.0434
     13 C           4.9245   -1.1061   18.4715 C.3     1  UNL1        0.0112
     14 C           5.7073   -3.0615   18.2194 C.3     1  UNL1        0.0112
     15 C           2.1599    1.1732   19.4623 C.3     1  UNL1        0.0495
     16 C           0.8573    1.8828   19.6848 C.3     1  UNL1        0.0376
     17 C           1.4609    3.1537   19.1648 C.3     1  UNL1        0.0059
     18 C           0.2538    0.6119   20.2048 C.3     1  UNL1        0.0059
     19 C          -0.4454    2.5925   19.9072 C.2     1  UNL1        0.0500
     20 O          -0.8531    3.7141   18.9985 O.co2   1  UNL1       -0.5492
     21 O          -1.3403    2.1806   21.0383 O.co2   1  UNL1       -0.5492
     22 C           2.8158    2.4370   22.3987 C.3     1  UNL1        0.1324
     23 C           1.5148    2.7280   23.0864 C.ar    1  UNL1        0.0004
     24 C           0.8152    1.6472   23.8562 C.ar    1  UNL1       -0.0023
     25 C          -0.4857    1.9382   24.5439 C.ar    1  UNL1        0.0017
     26 C          -1.0870    3.3099   24.4618 C.ar    1  UNL1        0.0238
     27 C          -0.3874    4.3907   23.6920 C.ar    1  UNL1        0.0017
     28 C           0.9135    4.0997   23.0043 C.ar    1  UNL1       -0.0023
     29 C          -2.3879    3.6009   25.1494 C.ar    1  UNL1        0.1108
     30 N          -2.5685    3.8833   26.6115 N.ar    1  UNL1       -0.2368
     31 C          -4.0289    4.1175   26.8614 C.ar    1  UNL1        0.1064
     32 C          -4.7509    3.9799   25.5538 C.ar    1  UNL1        0.0575
     33 S          -3.7367    3.6607   24.4957 S.2     1  UNL1       -0.0659
     34 O           5.7121   -3.7262   24.4625 O.3     1  UNL1       -0.4690
     35 C           6.9259   -4.3119   23.8041 C.3     1  UNL1        0.2508
     36 C           7.5768   -5.5335   24.3821 C.ar    1  UNL1        0.1026
     37 C           8.5205   -6.3468   23.5467 C.ar    1  UNL1        0.0185
     38 C           9.1714   -7.5684   24.1247 C.ar    1  UNL1        0.0029
     39 C           8.8786   -7.9766   25.5380 C.ar    1  UNL1        0.0207
     40 C           7.9349   -7.1633   26.3734 C.ar    1  UNL1        0.0986
     41 N           7.2840   -5.9417   25.7954 N.ar    1  UNL1       -0.2445
@<TRIPOS>UNITY_ATOM_ATTR
20 1
charge -1
@<TRIPOS>BOND
     1    11    12    1
     2    12    13    1
     3    12    14    1
     4    12    10    1
     5    10     1    1
     6     1     2   ar
     7     2    15    1
     8    15    16    1
     9    16    17    1
    10    16    18    1
    11    16    19    1
    12    19    20   ar
    13    19    21   ar
    14     2     3   ar
    15     3    22    1
    16    22    23    1
    17    23    24   ar
    18    24    25   ar
    19    25    26   ar
    20    26    29    1
    21    29    30   ar
    22    30    31   ar
    23    31    32   ar
    24    32    33   ar
    25    26    27   ar
    26    27    28   ar
    27     3     4   ar
    28     4     5   ar
    29     5     6   ar
    30     6     7   ar
    31     7    34    1
    32    34    35    1
    33    35    36    1
    34    36    37   ar
    35    37    38   ar
    36    38    39   ar
    37    39    40   ar
    38    40    41   ar
    39     7     8   ar
    40     8     9   ar
    41     9     1   ar
    42    28    23   ar
    43     9     4   ar
    44    33    29   ar
    45    41    36   ar
@<TRIPOS>MOLECULE
*****
 41 45 0 0 0
SMALL
GASTEIGER

@<TRIPOS>ATOM
      1 C           5.1024   -2.6941   23.2586 C.ar    1  UNL1        0.0383
      2 C           4.5105   -2.7074   21.8804 C.ar    1  UNL1        0.0433
      3 N           3.4039   -1.6956   21.8415 N.ar    1  UNL1       -0.3260
      4 C           3.3118   -1.0570   23.1956 C.ar    1  UNL1        0.0606
      5 C           2.4077    0.0068   23.7443 C.ar    1  UNL1        0.0203
      6 C           2.5534    0.4533   25.1688 C.ar    1  UNL1        0.0384
      7 C           3.6032   -0.1638   26.0447 C.ar    1  UNL1        0.1392
      8 C           4.5072   -1.2276   25.4960 C.ar    1  UNL1        0.0389
      9 C           4.3616   -1.6741   24.0715 C.ar    1  UNL1        0.0256
     10 S           6.2361   -3.5505   23.7396 S.3     1  UNL1       -0.1142
     11 C           7.6540   -4.7662   22.7338 C.3     1  UNL1        0.0112
     12 C           7.6182   -3.3398   23.1963 C.3     1  UNL1        0.0434
     13 C           7.5824   -1.9132   23.6587 C.3     1  UNL1        0.0112
     14 C           9.0003   -3.1289   22.6530 C.3     1  UNL1        0.0112
     15 C           4.9484   -3.5794   20.7412 C.3     1  UNL1        0.0495
     16 C           5.2283   -2.9738   19.3977 C.3     1  UNL1        0.0376
     17 C           4.1833   -3.8564   18.7822 C.3     1  UNL1        0.0059
     18 C           6.2733   -2.0912   20.0133 C.3     1  UNL1        0.0059
     19 C           5.5082   -2.3682   18.0542 C.2     1  UNL1        0.0500
     20 O           4.4005   -1.7186   17.2789 O.co2   1  UNL1       -0.5492
     21 O           6.8956   -2.4123   17.4859 O.co2   1  UNL1       -0.5492
     22 C           2.5408   -1.3781   20.6565 C.3     1  UNL1        0.1324
     23 C           2.6574   -0.0445   19.9794 C.ar    1  UNL1        0.0004
     24 C           3.9247    0.7490   20.0990 C.ar    1  UNL1       -0.0023
     25 C           4.0414    2.0824   19.4220 C.ar    1  UNL1        0.0017
     26 C           2.8907    2.6223   18.6255 C.ar    1  UNL1        0.0238
     27 C           1.6235    1.8288   18.5059 C.ar    1  UNL1        0.0017
     28 C           1.5068    0.4953   19.1829 C.ar    1  UNL1       -0.0023
     29 C           3.0073    3.9557   17.9485 C.ar    1  UNL1        0.1108
     30 N           1.8661    4.8183   17.4973 N.ar    1  UNL1       -0.2368
     31 C           2.4392    6.0564   16.8738 C.ar    1  UNL1        0.1064
     32 C           3.9345    5.9591   16.9396 C.ar    1  UNL1        0.0575
     33 S           4.2857    4.6608   17.6038 S.2     1  UNL1       -0.0659
     34 O           3.7488    0.2828   27.4693 O.3     1  UNL1       -0.4690
     35 C           2.8447    1.3465   28.0179 C.3     1  UNL1        0.2508
     36 C           1.3804    1.0706   28.1906 C.ar    1  UNL1        0.1026
     37 C           0.3665    2.0279   27.6379 C.ar    1  UNL1        0.0185
     38 C          -1.0977    1.7519   27.8105 C.ar    1  UNL1        0.0029
     39 C          -1.5480    0.5186   28.5359 C.ar    1  UNL1        0.0207
     40 C          -0.5341   -0.4387   29.0886 C.ar    1  UNL1        0.0986
     41 N           0.9301   -0.1627   28.9160 N.ar    1  UNL1       -0.2445
@<TRIPOS>UNITY_ATOM_ATTR
20 1
charge -1
@<TRIPOS>BOND
     1    11    12    1
     2    12    13    1
     3    12    14    1
     4    12    10    1
     5    10     1    1
     6     1     2   ar
     7     2    15    1
     8    15    16    1
     9    16    17    1
    10    16    18    1
    11    16    19    1
    12    19    20   ar
    13    19    21   ar
    14     2     3   ar
    15     3    22    1
    16    22    23    1
    17    23    24   ar
    18    24    25   ar
    19    25    26   ar
    20    26    29    1
    21    29    30   ar
    22    30    31   ar
    23    31    32   ar
    24    32    33   ar
    25    26    27   ar
    26    27    28   ar
    27     3     4   ar
    28     4     5   ar
    29     5     6   ar
    30     6     7   ar
    31     7    34    1
    32    34    35    1
    33    35    36    1
    34    36    37   ar
    35    37    38   ar
    36    38    39   ar
    37    39    40   ar
    38    40    41   ar
    39     7     8   ar
    40     8     9   ar
    41     9     1   ar
    42    28    23   ar
    43     9     4   ar
    44    33    29   ar
    45    41    36   ar
@<TRIPOS>MOLECULE
*****
 41 45 0 0 0
SMALL
GASTEIGER

@<TRIPOS>ATOM
      1 C           4.3769   -1.8871   21.7726 C.ar    1  UNL1        0.0383
      2 C           3.9037   -0.5745   21.2222 C.ar    1  UNL1        0.0433
      3 N           4.0088    0.4503   22.3125 N.ar    1  UNL1       -0.3260
      4 C           4.5469   -0.2290   23.5368 C.ar    1  UNL1        0.0606
      5 C           4.8592    0.2812   24.9124 C.ar    1  UNL1        0.0203
      6 C           5.3989   -0.6532   25.9543 C.ar    1  UNL1        0.0384
      7 C           5.6263   -2.0978   25.6206 C.ar    1  UNL1        0.1392
      8 C           5.3141   -2.6081   24.2451 C.ar    1  UNL1        0.0389
      9 C           4.7744   -1.6737   23.2032 C.ar    1  UNL1        0.0256
     10 S           4.4412   -3.1854   21.0240 S.3     1  UNL1       -0.1142
     11 C           6.2979   -2.7321   20.1036 C.3     1  UNL1        0.0112
     12 C           4.9635   -3.2155   19.6183 C.3     1  UNL1        0.0434
     13 C           3.6290   -3.6989   19.1329 C.3     1  UNL1        0.0112
     14 C           5.4857   -3.2456   18.2125 C.3     1  UNL1        0.0112
     15 C           3.4119   -0.3295   19.8264 C.3     1  UNL1        0.0495
     16 C           2.0494    0.2569   19.6035 C.3     1  UNL1        0.0376
     17 C           1.4464   -0.8198   20.4560 C.3     1  UNL1        0.0059
     18 C           2.6524    1.3337   18.7509 C.3     1  UNL1        0.0059
     19 C           0.6869    0.8434   19.3805 C.2     1  UNL1        0.0500
     20 O          -0.3557    0.7478   20.4547 O.co2   1  UNL1       -0.5492
     21 O           0.3670    1.5253   18.0834 O.co2   1  UNL1       -0.5492
     22 C           3.6405    1.8999   22.1986 C.3     1  UNL1        0.1324
     23 C           2.2362    2.3418   22.4866 C.ar    1  UNL1        0.0004
     24 C           1.6628    3.5303   21.7734 C.ar    1  UNL1       -0.0023
     25 C           0.2586    3.9722   22.0613 C.ar    1  UNL1        0.0017
     26 C          -0.5721    3.2257   23.0626 C.ar    1  UNL1        0.0238
     27 C           0.0014    2.0372   23.7758 C.ar    1  UNL1        0.0017
     28 C           1.4055    1.5953   23.4879 C.ar    1  UNL1       -0.0023
     29 C          -1.9763    3.6676   23.3506 C.ar    1  UNL1        0.1108
     30 N          -2.6436    3.6644   24.6940 N.ar    1  UNL1       -0.2368
     31 C          -4.0394    4.1851   24.5195 C.ar    1  UNL1        0.1064
     32 C          -4.2348    4.5101   23.0682 C.ar    1  UNL1        0.0575
     33 S          -2.9598    4.1903   22.3458 S.2     1  UNL1       -0.0659
     34 O           6.1661   -3.0323   26.6626 O.3     1  UNL1       -0.4690
     35 C           7.5443   -3.6054   26.5144 C.3     1  UNL1        0.2508
     36 C           7.7301   -4.9646   25.9075 C.ar    1  UNL1        0.1026
     37 C           8.2265   -5.0951   24.4981 C.ar    1  UNL1        0.0185
     38 C           8.4123   -6.4541   23.8912 C.ar    1  UNL1        0.0029
     39 C           8.1018   -7.6827   24.6938 C.ar    1  UNL1        0.0207
     40 C           7.6054   -7.5522   26.1032 C.ar    1  UNL1        0.0986
     41 N           7.4196   -6.1931   26.7101 N.ar    1  UNL1       -0.2445
@<TRIPOS>UNITY_ATOM_ATTR
20 1
charge -1
@<TRIPOS>BOND
     1    11    12    1
     2    12    13    1
     3    12    14    1
     4    12    10    1
     5    10     1    1
     6     1     2   ar
     7     2    15    1
     8    15    16    1
     9    16    17    1
    10    16    18    1
    11    16    19    1
    12    19    20   ar
    13    19    21   ar
    14     2     3   ar
    15     3    22    1
    16    22    23    1
    17    23    24   ar
    18    24    25   ar
    19    25    26   ar
    20    26    29    1
    21    29    30   ar
    22    30    31   ar
    23    31    32   ar
    24    32    33   ar
    25    26    27   ar
    26    27    28   ar
    27     3     4   ar
    28     4     5   ar
    29     5     6   ar
    30     6     7   ar
    31     7    34    1
    32    34    35    1
    33    35    36    1
    34    36    37   ar
    35    37    38   ar
    36    38    39   ar
    37    39    40   ar
    38    40    41   ar
    39     7     8   ar
    40     8     9   ar
    41     9     1   ar
    42    28    23   ar
    43     9     4   ar
    44    33    29   ar
    45    41    36   ar
@<TRIPOS>MOLECULE
*****
 41 45 0 0 0
SMALL
GASTEIGER

@<TRIPOS>ATOM
      1 C           4.8127   -2.4065   23.2004 C.ar    1  UNL1        0.0383
      2 C           4.3676   -2.4908   21.7705 C.ar    1  UNL1        0.0433
      3 N           3.2467   -1.5133   21.5756 N.ar    1  UNL1       -0.3260
      4 C           2.9991   -0.8248   22.8851 C.ar    1  UNL1        0.0606
      5 C           2.0173    0.2335   23.2927 C.ar    1  UNL1        0.0203
      6 C           2.0035    0.7397   24.7046 C.ar    1  UNL1        0.0384
      7 C           2.9714    0.1877   25.7089 C.ar    1  UNL1        0.1392
      8 C           3.9531   -0.8705   25.3012 C.ar    1  UNL1        0.0389
      9 C           3.9670   -1.3768   23.8893 C.ar    1  UNL1        0.0256
     10 S           5.9109   -3.2106   23.8309 S.3     1  UNL1       -0.1142
     11 C           7.3792   -4.5036   23.0112 C.3     1  UNL1        0.0112
     12 C           7.3257   -3.0460   23.3610 C.3     1  UNL1        0.0434
     13 C           7.2723   -1.5882   23.7107 C.3     1  UNL1        0.0112
     14 C           8.7406   -2.8813   22.8910 C.3     1  UNL1        0.0112
     15 C           4.9424   -3.3941   20.7200 C.3     1  UNL1        0.0495
     16 C           5.2946   -2.8447   19.3694 C.3     1  UNL1        0.0376
     17 C           4.3578   -3.8241   18.7267 C.3     1  UNL1        0.0059
     18 C           6.2313   -1.8653   20.0122 C.3     1  UNL1        0.0059
     19 C           5.6468   -2.2953   18.0188 C.2     1  UNL1        0.0500
     20 O           7.0608   -2.3706   17.5239 O.co2   1  UNL1       -0.5492
     21 O           4.5850   -1.6706   17.1630 O.co2   1  UNL1       -0.5492
     22 C           2.5037   -1.2674   20.2959 C.3     1  UNL1        0.1324
     23 C           2.4841    0.1056   19.6920 C.ar    1  UNL1        0.0004
     24 C           1.1969    0.6819   19.1811 C.ar    1  UNL1       -0.0023
     25 C           1.1772    2.0548   18.5772 C.ar    1  UNL1        0.0017
     26 C           2.4448    2.8514   18.4842 C.ar    1  UNL1        0.0238
     27 C           3.7320    2.2751   18.9951 C.ar    1  UNL1        0.0017
     28 C           3.7517    0.9022   19.5990 C.ar    1  UNL1       -0.0023
     29 C           2.4252    4.2243   17.8803 C.ar    1  UNL1        0.1108
     30 N           3.6196    4.9918   17.3963 N.ar    1  UNL1       -0.2368
     31 C           3.1403    6.3126   16.8712 C.ar    1  UNL1        0.1064
     32 C           1.6496    6.3615   17.0308 C.ar    1  UNL1        0.0575
     33 S           1.2076    5.0709   17.6545 S.2     1  UNL1       -0.0659
     34 O           2.9575    0.6940   27.1208 O.3     1  UNL1       -0.4690
     35 C           2.4172   -0.1694   28.2219 C.3     1  UNL1        0.2508
     36 C           3.3212   -0.6280   29.3277 C.ar    1  UNL1        0.1026
     37 C           2.8337   -0.6220   30.7462 C.ar    1  UNL1        0.0185
     38 C           3.7377   -1.0805   31.8518 C.ar    1  UNL1        0.0029
     39 C           5.1292   -1.5450   31.5390 C.ar    1  UNL1        0.0207
     40 C           5.6168   -1.5510   30.1205 C.ar    1  UNL1        0.0986
     41 N           4.7128   -1.0925   29.0148 N.ar    1  UNL1       -0.2445
@<TRIPOS>UNITY_ATOM_ATTR
20 1
charge -1
@<TRIPOS>BOND
     1    11    12    1
     2    12    13    1
     3    12    14    1
     4    12    10    1
     5    10     1    1
     6     1     2   ar
     7     2    15    1
     8    15    16    1
     9    16    17    1
    10    16    18    1
    11    16    19    1
    12    19    20   ar
    13    19    21   ar
    14     2     3   ar
    15     3    22    1
    16    22    23    1
    17    23    24   ar
    18    24    25   ar
    19    25    26   ar
    20    26    29    1
    21    29    30   ar
    22    30    31   ar
    23    31    32   ar
    24    32    33   ar
    25    26    27   ar
    26    27    28   ar
    27     3     4   ar
    28     4     5   ar
    29     5     6   ar
    30     6     7   ar
    31     7    34    1
    32    34    35    1
    33    35    36    1
    34    36    37   ar
    35    37    38   ar
    36    38    39   ar
    37    39    40   ar
    38    40    41   ar
    39     7     8   ar
    40     8     9   ar
    41     9     1   ar
    42    28    23   ar
    43     9     4   ar
    44    33    29   ar
    45    41    36   ar
@<TRIPOS>MOLECULE
*****
 41 45 0 0 0
SMALL
GASTEIGER

@<TRIPOS>ATOM
      1 C           3.3328   -0.9443   20.5392 C.ar    1  UNL1        0.0383
      2 C           2.8575    0.4780   20.5723 C.ar    1  UNL1        0.0433
      3 N           3.1469    1.0318   21.9359 N.ar    1  UNL1       -0.3260
      4 C           3.8011   -0.0482   22.7456 C.ar    1  UNL1        0.0606
      5 C           4.3071   -0.0772   24.1574 C.ar    1  UNL1        0.0203
      6 C           4.9278   -1.3277   24.7060 C.ar    1  UNL1        0.0384
      7 C           5.0427   -2.5490   23.8428 C.ar    1  UNL1        0.1392
      8 C           4.5368   -2.5200   22.4310 C.ar    1  UNL1        0.0389
      9 C           3.9160   -1.2695   21.8824 C.ar    1  UNL1        0.0256
     10 S           3.2410   -1.8776   19.3686 S.3     1  UNL1       -0.1142
     11 C           5.0151   -1.1347   18.4739 C.3     1  UNL1        0.0112
     12 C           4.4847   -2.4982   18.8048 C.3     1  UNL1        0.0434
     13 C           3.9543   -3.8618   19.1357 C.3     1  UNL1        0.0112
     14 C           5.7284   -3.1189   18.2410 C.3     1  UNL1        0.0112
     15 C           2.2069    1.2167   19.4404 C.3     1  UNL1        0.0495
     16 C           0.8871    1.8979   19.6497 C.3     1  UNL1        0.0376
     17 C           1.4630    3.1771   19.1187 C.3     1  UNL1        0.0059
     18 C           0.3111    0.6187   20.1806 C.3     1  UNL1        0.0059
     19 C          -0.4329    2.5792   19.8589 C.2     1  UNL1        0.0500
     20 O          -1.3331    2.1430   20.9767 O.co2   1  UNL1       -0.5492
     21 O          -0.8526    3.6965   18.9505 O.co2   1  UNL1       -0.5492
     22 C           2.8367    2.4217   22.4071 C.3     1  UNL1        0.1324
     23 C           1.5295    2.7098   23.0841 C.ar    1  UNL1        0.0004
     24 C           0.8786    4.0511   22.9184 C.ar    1  UNL1       -0.0023
     25 C          -0.4285    4.3393   23.5953 C.ar    1  UNL1        0.0017
     26 C          -1.0849    3.2861   24.4380 C.ar    1  UNL1        0.0238
     27 C          -0.4340    1.9449   24.6037 C.ar    1  UNL1        0.0017
     28 C           0.8731    1.6567   23.9268 C.ar    1  UNL1       -0.0023
     29 C          -2.3920    3.5742   25.1150 C.ar    1  UNL1        0.1108
     30 N          -2.5870    3.8427   26.5778 N.ar    1  UNL1       -0.2368
     31 C          -4.0492    4.0789   26.8148 C.ar    1  UNL1        0.1064
     32 C          -4.7580    3.9563   25.4985 C.ar    1  UNL1        0.0575
     33 S          -3.7338    3.6444   24.4479 S.2     1  UNL1       -0.0659
     34 O           5.6635   -3.7995   24.3914 O.3     1  UNL1       -0.4690
     35 C           7.1536   -3.9698   24.3678 C.3     1  UNL1        0.2508
     36 C           7.8850   -3.9948   23.0583 C.ar    1  UNL1        0.1026
     37 C           8.3932   -2.7173   22.4586 C.ar    1  UNL1        0.0185
     38 C           9.1245   -2.7424   21.1492 C.ar    1  UNL1        0.0029
     39 C           9.3476   -4.0449   20.4395 C.ar    1  UNL1        0.0207
     40 C           8.8393   -5.3224   21.0392 C.ar    1  UNL1        0.0986
     41 N           8.1080   -5.2973   22.3486 N.ar    1  UNL1       -0.2445
@<TRIPOS>UNITY_ATOM_ATTR
20 1
charge -1
@<TRIPOS>BOND
     1    11    12    1
     2    12    13    1
     3    12    14    1
     4    12    10    1
     5    10     1    1
     6     1     2   ar
     7     2    15    1
     8    15    16    1
     9    16    17    1
    10    16    18    1
    11    16    19    1
    12    19    20   ar
    13    19    21   ar
    14     2     3   ar
    15     3    22    1
    16    22    23    1
    17    23    24   ar
    18    24    25   ar
    19    25    26   ar
    20    26    29    1
    21    29    30   ar
    22    30    31   ar
    23    31    32   ar
    24    32    33   ar
    25    26    27   ar
    26    27    28   ar
    27     3     4   ar
    28     4     5   ar
    29     5     6   ar
    30     6     7   ar
    31     7    34    1
    32    34    35    1
    33    35    36    1
    34    36    37   ar
    35    37    38   ar
    36    38    39   ar
    37    39    40   ar
    38    40    41   ar
    39     7     8   ar
    40     8     9   ar
    41     9     1   ar
    42    28    23   ar
    43     9     4   ar
    44    33    29   ar
    45    41    36   ar
@<TRIPOS>MOLECULE
*****
 41 45 0 0 0
SMALL
GASTEIGER

@<TRIPOS>ATOM
      1 C          -2.6779    4.4048   23.1646 C.ar    1  UNL1        0.0383
      2 C          -2.0021    4.4787   21.8275 C.ar    1  UNL1        0.0433
      3 N          -0.7543    3.6488   21.8924 N.ar    1  UNL1       -0.3260
      4 C          -0.6589    3.0620   23.2695 C.ar    1  UNL1        0.0606
      5 C           0.3569    2.1625   23.9091 C.ar    1  UNL1        0.0203
      6 C           0.1838    1.7303   25.3350 C.ar    1  UNL1        0.0384
      7 C          -1.0051    2.1975   26.1213 C.ar    1  UNL1        0.1392
      8 C          -2.0209    3.0969   25.4817 C.ar    1  UNL1        0.0389
      9 C          -1.8478    3.5292   24.0558 C.ar    1  UNL1        0.0256
     10 S          -3.9590    5.0867   23.5440 S.3     1  UNL1       -0.1142
     11 C          -5.4245    6.1088   22.4005 C.3     1  UNL1        0.0112
     12 C          -5.2430    4.6970   22.8738 C.3     1  UNL1        0.0434
     13 C          -5.0616    3.2852   23.3472 C.3     1  UNL1        0.0112
     14 C          -6.5272    4.3073   22.2037 C.3     1  UNL1        0.0112
     15 C          -2.4887    5.2476   20.6350 C.3     1  UNL1        0.0495
     16 C          -2.5619    4.5824   19.2926 C.3     1  UNL1        0.0376
     17 C          -3.4849    3.5438   19.8577 C.3     1  UNL1        0.0059
     18 C          -1.6389    5.6210   18.7276 C.3     1  UNL1        0.0059
     19 C          -2.6352    3.9171   17.9502 C.2     1  UNL1        0.0500
     20 O          -1.3744    3.5514   17.2246 O.co2   1  UNL1       -0.5492
     21 O          -3.9693    3.6176   17.3334 O.co2   1  UNL1       -0.5492
     22 C           0.2261    3.4421   20.7761 C.3     1  UNL1        0.1324
     23 C           0.9844    2.1519   20.6732 C.ar    1  UNL1        0.0004
     24 C           2.4753    2.1430   20.8385 C.ar    1  UNL1       -0.0023
     25 C           3.2336    0.8530   20.7356 C.ar    1  UNL1        0.0017
     26 C           2.5011   -0.4282   20.4675 C.ar    1  UNL1        0.0238
     27 C           1.0103   -0.4194   20.3022 C.ar    1  UNL1        0.0017
     28 C           0.2519    0.8707   20.4051 C.ar    1  UNL1       -0.0023
     29 C           3.2594   -1.7183   20.3647 C.ar    1  UNL1        0.1108
     30 N           3.2916   -2.6296   19.1736 N.ar    1  UNL1       -0.2368
     31 C           4.1708   -3.7981   19.5077 C.ar    1  UNL1        0.1064
     32 C           4.6819   -3.6091   20.9052 C.ar    1  UNL1        0.0575
     33 S           4.1187   -2.3238   21.4348 S.2     1  UNL1       -0.0659
     34 O          -1.1781    1.7652   27.5472 O.3     1  UNL1       -0.4690
     35 C          -0.4607    0.5496   28.0547 C.3     1  UNL1        0.2508
     36 C           0.4920    0.6676   29.2074 C.ar    1  UNL1        0.1026
     37 C           0.4803    1.8967   30.0672 C.ar    1  UNL1        0.0185
     38 C           1.4329    2.0147   31.2198 C.ar    1  UNL1        0.0029
     39 C           2.3972    0.9036   31.5127 C.ar    1  UNL1        0.0207
     40 C           2.4088   -0.3255   30.6529 C.ar    1  UNL1        0.0986
     41 N           1.4562   -0.4434   29.5003 N.ar    1  UNL1       -0.2445
@<TRIPOS>UNITY_ATOM_ATTR
20 1
charge -1
@<TRIPOS>BOND
     1    11    12    1
     2    12    13    1
     3    12    14    1
     4    12    10    1
     5    10     1    1
     6     1     2   ar
     7     2    15    1
     8    15    16    1
     9    16    17    1
    10    16    18    1
    11    16    19    1
    12    19    20   ar
    13    19    21   ar
    14     2     3   ar
    15     3    22    1
    16    22    23    1
    17    23    24   ar
    18    24    25   ar
    19    25    26   ar
    20    26    29    1
    21    29    30   ar
    22    30    31   ar
    23    31    32   ar
    24    32    33   ar
    25    26    27   ar
    26    27    28   ar
    27     3     4   ar
    28     4     5   ar
    29     5     6   ar
    30     6     7   ar
    31     7    34    1
    32    34    35    1
    33    35    36    1
    34    36    37   ar
    35    37    38   ar
    36    38    39   ar
    37    39    40   ar
    38    40    41   ar
    39     7     8   ar
    40     8     9   ar
    41     9     1   ar
    42    28    23   ar
    43     9     4   ar
    44    33    29   ar
    45    41    36   ar
@<TRIPOS>MOLECULE
*****
 41 45 0 0 0
SMALL
GASTEIGER

@<TRIPOS>ATOM
      1 C           3.5748   -0.7934   20.8899 C.ar    1  UNL1        0.0383
      2 C           3.1607    0.3576   20.0217 C.ar    1  UNL1        0.0433
      3 N           2.7580    1.4919   20.9167 N.ar    1  UNL1       -0.3260
      4 C           2.9231    1.0420   22.3381 C.ar    1  UNL1        0.0606
      5 C           2.6791    1.7359   23.6453 C.ar    1  UNL1        0.0203
      6 C           2.9398    1.0175   24.9359 C.ar    1  UNL1        0.0384
      7 C           3.4447   -0.3949   24.9194 C.ar    1  UNL1        0.1392
      8 C           3.6887   -1.0889   23.6122 C.ar    1  UNL1        0.0389
      9 C           3.4280   -0.3704   22.3216 C.ar    1  UNL1        0.0256
     10 S           4.0519   -2.1323   20.4107 S.3     1  UNL1       -0.1142
     11 C           6.1033   -1.5926   20.4340 C.3     1  UNL1        0.0112
     12 C           5.3003   -2.7333   20.9852 C.3     1  UNL1        0.0434
     13 C           4.4973   -3.8742   21.5365 C.3     1  UNL1        0.0112
     14 C           6.5487   -3.3345   21.5598 C.3     1  UNL1        0.0112
     15 C           3.1511    0.3717   18.5218 C.3     1  UNL1        0.0495
     16 C           4.4399    0.2614   17.7624 C.3     1  UNL1        0.0376
     17 C           5.0015    1.4084   18.5490 C.3     1  UNL1        0.0059
     18 C           3.8782   -0.8856   16.9758 C.3     1  UNL1        0.0059
     19 C           5.7288    0.1511   17.0030 C.2     1  UNL1        0.0500
     20 O           6.2159    1.3071   16.1805 O.co2   1  UNL1       -0.5492
     21 O           6.5305   -1.1150   17.0661 O.co2   1  UNL1       -0.5492
     22 C           2.2749    2.8395   20.4690 C.3     1  UNL1        0.1324
     23 C           0.8142    3.0657   20.2131 C.ar    1  UNL1        0.0004
     24 C          -0.1893    2.7777   21.2902 C.ar    1  UNL1       -0.0023
     25 C          -1.6499    3.0038   21.0344 C.ar    1  UNL1        0.0017
     26 C          -2.1070    3.5180   19.7015 C.ar    1  UNL1        0.0238
     27 C          -1.1035    3.8061   18.6244 C.ar    1  UNL1        0.0017
     28 C           0.3571    3.5799   18.8802 C.ar    1  UNL1       -0.0023
     29 C          -3.5676    3.7442   19.4456 C.ar    1  UNL1        0.1108
     30 N          -4.2425    3.7181   18.1063 N.ar    1  UNL1       -0.2368
     31 C          -5.7018    3.9940   18.3171 C.ar    1  UNL1        0.1064
     32 C          -5.9288    4.1906   19.7867 C.ar    1  UNL1        0.0575
     33 S          -4.6098    4.0362   20.4842 S.2     1  UNL1       -0.0659
     34 O           3.7054   -1.1133   26.2101 O.3     1  UNL1       -0.4690
     35 C           5.1119   -1.2829   26.7032 C.3     1  UNL1        0.2508
     36 C           5.7838   -2.6207   26.6083 C.ar    1  UNL1        0.1026
     37 C           6.2723   -3.1222   25.2817 C.ar    1  UNL1        0.0185
     38 C           6.9441   -4.4599   25.1868 C.ar    1  UNL1        0.0029
     39 C           7.1275   -5.2961   26.4185 C.ar    1  UNL1        0.0207
     40 C           6.6390   -4.7947   27.7451 C.ar    1  UNL1        0.0986
     41 N           5.9672   -3.4570   27.8400 N.ar    1  UNL1       -0.2445
@<TRIPOS>UNITY_ATOM_ATTR
20 1
charge -1
@<TRIPOS>BOND
     1    11    12    1
     2    12    13    1
     3    12    14    1
     4    12    10    1
     5    10     1    1
     6     1     2   ar
     7     2    15    1
     8    15    16    1
     9    16    17    1
    10    16    18    1
    11    16    19    1
    12    19    20   ar
    13    19    21   ar
    14     2     3   ar
    15     3    22    1
    16    22    23    1
    17    23    24   ar
    18    24    25   ar
    19    25    26   ar
    20    26    29    1
    21    29    30   ar
    22    30    31   ar
    23    31    32   ar
    24    32    33   ar
    25    26    27   ar
    26    27    28   ar
    27     3     4   ar
    28     4     5   ar
    29     5     6   ar
    30     6     7   ar
    31     7    34    1
    32    34    35    1
    33    35    36    1
    34    36    37   ar
    35    37    38   ar
    36    38    39   ar
    37    39    40   ar
    38    40    41   ar
    39     7     8   ar
    40     8     9   ar
    41     9     1   ar
    42    28    23   ar
    43     9     4   ar
    44    33    29   ar
    45    41    36   ar
