@<TRIPOS>MOLECULE
*****
 45 48 0 0 0
SMALL
GASTEIGER

@<TRIPOS>ATOM
      1 C          -0.9787    3.4309   24.1175 C.ar    1  UNL1        0.1496
      2 C          -0.0142    2.8414   23.1315 C.ar    1  UNL1        0.0523
      3 C           0.7058    1.5664   23.4570 C.ar    1  UNL1        0.0564
      4 C           0.4613    0.8809   24.7686 C.ar    1  UNL1        0.0523
      5 C          -0.5031    1.4703   25.7547 C.ar    1  UNL1        0.1496
      6 C          -1.2231    2.7454   25.4291 C.ar    1  UNL1        0.0750
      7 N           1.6702    0.9768   22.4709 N.am    1  UNL1       -0.2838
      8 C           1.1607    0.3442   21.2099 C.2     1  UNL1        0.2256
      9 O          -0.3133    0.3011   20.9350 O.2     1  UNL1       -0.2748
     10 H           2.6377    1.0051   22.6514 H       1  UNL1        0.1549
     11 C           2.1251   -0.2454   20.2239 C.3     1  UNL1        0.0769
     12 C           2.4304    0.4808   18.9474 C.3     1  UNL1        0.0104
     13 C           3.3948   -0.1087   17.9614 C.3     1  UNL1        0.0160
     14 C           4.0540   -1.4245   18.2518 C.3     1  UNL1        0.0508
     15 N           5.0183   -2.0141   17.2657 N.3     1  UNL1       -0.3222
     16 C           3.7486   -2.1507   19.5282 C.3     1  UNL1        0.0160
     17 C           2.7842   -1.5611   20.5143 C.3     1  UNL1        0.0104
     18 H           5.1060   -1.3919   16.4622 H       1  UNL1        0.1188
     19 H           4.6747   -2.9231   16.9559 H       1  UNL1        0.1188
     20 O          -1.6986    4.7059   23.7920 O.3     1  UNL1       -0.4533
     21 C          -6.1899    4.8738   24.0147 C.ar    1  UNL1        0.0815
     22 C          -5.3684    5.9917   24.5850 C.ar    1  UNL1        0.0105
     23 C          -3.8713    5.9358   24.5108 C.ar    1  UNL1        0.0377
     24 C          -3.1957    4.7619   23.8662 C.ar    1  UNL1        0.1453
     25 C          -4.0172    3.6439   23.2960 C.ar    1  UNL1        0.0377
     26 C          -5.5143    3.6999   23.3702 C.ar    1  UNL1        0.0105
     27 N          -8.5105    3.8519   23.4486 N.2     1  UNL1       -0.0994
     28 C          -7.6871    4.9297   24.0890 C.2     1  UNL1        0.3093
     29 N          -8.3607    6.0635   24.8036 N.pl3   1  UNL1       -0.2466
     30 H          -9.4932    3.8886   23.4974 H       1  UNL1        0.3633
     31 H          -9.3433    6.1002   24.8523 H       1  UNL1        0.2884
     32 H          -7.8202    6.7710   25.2239 H       1  UNL1        0.2884
     33 O          -0.7476    0.7848   27.0663 O.3     1  UNL1       -0.4533
     34 C           0.1943    1.0023   28.2132 C.ar    1  UNL1        0.1453
     35 C           0.4017    2.3828   28.7621 C.ar    1  UNL1        0.0377
     36 C           1.3436    2.6003   29.9090 C.ar    1  UNL1        0.0105
     37 C           2.0781    1.4372   30.5072 C.ar    1  UNL1        0.0815
     38 C           1.8707    0.0567   29.9584 C.ar    1  UNL1        0.0105
     39 C           0.9288   -0.1608   28.8114 C.ar    1  UNL1        0.0377
     40 C           3.0200    1.6547   31.6541 C.2     1  UNL1        0.3093
     41 N           2.7145    1.0628   32.9981 N.2     1  UNL1       -0.0994
     42 N           4.2675    2.4640   31.4571 N.pl3   1  UNL1       -0.2466
     43 H           1.8957    0.5316   33.1274 H       1  UNL1        0.3633
     44 H           4.4680    2.8525   30.5750 H       1  UNL1        0.2884
     45 H           4.8857    2.6067   32.2099 H       1  UNL1        0.2884
@<TRIPOS>BOND
     1    27    28    2
     2    28    29    1
     3    28    21    1
     4    21    22   ar
     5    22    23   ar
     6    23    24   ar
     7    24    20    1
     8    20     1    1
     9     1     2   ar
    10     2     3   ar
    11     3     7    1
    12     7     8   am
    13     8     9    2
    14    11     8    1
    15    11    12    1
    16    12    13    1
    17    13    14    1
    18    14    15    1
    19    14    16    1
    20    16    17    1
    21     3     4   ar
    22     4     5   ar
    23     5    33    1
    24    33    34    1
    25    34    35   ar
    26    35    36   ar
    27    36    37   ar
    28    37    40    1
    29    40    41    2
    30    40    42    1
    31    37    38   ar
    32    38    39   ar
    33     5     6   ar
    34    24    25   ar
    35    25    26   ar
    36    26    21   ar
    37     6     1   ar
    38    17    11    1
    39    39    34   ar
    40    27    30    1
    41    29    31    1
    42    29    32    1
    43     7    10    1
    44    15    18    1
    45    15    19    1
    46    41    43    1
    47    42    44    1
    48    42    45    1
@<TRIPOS>MOLECULE
*****
 45 48 0 0 0
SMALL
GASTEIGER

@<TRIPOS>ATOM
      1 C          -0.5339    1.7119   25.6248 C.ar    1  UNL1        0.1496
      2 C           0.4340    1.0683   24.6766 C.ar    1  UNL1        0.0523
      3 C           0.6275    1.6365   23.3020 C.ar    1  UNL1        0.0564
      4 C          -0.1467    2.8484   22.8755 C.ar    1  UNL1        0.0523
      5 C          -1.1146    3.4920   23.8236 C.ar    1  UNL1        0.1496
      6 C          -1.3082    2.9238   25.1983 C.ar    1  UNL1        0.0750
      7 N           1.5954    0.9929   22.3538 N.am    1  UNL1       -0.2838
      8 C           1.0979    0.3649   21.0857 C.2     1  UNL1        0.2256
      9 O          -0.3676    0.3805   20.7658 O.2     1  UNL1       -0.2748
     10 H           2.5572    0.9827   22.5637 H       1  UNL1        0.1549
     11 C           2.0657   -0.2787   20.1375 C.3     1  UNL1        0.0769
     12 C           2.2932    0.3162   18.7795 C.3     1  UNL1        0.0104
     13 C           3.2610   -0.3274   17.8313 C.3     1  UNL1        0.0160
     14 C           4.0013   -1.5660   18.2412 C.3     1  UNL1        0.0508
     15 N           4.9691   -2.2096   17.2930 N.3     1  UNL1       -0.3222
     16 C           3.7737   -2.1610   19.5992 C.3     1  UNL1        0.0160
     17 C           2.8059   -1.5173   20.5474 C.3     1  UNL1        0.0104
     18 H           4.9987   -1.6769   16.4237 H       1  UNL1        0.1188
     19 H           4.6687   -3.1644   17.0965 H       1  UNL1        0.1188
     20 O          -0.7275    1.1437   26.9994 O.3     1  UNL1       -0.4533
     21 C           2.7326    0.9735   29.8715 C.ar    1  UNL1        0.0815
     22 C           1.8575   -0.2295   29.6793 C.ar    1  UNL1        0.0105
     23 C           0.7041   -0.1728   28.7220 C.ar    1  UNL1        0.0377
     24 C           0.4259    1.0870   27.9568 C.ar    1  UNL1        0.1453
     25 C           1.3010    2.2899   28.1489 C.ar    1  UNL1        0.0377
     26 C           2.4543    2.2332   29.1063 C.ar    1  UNL1        0.0105
     27 N           5.2447    1.3805   30.3945 N.2     1  UNL1       -0.0994
     28 C           3.8859    0.9167   30.8289 C.2     1  UNL1        0.3093
     29 N           3.6805    0.3963   32.2205 N.pl3   1  UNL1       -0.2466
     30 H           6.0017    1.3432   31.0229 H       1  UNL1        0.3633
     31 H           4.4375    0.3590   32.8489 H       1  UNL1        0.2884
     32 H           2.7887    0.0919   32.5056 H       1  UNL1        0.2884
     33 O          -1.8889    4.7039   23.3971 O.3     1  UNL1       -0.4533
     34 C          -3.3804    4.7343   23.5534 C.ar    1  UNL1        0.1453
     35 C          -4.2371    3.7934   22.7591 C.ar    1  UNL1        0.0377
     36 C          -5.7286    3.8238   22.9154 C.ar    1  UNL1        0.0105
     37 C          -6.3634    4.7950   23.8661 C.ar    1  UNL1        0.0815
     38 C          -5.5068    5.7359   24.6603 C.ar    1  UNL1        0.0105
     39 C          -4.0152    5.7055   24.5040 C.ar    1  UNL1        0.0377
     40 C          -7.8549    4.8254   24.0224 C.2     1  UNL1        0.3093
     41 N          -8.6843    3.6770   23.5293 N.2     1  UNL1       -0.0994
     42 N          -8.5171    6.0044   24.6719 N.pl3   1  UNL1       -0.2466
     43 H          -8.2497    2.9032   23.1030 H       1  UNL1        0.3633
     44 H          -7.9728    6.7582   24.9955 H       1  UNL1        0.2884
     45 H          -9.4960    6.0243   24.7745 H       1  UNL1        0.2884
@<TRIPOS>BOND
     1    27    28    2
     2    28    29    1
     3    28    21    1
     4    21    22   ar
     5    22    23   ar
     6    23    24   ar
     7    24    20    1
     8    20     1    1
     9     1     2   ar
    10     2     3   ar
    11     3     7    1
    12     7     8   am
    13     8     9    2
    14    11     8    1
    15    11    12    1
    16    12    13    1
    17    13    14    1
    18    14    15    1
    19    14    16    1
    20    16    17    1
    21     3     4   ar
    22     4     5   ar
    23     5    33    1
    24    33    34    1
    25    34    35   ar
    26    35    36   ar
    27    36    37   ar
    28    37    40    1
    29    40    41    2
    30    40    42    1
    31    37    38   ar
    32    38    39   ar
    33     5     6   ar
    34    24    25   ar
    35    25    26   ar
    36    26    21   ar
    37     6     1   ar
    38    17    11    1
    39    39    34   ar
    40    27    30    1
    41    29    31    1
    42    29    32    1
    43     7    10    1
    44    15    18    1
    45    15    19    1
    46    41    43    1
    47    42    44    1
    48    42    45    1
@<TRIPOS>MOLECULE
*****
 45 48 0 0 0
SMALL
GASTEIGER

@<TRIPOS>ATOM
      1 C           0.3025    2.5682   22.7161 C.ar    1  UNL1        0.1496
      2 C          -0.7111    3.3066   21.8931 C.ar    1  UNL1        0.0523
      3 C          -1.1801    2.7327   20.5890 C.ar    1  UNL1        0.0564
      4 C          -0.6356    1.4205   20.1079 C.ar    1  UNL1        0.0523
      5 C           0.3780    0.6821   20.9309 C.ar    1  UNL1        0.1496
      6 C           0.8470    1.2559   22.2351 C.ar    1  UNL1        0.0750
      7 N          -2.1938    3.4712   19.7659 N.am    1  UNL1       -0.2838
      8 C          -3.6512    3.3742   20.1070 C.2     1  UNL1        0.2256
      9 O          -4.0951    2.5389   21.2712 O.2     1  UNL1       -0.2748
     10 H          -1.9024    4.0194   19.0018 H       1  UNL1        0.1549
     11 C          -4.6648    4.1126   19.2840 C.3     1  UNL1        0.0769
     12 C          -4.2239    5.2000   18.3496 C.3     1  UNL1        0.0104
     13 C          -5.2375    5.9384   17.5266 C.3     1  UNL1        0.0160
     14 C          -6.6921    5.5893   17.6380 C.3     1  UNL1        0.0508
     15 N          -7.7058    6.3277   16.8150 N.3     1  UNL1       -0.3222
     16 C          -7.1331    4.5019   18.5724 C.3     1  UNL1        0.0160
     17 C          -6.1194    3.7635   19.3954 C.3     1  UNL1        0.0104
     18 H          -7.2339    7.0267   16.2413 H       1  UNL1        0.1188
     19 H          -8.3739    6.7891   17.4322 H       1  UNL1        0.1188
     20 O           0.7715    3.1420   24.0202 O.3     1  UNL1       -0.4533
     21 C           0.5775    0.6613   27.7697 C.ar    1  UNL1        0.0815
     22 C          -0.6696    1.2868   27.2188 C.ar    1  UNL1        0.0105
     23 C          -0.6050    2.1137   25.9690 C.ar    1  UNL1        0.0377
     24 C           0.7068    2.3151   25.2700 C.ar    1  UNL1        0.1453
     25 C           1.9539    1.6896   25.8209 C.ar    1  UNL1        0.0377
     26 C           1.8892    0.8627   27.0707 C.ar    1  UNL1        0.0105
     27 N          -0.8117   -0.6491   29.5312 N.2     1  UNL1       -0.0994
     28 C           0.5128   -0.1656   29.0195 C.2     1  UNL1        0.3093
     29 N           1.7726   -0.5091   29.7576 N.pl3   1  UNL1       -0.2466
     30 H          -0.8542   -1.1919   30.3515 H       1  UNL1        0.3633
     31 H           1.7301   -1.0518   30.5779 H       1  UNL1        0.2884
     32 H           2.6419   -0.1918   29.4217 H       1  UNL1        0.2884
     33 O           0.9225   -0.6302   20.4498 O.3     1  UNL1       -0.4533
     34 C           2.2356   -0.6773   19.7262 C.ar    1  UNL1        0.1453
     35 C           2.4615    0.1919   18.5247 C.ar    1  UNL1        0.0377
     36 C           3.7745    0.1448   17.8011 C.ar    1  UNL1        0.0105
     37 C           4.8617   -0.7716   18.2789 C.ar    1  UNL1        0.0815
     38 C           4.6359   -1.6408   19.4804 C.ar    1  UNL1        0.0105
     39 C           3.3228   -1.5937   20.2040 C.ar    1  UNL1        0.0377
     40 C           6.1748   -0.8187   17.5553 C.2     1  UNL1        0.3093
     41 N           6.9546   -2.0988   17.4991 N.2     1  UNL1       -0.0994
     42 N           6.7081    0.4143   16.8879 N.pl3   1  UNL1       -0.2466
     43 H           6.6046   -2.9081   17.9371 H       1  UNL1        0.3633
     44 H           6.1962    1.2545   16.9248 H       1  UNL1        0.2884
     45 H           7.5699    0.3834   16.4130 H       1  UNL1        0.2884
@<TRIPOS>BOND
     1    27    28    2
     2    28    29    1
     3    28    21    1
     4    21    22   ar
     5    22    23   ar
     6    23    24   ar
     7    24    20    1
     8    20     1    1
     9     1     2   ar
    10     2     3   ar
    11     3     7    1
    12     7     8   am
    13     8     9    2
    14    11     8    1
    15    11    12    1
    16    12    13    1
    17    13    14    1
    18    14    15    1
    19    14    16    1
    20    16    17    1
    21     3     4   ar
    22     4     5   ar
    23     5    33    1
    24    33    34    1
    25    34    35   ar
    26    35    36   ar
    27    36    37   ar
    28    37    40    1
    29    40    41    2
    30    40    42    1
    31    37    38   ar
    32    38    39   ar
    33     5     6   ar
    34    24    25   ar
    35    25    26   ar
    36    26    21   ar
    37     6     1   ar
    38    17    11    1
    39    39    34   ar
    40    27    30    1
    41    29    31    1
    42    29    32    1
    43     7    10    1
    44    15    18    1
    45    15    19    1
    46    41    43    1
    47    42    44    1
    48    42    45    1
@<TRIPOS>MOLECULE
*****
 45 48 0 0 0
SMALL
GASTEIGER

@<TRIPOS>ATOM
      1 C           0.0678    4.2291   23.8128 C.ar    1  UNL1        0.1496
      2 C           1.0095    3.3532   23.0406 C.ar    1  UNL1        0.0523
      3 C           0.7694    3.0961   21.5825 C.ar    1  UNL1        0.0564
      4 C          -0.4124    3.7148   20.8964 C.ar    1  UNL1        0.0523
      5 C          -1.3540    4.5906   21.6685 C.ar    1  UNL1        0.1496
      6 C          -1.1140    4.8478   23.1267 C.ar    1  UNL1        0.0750
      7 N           1.7110    2.2202   20.8103 N.am    1  UNL1       -0.2838
      8 C           1.3126    0.8176   20.4585 C.2     1  UNL1        0.2256
      9 O          -0.0275    0.2908   20.8789 O.2     1  UNL1       -0.2748
     10 H           2.5906    2.5660   20.5344 H       1  UNL1        0.1549
     11 C           2.2542   -0.0583   19.6863 C.3     1  UNL1        0.0769
     12 C           2.6961    0.3450   18.3108 C.3     1  UNL1        0.0104
     13 C           3.6377   -0.5309   17.5387 C.3     1  UNL1        0.0160
     14 C           4.1374   -1.8101   18.1421 C.3     1  UNL1        0.0508
     15 N           5.0790   -2.6859   17.3699 N.3     1  UNL1       -0.3222
     16 C           3.6956   -2.2133   19.5176 C.3     1  UNL1        0.0160
     17 C           2.7539   -1.3374   20.2898 C.3     1  UNL1        0.0104
     18 H           5.2710   -2.2617   16.4624 H       1  UNL1        0.1188
     19 H           4.6551   -3.6036   17.2335 H       1  UNL1        0.1188
     20 O           0.3079    4.4862   25.2709 O.3     1  UNL1       -0.4533
     21 C           0.3878    1.0521   28.1779 C.ar    1  UNL1        0.0815
     22 C          -0.8984    1.4402   27.5107 C.ar    1  UNL1        0.0105
     23 C          -0.9250    2.5849   26.5417 C.ar    1  UNL1        0.0377
     24 C           0.3345    3.3415   26.2399 C.ar    1  UNL1        0.1453
     25 C           1.6207    2.9534   26.9071 C.ar    1  UNL1        0.0377
     26 C           1.6473    1.8087   27.8761 C.ar    1  UNL1        0.0105
     27 N          -0.8611   -0.7861   29.5237 N.2     1  UNL1       -0.0994
     28 C           0.4144   -0.0926   29.1469 C.2     1  UNL1        0.3093
     29 N           1.7165   -0.5438   29.7391 N.pl3   1  UNL1       -0.2466
     30 H          -0.8437   -1.5374   30.1597 H       1  UNL1        0.3633
     31 H           1.7340   -1.2951   30.3751 H       1  UNL1        0.2884
     32 H           2.5538   -0.0887   29.4918 H       1  UNL1        0.2884
     33 O          -2.5358    5.2093   20.9825 O.3     1  UNL1       -0.4533
     34 C          -3.8881    5.1624   21.6298 C.ar    1  UNL1        0.1453
     35 C          -4.5388    3.8408   21.9127 C.ar    1  UNL1        0.0377
     36 C          -5.8911    3.7939   22.5600 C.ar    1  UNL1        0.0105
     37 C          -6.5928    5.0686   22.9244 C.ar    1  UNL1        0.0815
     38 C          -5.9422    6.3901   22.6415 C.ar    1  UNL1        0.0105
     39 C          -4.5898    6.4371   21.9942 C.ar    1  UNL1        0.0377
     40 C          -7.9451    5.0216   23.5717 C.2     1  UNL1        0.3093
     41 N          -8.7302    3.7435   23.5768 N.2     1  UNL1       -0.0994
     42 N          -8.5123    6.2529   24.2139 N.pl3   1  UNL1       -0.2466
     43 H          -8.3579    2.9355   23.1553 H       1  UNL1        0.3633
     44 H          -7.9970    7.0917   24.2106 H       1  UNL1        0.2884
     45 H          -9.3999    6.2221   24.6388 H       1  UNL1        0.2884
@<TRIPOS>BOND
     1    27    28    2
     2    28    29    1
     3    28    21    1
     4    21    22   ar
     5    22    23   ar
     6    23    24   ar
     7    24    20    1
     8    20     1    1
     9     1     2   ar
    10     2     3   ar
    11     3     7    1
    12     7     8   am
    13     8     9    2
    14    11     8    1
    15    11    12    1
    16    12    13    1
    17    13    14    1
    18    14    15    1
    19    14    16    1
    20    16    17    1
    21     3     4   ar
    22     4     5   ar
    23     5    33    1
    24    33    34    1
    25    34    35   ar
    26    35    36   ar
    27    36    37   ar
    28    37    40    1
    29    40    41    2
    30    40    42    1
    31    37    38   ar
    32    38    39   ar
    33     5     6   ar
    34    24    25   ar
    35    25    26   ar
    36    26    21   ar
    37     6     1   ar
    38    17    11    1
    39    39    34   ar
    40    27    30    1
    41    29    31    1
    42    29    32    1
    43     7    10    1
    44    15    18    1
    45    15    19    1
    46    41    43    1
    47    42    44    1
    48    42    45    1
@<TRIPOS>MOLECULE
*****
 45 48 0 0 0
SMALL
GASTEIGER

@<TRIPOS>ATOM
      1 C           0.3581    0.7132   20.9382 C.ar    1  UNL1        0.1496
      2 C          -0.6685    1.4389   20.1199 C.ar    1  UNL1        0.0523
      3 C          -1.2108    2.7551   20.5927 C.ar    1  UNL1        0.0564
      4 C          -0.7266    3.3457   21.8837 C.ar    1  UNL1        0.0523
      5 C           0.3000    2.6200   22.7020 C.ar    1  UNL1        0.1496
      6 C           0.8423    1.3038   22.2293 C.ar    1  UNL1        0.0750
      7 N          -2.2374    3.4808   19.7744 N.am    1  UNL1       -0.2838
      8 C          -3.6889    3.3921   20.1419 C.2     1  UNL1        0.2256
      9 O          -4.1139    2.5776   21.3278 O.2     1  UNL1       -0.2748
     10 H          -1.9584    4.0153   18.9961 H       1  UNL1        0.1549
     11 C          -4.7155    4.1177   19.3237 C.3     1  UNL1        0.0769
     12 C          -6.1738    3.8260   19.5196 C.3     1  UNL1        0.0104
     13 C          -7.2003    4.5516   18.7013 C.3     1  UNL1        0.0160
     14 C          -6.7687    5.5691   17.6872 C.3     1  UNL1        0.0508
     15 N          -7.7952    6.2948   16.8689 N.3     1  UNL1       -0.3222
     16 C          -5.3104    5.8609   17.4913 C.3     1  UNL1        0.0160
     17 C          -4.2838    5.1352   18.3096 C.3     1  UNL1        0.0104
     18 H          -8.7275    5.9746   17.1314 H       1  UNL1        0.1188
     19 H          -7.6369    6.1056   15.8792 H       1  UNL1        0.1188
     20 O           0.9004   -0.6029   20.4655 O.3     1  UNL1       -0.4533
     21 C           4.8397   -0.7649   18.2963 C.ar    1  UNL1        0.0815
     22 C           4.6130   -1.6243   19.5045 C.ar    1  UNL1        0.0105
     23 C           3.2999   -1.5704   20.2276 C.ar    1  UNL1        0.0377
     24 C           2.2135   -0.6569   19.7424 C.ar    1  UNL1        0.1453
     25 C           2.4403    0.2025   18.5342 C.ar    1  UNL1        0.0377
     26 C           3.7534    0.1485   17.8111 C.ar    1  UNL1        0.0105
     27 N           6.9121   -2.1100   17.4926 N.2     1  UNL1       -0.0994
     28 C           6.1529   -0.8189   17.5732 C.2     1  UNL1        0.3093
     29 N           6.7067    0.4182   16.9308 N.pl3   1  UNL1       -0.2466
     30 H           7.7739   -2.1454   17.0180 H       1  UNL1        0.3633
     31 H           7.5685    0.3828   16.4562 H       1  UNL1        0.2884
     32 H           6.2084    1.2656   16.9837 H       1  UNL1        0.2884
     33 O           0.7842    3.2106   23.9931 O.3     1  UNL1       -0.4533
     34 C           0.7533    2.3928   25.2501 C.ar    1  UNL1        0.1453
     35 C          -0.5601    1.9587   25.8304 C.ar    1  UNL1        0.0377
     36 C          -0.5910    1.1409   27.0874 C.ar    1  UNL1        0.0105
     37 C           0.6915    0.7571   27.7643 C.ar    1  UNL1        0.0815
     38 C           2.0048    1.1912   27.1841 C.ar    1  UNL1        0.0105
     39 C           2.0357    2.0091   25.9269 C.ar    1  UNL1        0.0377
     40 C           0.6606   -0.0606   29.0213 C.2     1  UNL1        0.3093
     41 N          -0.6390   -0.6180   29.5217 N.2     1  UNL1       -0.0994
     42 N           1.9293   -0.3211   29.7780 N.pl3   1  UNL1       -0.2466
     43 H          -1.4717   -0.4471   29.0251 H       1  UNL1        0.3633
     44 H           2.7823    0.0447   29.4496 H       1  UNL1        0.2884
     45 H           1.9090   -0.8578   30.6031 H       1  UNL1        0.2884
@<TRIPOS>BOND
     1    27    28    2
     2    28    29    1
     3    28    21    1
     4    21    22   ar
     5    22    23   ar
     6    23    24   ar
     7    24    20    1
     8    20     1    1
     9     1     2   ar
    10     2     3   ar
    11     3     7    1
    12     7     8   am
    13     8     9    2
    14    11     8    1
    15    11    12    1
    16    12    13    1
    17    13    14    1
    18    14    15    1
    19    14    16    1
    20    16    17    1
    21     3     4   ar
    22     4     5   ar
    23     5    33    1
    24    33    34    1
    25    34    35   ar
    26    35    36   ar
    27    36    37   ar
    28    37    40    1
    29    40    41    2
    30    40    42    1
    31    37    38   ar
    32    38    39   ar
    33     5     6   ar
    34    24    25   ar
    35    25    26   ar
    36    26    21   ar
    37     6     1   ar
    38    17    11    1
    39    39    34   ar
    40    27    30    1
    41    29    31    1
    42    29    32    1
    43     7    10    1
    44    15    18    1
    45    15    19    1
    46    41    43    1
    47    42    44    1
    48    42    45    1
@<TRIPOS>MOLECULE
*****
 45 48 0 0 0
SMALL
GASTEIGER

@<TRIPOS>ATOM
      1 C           0.7191    3.2057   22.8382 C.ar    1  UNL1        0.1496
      2 C          -0.7207    3.3469   22.4419 C.ar    1  UNL1        0.0523
      3 C          -1.1559    2.9809   21.0539 C.ar    1  UNL1        0.0564
      4 C          -0.1514    2.4737   20.0621 C.ar    1  UNL1        0.0523
      5 C           1.2884    2.3325   20.4584 C.ar    1  UNL1        0.1496
      6 C           1.7237    2.6985   21.8464 C.ar    1  UNL1        0.0750
      7 N          -2.5958    3.1221   20.6576 N.am    1  UNL1       -0.2838
      8 C          -3.1026    4.4300   20.1262 C.2     1  UNL1        0.2256
      9 O          -2.1696    5.5968   19.9911 O.2     1  UNL1       -0.2748
     10 H          -3.2081    2.3563   20.7463 H       1  UNL1        0.1549
     11 C          -4.5424    4.5712   19.7300 C.3     1  UNL1        0.0769
     12 C          -5.2867    3.3929   19.1755 C.3     1  UNL1        0.0104
     13 C          -6.7265    3.5341   18.7792 C.3     1  UNL1        0.0160
     14 C          -7.4220    4.8537   18.9374 C.3     1  UNL1        0.0508
     15 N          -8.8618    4.9949   18.5411 N.3     1  UNL1       -0.3222
     16 C          -6.6777    6.0321   19.4918 C.3     1  UNL1        0.0160
     17 C          -5.2378    5.8908   19.8881 C.3     1  UNL1        0.0104
     18 H          -9.2062    4.1023   18.1875 H       1  UNL1        0.1188
     19 H          -8.9460    5.7044   17.8131 H       1  UNL1        0.1188
     20 O           1.1544    3.5717   24.2262 O.3     1  UNL1       -0.4533
     21 C           0.2362    0.8246   27.6701 C.ar    1  UNL1        0.0815
     22 C          -0.8457    1.6855   27.0883 C.ar    1  UNL1        0.0105
     23 C          -0.5396    2.6012   25.9403 C.ar    1  UNL1        0.0377
     24 C           0.8483    2.6560   25.3741 C.ar    1  UNL1        0.1453
     25 C           1.9301    1.7952   25.9559 C.ar    1  UNL1        0.0377
     26 C           1.6241    0.8794   27.1039 C.ar    1  UNL1        0.0105
     27 N           1.0183   -0.4897   29.7702 N.2     1  UNL1       -0.0994
     28 C          -0.0699   -0.0911   28.8180 C.2     1  UNL1        0.3093
     29 N          -1.4642   -0.6082   29.0137 N.pl3   1  UNL1       -0.2466
     30 H           0.8174   -1.0907   30.5237 H       1  UNL1        0.3633
     31 H          -1.6651   -1.2093   29.7672 H       1  UNL1        0.2884
     32 H          -2.1785   -0.3467   28.3888 H       1  UNL1        0.2884
     33 O           2.2930    1.8253   19.4666 O.3     1  UNL1       -0.4533
     34 C           2.7634    0.4027   19.5363 C.ar    1  UNL1        0.1453
     35 C           2.7115   -0.3415   20.8376 C.ar    1  UNL1        0.0377
     36 C           3.1820   -1.7641   20.9073 C.ar    1  UNL1        0.0105
     37 C           3.7043   -2.4425   19.6757 C.ar    1  UNL1        0.0815
     38 C           3.7562   -1.6983   18.3744 C.ar    1  UNL1        0.0105
     39 C           3.2857   -0.2757   18.3046 C.ar    1  UNL1        0.0377
     40 C           4.1748   -3.8651   19.7453 C.2     1  UNL1        0.3093
     41 N           4.4390   -4.5033   21.0768 N.2     1  UNL1       -0.0994
     42 N           4.3810   -4.6495   18.4835 N.pl3   1  UNL1       -0.2466
     43 H           4.3036   -3.9885   21.9050 H       1  UNL1        0.3633
     44 H           4.2076   -4.2306   17.6096 H       1  UNL1        0.2884
     45 H           4.6898   -5.5832   18.5292 H       1  UNL1        0.2884
@<TRIPOS>BOND
     1    27    28    2
     2    28    29    1
     3    28    21    1
     4    21    22   ar
     5    22    23   ar
     6    23    24   ar
     7    24    20    1
     8    20     1    1
     9     1     2   ar
    10     2     3   ar
    11     3     7    1
    12     7     8   am
    13     8     9    2
    14    11     8    1
    15    11    12    1
    16    12    13    1
    17    13    14    1
    18    14    15    1
    19    14    16    1
    20    16    17    1
    21     3     4   ar
    22     4     5   ar
    23     5    33    1
    24    33    34    1
    25    34    35   ar
    26    35    36   ar
    27    36    37   ar
    28    37    40    1
    29    40    41    2
    30    40    42    1
    31    37    38   ar
    32    38    39   ar
    33     5     6   ar
    34    24    25   ar
    35    25    26   ar
    36    26    21   ar
    37     6     1   ar
    38    17    11    1
    39    39    34   ar
    40    27    30    1
    41    29    31    1
    42    29    32    1
    43     7    10    1
    44    15    18    1
    45    15    19    1
    46    41    43    1
    47    42    44    1
    48    42    45    1
@<TRIPOS>MOLECULE
*****
 45 48 0 0 0
SMALL
GASTEIGER

@<TRIPOS>ATOM
      1 C          -0.2657    2.7661   22.6407 C.ar    1  UNL1        0.1496
      2 C          -1.4777    3.5608   23.0274 C.ar    1  UNL1        0.0523
      3 C          -1.9907    3.5087   24.4360 C.ar    1  UNL1        0.0564
      4 C          -1.2916    2.6619   25.4579 C.ar    1  UNL1        0.0523
      5 C          -0.0796    1.8673   25.0713 C.ar    1  UNL1        0.1496
      6 C           0.4334    1.9194   23.6626 C.ar    1  UNL1        0.0750
      7 N          -3.2028    4.3033   24.8227 N.am    1  UNL1       -0.2838
      8 C          -4.5596    3.8851   24.3387 C.2     1  UNL1        0.2256
      9 O          -4.7042    2.6722   23.4680 O.2     1  UNL1       -0.2748
     10 H          -3.1078    5.0994   25.3941 H       1  UNL1        0.1549
     11 C          -5.7716    4.6797   24.7253 C.3     1  UNL1        0.0769
     12 C          -5.7427    5.5427   25.9518 C.3     1  UNL1        0.0104
     13 C          -6.9548    6.3373   26.3385 C.3     1  UNL1        0.0160
     14 C          -8.1958    6.2689   25.4986 C.3     1  UNL1        0.0508
     15 N          -9.4078    7.0634   25.8852 N.3     1  UNL1       -0.3222
     16 C          -8.2246    5.4058   24.2721 C.3     1  UNL1        0.0160
     17 C          -7.0125    4.6112   23.8854 C.3     1  UNL1        0.0104
     18 H          -9.2125    7.5883   26.7377 H       1  UNL1        0.1188
     19 H         -10.1915    6.4310   26.0474 H       1  UNL1        0.1188
     20 O           0.2473    2.8182   21.2321 O.3     1  UNL1       -0.4533
     21 C           2.6760   -0.5977   19.5942 C.ar    1  UNL1        0.0815
     22 C           1.2498   -0.8195   20.0025 C.ar    1  UNL1        0.0105
     23 C           0.4403    0.3192   20.5485 C.ar    1  UNL1        0.0377
     24 C           1.0569    1.6796   20.6861 C.ar    1  UNL1        0.1453
     25 C           2.4830    1.9014   20.2778 C.ar    1  UNL1        0.0377
     26 C           3.2926    0.7628   19.7318 C.ar    1  UNL1        0.0105
     27 N           3.7775   -2.9295   19.9089 N.2     1  UNL1       -0.0994
     28 C           3.4856   -1.7363   19.0482 C.2     1  UNL1        0.3093
     29 N           4.0033   -1.6817   17.6414 N.pl3   1  UNL1       -0.2466
     30 H           4.3088   -3.6769   19.5506 H       1  UNL1        0.3633
     31 H           4.5346   -2.4290   17.2831 H       1  UNL1        0.2884
     32 H           3.8117   -0.8986   17.0765 H       1  UNL1        0.2884
     33 O           0.6194    1.0206   26.0932 O.3     1  UNL1       -0.4533
     34 C           0.5997    1.4203   27.5388 C.ar    1  UNL1        0.1453
     35 C           1.4887    2.5273   28.0230 C.ar    1  UNL1        0.0377
     36 C           1.4689    2.9271   29.4686 C.ar    1  UNL1        0.0105
     37 C           0.5603    2.2199   30.4300 C.ar    1  UNL1        0.0815
     38 C          -0.3287    1.1130   29.9458 C.ar    1  UNL1        0.0105
     39 C          -0.3090    0.7132   28.5002 C.ar    1  UNL1        0.0377
     40 C           0.5405    2.6197   31.8756 C.2     1  UNL1        0.3093
     41 N           1.2263    1.7647   32.8996 N.2     1  UNL1       -0.0994
     42 N          -0.1650    3.8745   32.2972 N.pl3   1  UNL1       -0.2466
     43 H           1.6894    0.9411   32.6230 H       1  UNL1        0.3633
     44 H          -0.6151    4.4357   31.6251 H       1  UNL1        0.2884
     45 H          -0.1780    4.1369   33.2460 H       1  UNL1        0.2884
@<TRIPOS>BOND
     1    27    28    2
     2    28    29    1
     3    28    21    1
     4    21    22   ar
     5    22    23   ar
     6    23    24   ar
     7    24    20    1
     8    20     1    1
     9     1     2   ar
    10     2     3   ar
    11     3     7    1
    12     7     8   am
    13     8     9    2
    14    11     8    1
    15    11    12    1
    16    12    13    1
    17    13    14    1
    18    14    15    1
    19    14    16    1
    20    16    17    1
    21     3     4   ar
    22     4     5   ar
    23     5    33    1
    24    33    34    1
    25    34    35   ar
    26    35    36   ar
    27    36    37   ar
    28    37    40    1
    29    40    41    2
    30    40    42    1
    31    37    38   ar
    32    38    39   ar
    33     5     6   ar
    34    24    25   ar
    35    25    26   ar
    36    26    21   ar
    37     6     1   ar
    38    17    11    1
    39    39    34   ar
    40    27    30    1
    41    29    31    1
    42    29    32    1
    43     7    10    1
    44    15    18    1
    45    15    19    1
    46    41    43    1
    47    42    44    1
    48    42    45    1
@<TRIPOS>MOLECULE
*****
 45 48 0 0 0
SMALL
GASTEIGER

@<TRIPOS>ATOM
      1 C          -0.0069    1.8306   25.0382 C.ar    1  UNL1        0.1496
      2 C          -1.1901    2.6555   25.4502 C.ar    1  UNL1        0.0523
      3 C          -1.9257    3.4734   24.4305 C.ar    1  UNL1        0.0564
      4 C          -1.4782    3.4666   22.9989 C.ar    1  UNL1        0.0523
      5 C          -0.2950    2.6418   22.5869 C.ar    1  UNL1        0.1496
      6 C           0.4407    1.8238   23.6066 C.ar    1  UNL1        0.0750
      7 N          -3.1090    4.2983   24.8425 N.am    1  UNL1       -0.2838
      8 C          -4.4921    3.8781   24.4420 C.2     1  UNL1        0.2256
      9 O          -4.6920    2.6330   23.6295 O.2     1  UNL1       -0.2748
     10 H          -2.9778    5.1154   25.3757 H       1  UNL1        0.1549
     11 C          -5.6753    4.7028   24.8539 C.3     1  UNL1        0.0769
     12 C          -5.6395    5.4767   26.1383 C.3     1  UNL1        0.0104
     13 C          -6.8227    6.3015   26.5503 C.3     1  UNL1        0.0160
     14 C          -8.0419    6.3524   25.6777 C.3     1  UNL1        0.0508
     15 N          -9.2251    7.1771   26.0896 N.3     1  UNL1       -0.3222
     16 C          -8.0777    5.5785   24.3933 C.3     1  UNL1        0.0160
     17 C          -6.8944    4.7537   23.9814 C.3     1  UNL1        0.0104
     18 H          -9.0288    7.6317   26.9814 H       1  UNL1        0.1188
     19 H         -10.0420    6.5744   26.1878 H       1  UNL1        0.1188
     20 O           0.7288    1.0127   26.0579 O.3     1  UNL1       -0.4533
     21 C           0.6117    2.1928   30.3988 C.ar    1  UNL1        0.0815
     22 C           1.5117    2.9235   29.4470 C.ar    1  UNL1        0.0105
     23 C           1.5507    2.5301   28.0000 C.ar    1  UNL1        0.0377
     24 C           0.6897    1.4060   27.5049 C.ar    1  UNL1        0.1453
     25 C          -0.2102    0.6754   28.4567 C.ar    1  UNL1        0.0377
     26 C          -0.2492    1.0687   29.9037 C.ar    1  UNL1        0.0105
     27 N           1.2472    1.7281   32.8747 N.2     1  UNL1       -0.0994
     28 C           0.5727    2.5861   31.8458 C.2     1  UNL1        0.3093
     29 N          -0.1407    3.8376   32.2638 N.pl3   1  UNL1       -0.2466
     30 H           1.2216    1.9862   33.8244 H       1  UNL1        0.3633
     31 H          -0.1663    4.0957   33.2135 H       1  UNL1        0.2884
     32 H          -0.5834    4.4008   31.5885 H       1  UNL1        0.2884
     33 O           0.1525    2.6350   21.1552 O.3     1  UNL1       -0.4533
     34 C           1.0900    1.5704   20.6676 C.ar    1  UNL1        0.1453
     35 C           2.5449    1.8822   20.4770 C.ar    1  UNL1        0.0377
     36 C           3.4824    0.8177   19.9893 C.ar    1  UNL1        0.0105
     37 C           2.9651   -0.5586   19.6922 C.ar    1  UNL1        0.0815
     38 C           1.5103   -0.8704   19.8828 C.ar    1  UNL1        0.0105
     39 C           0.5728    0.1942   20.3705 C.ar    1  UNL1        0.0377
     40 C           3.9026   -1.6231   19.2046 C.2     1  UNL1        0.3093
     41 N           3.9629   -1.9577   17.7436 N.2     1  UNL1       -0.0994
     42 N           4.7800   -2.3532   20.1779 N.pl3   1  UNL1       -0.2466
     43 H           3.3871   -1.4785   17.1048 H       1  UNL1        0.3633
     44 H           4.7405   -2.1337   21.1368 H       1  UNL1        0.2884
     45 H           5.3953   -3.0519   19.8579 H       1  UNL1        0.2884
@<TRIPOS>BOND
     1    27    28    2
     2    28    29    1
     3    28    21    1
     4    21    22   ar
     5    22    23   ar
     6    23    24   ar
     7    24    20    1
     8    20     1    1
     9     1     2   ar
    10     2     3   ar
    11     3     7    1
    12     7     8   am
    13     8     9    2
    14    11     8    1
    15    11    12    1
    16    12    13    1
    17    13    14    1
    18    14    15    1
    19    14    16    1
    20    16    17    1
    21     3     4   ar
    22     4     5   ar
    23     5    33    1
    24    33    34    1
    25    34    35   ar
    26    35    36   ar
    27    36    37   ar
    28    37    40    1
    29    40    41    2
    30    40    42    1
    31    37    38   ar
    32    38    39   ar
    33     5     6   ar
    34    24    25   ar
    35    25    26   ar
    36    26    21   ar
    37     6     1   ar
    38    17    11    1
    39    39    34   ar
    40    27    30    1
    41    29    31    1
    42    29    32    1
    43     7    10    1
    44    15    18    1
    45    15    19    1
    46    41    43    1
    47    42    44    1
    48    42    45    1
@<TRIPOS>MOLECULE
*****
 45 48 0 0 0
SMALL
GASTEIGER

@<TRIPOS>ATOM
      1 C           0.4887    0.6918   21.0493 C.ar    1  UNL1        0.1496
      2 C           0.7353    0.6230   22.5273 C.ar    1  UNL1        0.0523
      3 C           0.3971    1.7955   23.3994 C.ar    1  UNL1        0.0564
      4 C          -0.1878    3.0369   22.7936 C.ar    1  UNL1        0.0523
      5 C          -0.4344    3.1057   21.3157 C.ar    1  UNL1        0.1496
      6 C          -0.0961    1.9331   20.4434 C.ar    1  UNL1        0.0750
      7 N           0.6436    1.7268   24.8775 N.am    1  UNL1       -0.2838
      8 C          -0.4448    2.1051   25.8378 C.2     1  UNL1        0.2256
      9 O          -1.7798    2.5522   25.3201 O.2     1  UNL1       -0.2748
     10 H           1.5198    1.4334   25.2173 H       1  UNL1        0.1549
     11 C          -0.1982    2.0364   27.3158 C.3     1  UNL1        0.0769
     12 C           0.4722    3.1796   28.0183 C.3     1  UNL1        0.0104
     13 C           0.7188    3.1108   29.4963 C.3     1  UNL1        0.0160
     14 C           0.2948    1.8988   30.2718 C.3     1  UNL1        0.0508
     15 N           0.5414    1.8301   31.7498 N.3     1  UNL1       -0.3222
     16 C          -0.3756    0.7556   29.5693 C.3     1  UNL1        0.0160
     17 C          -0.6222    0.8244   28.0913 C.3     1  UNL1        0.0104
     18 H           1.0023    2.6863   32.0578 H       1  UNL1        0.1188
     19 H           1.1375    1.0291   31.9582 H       1  UNL1        0.1188
     20 O           0.8269   -0.4808   20.1771 O.3     1  UNL1       -0.4533
     21 C           4.8849   -0.7565   18.2518 C.ar    1  UNL1        0.0815
     22 C           4.4810   -1.7544   19.2963 C.ar    1  UNL1        0.0105
     23 C           3.1283   -1.6625   19.9381 C.ar    1  UNL1        0.0377
     24 C           2.1796   -0.5727   19.5354 C.ar    1  UNL1        0.1453
     25 C           2.5835    0.4252   18.4909 C.ar    1  UNL1        0.0377
     26 C           3.9362    0.3333   17.8491 C.ar    1  UNL1        0.0105
     27 N           6.9335   -2.1737   17.5136 N.2     1  UNL1       -0.0994
     28 C           6.2375   -0.8484   17.6100 C.2     1  UNL1        0.3093
     29 N           6.8943    0.3849   17.0646 N.pl3   1  UNL1       -0.2466
     30 H           7.8213   -2.2340   17.0924 H       1  UNL1        0.3633
     31 H           7.7821    0.3246   16.6434 H       1  UNL1        0.2884
     32 H           6.4375    1.2548   17.1279 H       1  UNL1        0.2884
     33 O          -1.0192    4.3470   20.7098 O.3     1  UNL1       -0.4533
     34 C          -2.4973    4.4411   20.4724 C.ar    1  UNL1        0.1453
     35 C          -3.4550    3.8399   21.4581 C.ar    1  UNL1        0.0377
     36 C          -4.9331    3.9340   21.2207 C.ar    1  UNL1        0.0105
     37 C          -5.4535    4.6291   19.9976 C.ar    1  UNL1        0.0815
     38 C          -4.4959    5.2303   19.0120 C.ar    1  UNL1        0.0105
     39 C          -3.0177    5.1362   19.2494 C.ar    1  UNL1        0.0377
     40 C          -6.9316    4.7232   19.7602 C.2     1  UNL1        0.3093
     41 N          -7.7883    5.5424   20.6794 N.2     1  UNL1       -0.0994
     42 N          -7.5531    3.9979   18.6035 N.pl3   1  UNL1       -0.2466
     43 H          -7.3804    6.0184   21.4386 H       1  UNL1        0.3633
     44 H          -6.9908    3.4602   18.0001 H       1  UNL1        0.2884
     45 H          -8.5232    4.0597   18.4476 H       1  UNL1        0.2884
@<TRIPOS>BOND
     1    27    28    2
     2    28    29    1
     3    28    21    1
     4    21    22   ar
     5    22    23   ar
     6    23    24   ar
     7    24    20    1
     8    20     1    1
     9     1     2   ar
    10     2     3   ar
    11     3     7    1
    12     7     8   am
    13     8     9    2
    14    11     8    1
    15    11    12    1
    16    12    13    1
    17    13    14    1
    18    14    15    1
    19    14    16    1
    20    16    17    1
    21     3     4   ar
    22     4     5   ar
    23     5    33    1
    24    33    34    1
    25    34    35   ar
    26    35    36   ar
    27    36    37   ar
    28    37    40    1
    29    40    41    2
    30    40    42    1
    31    37    38   ar
    32    38    39   ar
    33     5     6   ar
    34    24    25   ar
    35    25    26   ar
    36    26    21   ar
    37     6     1   ar
    38    17    11    1
    39    39    34   ar
    40    27    30    1
    41    29    31    1
    42    29    32    1
    43     7    10    1
    44    15    18    1
    45    15    19    1
    46    41    43    1
    47    42    44    1
    48    42    45    1
