@<TRIPOS>MOLECULE
*****
 31 33 0 0 0
SMALL
GASTEIGER

@<TRIPOS>ATOM
      1 C         -10.7533  -18.0996   19.5144 C.3     1  UNL1        0.1152
      2 N          -9.9297  -18.2348   20.7607 N.am    1  UNL1       -0.2743
      3 C          -8.8166  -19.2387   20.8190 C.2     1  UNL1        0.2264
      4 O          -8.5273  -20.1074   19.6308 O.2     1  UNL1       -0.2748
      5 C          -7.9931  -19.3739   22.0653 C.3     1  UNL1        0.0948
      6 C          -6.6411  -20.0208   22.0043 C.3     1  UNL1        0.0949
      7 C          -5.4814  -19.2798   21.4074 C.2     1  UNL1        0.2266
      8 O          -5.6249  -18.6131   20.0714 O.2     1  UNL1       -0.2748
      9 N          -4.1783  -19.2057   22.1465 N.am    1  UNL1       -0.2839
     10 H          -4.0841  -19.6433   23.0234 H       1  UNL1        0.1549
     11 C          -3.0186  -18.4647   21.5497 C.ar    1  UNL1        0.0503
     12 C          -2.7272  -17.0571   21.9782 C.ar    1  UNL1        0.0147
     13 C          -1.5676  -16.3163   21.3813 C.ar    1  UNL1        0.0013
     14 C          -0.6992  -16.9831   20.3560 C.ar    1  UNL1        0.0001
     15 C          -0.9906  -18.3907   19.9274 C.ar    1  UNL1        0.0013
     16 C          -2.1502  -19.1315   20.5243 C.ar    1  UNL1        0.0147
     17 C         -10.2191  -17.3661   21.9488 C.3     1  UNL1        0.1138
     18 C         -11.2644  -17.7782   22.9424 C.ar    1  UNL1       -0.0029
     19 C         -12.6921  -17.3625   22.7451 C.ar    1  UNL1       -0.0026
     20 C         -13.7375  -17.7747   23.7387 C.ar    1  UNL1       -0.0003
     21 C         -13.3552  -18.6026   24.9297 C.ar    1  UNL1       -0.0000
     22 C         -11.9276  -19.0183   25.1271 C.ar    1  UNL1       -0.0003
     23 C         -10.8822  -18.6061   24.1334 C.ar    1  UNL1       -0.0026
     24 C          -9.4630  -16.0852   22.1433 C.3     1  UNL1        0.0968
     25 N          -8.5677  -15.9163   23.3349 N.3     1  UNL1       -0.2689
     26 C          -7.0846  -16.1397   23.3622 C.3     1  UNL1        0.0748
     27 C          -6.5987  -15.8558   24.7527 C.3     1  UNL1        0.0480
     28 C          -7.7813  -15.4569   25.5847 C.3     1  UNL1        0.1278
     29 O          -7.7521  -15.0859   27.0377 O.3     1  UNL1       -0.3830
     30 C          -8.9982  -15.4943   24.7085 C.3     1  UNL1        0.1017
     31 H          -6.8416  -15.1421   27.3675 H       1  UNL1        0.2104
@<TRIPOS>BOND
     1     1     2    1
     2     2     3   am
     3     3     4    2
     4     3     5    1
     5     5     6    1
     6     6     7    1
     7     7     8    2
     8     7     9   am
     9     9    11    1
    10    11    12   ar
    11    12    13   ar
    12    13    14   ar
    13    14    15   ar
    14    15    16   ar
    15     2    17    1
    16    17    24    1
    17    24    25    1
    18    25    26    1
    19    26    27    1
    20    27    28    1
    21    28    29    1
    22    28    30    1
    23    17    18    1
    24    18    19   ar
    25    19    20   ar
    26    20    21   ar
    27    21    22   ar
    28    22    23   ar
    29    16    11   ar
    30    30    25    1
    31    23    18   ar
    32     9    10    1
    33    29    31    1
@<TRIPOS>MOLECULE
*****
 31 33 0 0 0
SMALL
GASTEIGER

@<TRIPOS>ATOM
      1 C         -11.1254  -15.5579   21.2205 C.3     1  UNL1        0.1152
      2 N         -10.4360  -16.8875   21.1392 N.am    1  UNL1       -0.2743
      3 C         -10.7994  -17.8556   20.0524 C.2     1  UNL1        0.2264
      4 O         -11.8523  -17.4939   19.0471 O.2     1  UNL1       -0.2748
      5 C         -10.1100  -19.1852   19.9711 C.3     1  UNL1        0.0948
      6 C          -8.9562  -19.3755   19.0316 C.3     1  UNL1        0.0949
      7 C          -7.5951  -19.7008   19.5716 C.2     1  UNL1        0.2266
      8 O          -7.1390  -21.1279   19.6457 O.2     1  UNL1       -0.2748
      9 N          -6.6900  -18.5990   20.0373 N.am    1  UNL1       -0.2839
     10 H          -6.9893  -17.6624   19.9887 H       1  UNL1        0.1549
     11 C          -5.3289  -18.9243   20.5773 C.ar    1  UNL1        0.0503
     12 C          -4.1805  -19.1393   19.6366 C.ar    1  UNL1        0.0147
     13 C          -2.8195  -19.4646   20.1765 C.ar    1  UNL1        0.0013
     14 C          -2.6067  -19.5749   21.6573 C.ar    1  UNL1        0.0001
     15 C          -3.7550  -19.3599   22.5980 C.ar    1  UNL1        0.0013
     16 C          -5.1161  -19.0346   22.0580 C.ar    1  UNL1        0.0147
     17 C          -9.3831  -17.2492   22.1445 C.3     1  UNL1        0.1138
     18 C          -9.6063  -18.3965   23.0845 C.ar    1  UNL1       -0.0029
     19 C         -10.7099  -18.3317   24.0983 C.ar    1  UNL1       -0.0026
     20 C         -10.9330  -19.4791   25.0384 C.ar    1  UNL1       -0.0003
     21 C         -10.0526  -20.6913   24.9646 C.ar    1  UNL1       -0.0000
     22 C          -8.9490  -20.7561   23.9507 C.ar    1  UNL1       -0.0003
     23 C          -8.7259  -19.6087   23.0107 C.ar    1  UNL1       -0.0026
     24 C          -8.1070  -16.4634   22.2097 C.3     1  UNL1        0.0968
     25 N          -7.5481  -16.0497   23.5388 N.3     1  UNL1       -0.2689
     26 C          -6.0950  -16.0039   23.9086 C.3     1  UNL1        0.0748
     27 C          -5.9930  -15.5351   25.3298 C.3     1  UNL1        0.0480
     28 C          -7.3829  -15.2912   25.8384 C.3     1  UNL1        0.1278
     29 O          -7.7477  -14.8132   27.2125 O.3     1  UNL1       -0.3830
     30 C          -8.3440  -15.6093   24.7315 C.3     1  UNL1        0.1017
     31 H          -6.9404  -14.6822   27.7342 H       1  UNL1        0.2104
@<TRIPOS>BOND
     1     1     2    1
     2     2     3   am
     3     3     4    2
     4     3     5    1
     5     5     6    1
     6     6     7    1
     7     7     8    2
     8     7     9   am
     9     9    11    1
    10    11    12   ar
    11    12    13   ar
    12    13    14   ar
    13    14    15   ar
    14    15    16   ar
    15     2    17    1
    16    17    24    1
    17    24    25    1
    18    25    26    1
    19    26    27    1
    20    27    28    1
    21    28    29    1
    22    28    30    1
    23    17    18    1
    24    18    19   ar
    25    19    20   ar
    26    20    21   ar
    27    21    22   ar
    28    22    23   ar
    29    16    11   ar
    30    30    25    1
    31    23    18   ar
    32     9    10    1
    33    29    31    1
@<TRIPOS>MOLECULE
*****
 31 33 0 0 0
SMALL
GASTEIGER

@<TRIPOS>ATOM
      1 C          -8.8234  -15.9565   21.8617 C.3     1  UNL1        0.1152
      2 N          -8.4709  -17.2615   22.5118 N.am    1  UNL1       -0.2743
      3 C          -7.7488  -18.3183   21.7295 C.2     1  UNL1        0.2264
      4 O          -7.3794  -18.0700   20.2970 O.2     1  UNL1       -0.2748
      5 C          -7.3963  -19.6233   22.3796 C.3     1  UNL1        0.0948
      6 C          -6.1793  -20.3785   21.9341 C.3     1  UNL1        0.0949
      7 C          -4.8547  -19.6802   21.8437 C.2     1  UNL1        0.2266
      8 O          -3.9078  -19.7147   23.0064 O.2     1  UNL1       -0.2748
      9 N          -4.4772  -18.9475   20.5904 N.am    1  UNL1       -0.2839
     10 H          -5.0988  -18.9249   19.8273 H       1  UNL1        0.1549
     11 C          -3.1527  -18.2493   20.5000 C.ar    1  UNL1        0.0503
     12 C          -2.1427  -18.6861   19.4806 C.ar    1  UNL1        0.0147
     13 C          -0.8182  -17.9879   19.3902 C.ar    1  UNL1        0.0013
     14 C          -0.5037  -16.8529   20.3191 C.ar    1  UNL1        0.0001
     15 C          -1.5137  -16.4161   21.3384 C.ar    1  UNL1        0.0013
     16 C          -2.8382  -17.1143   21.4289 C.ar    1  UNL1        0.0147
     17 C          -8.8403  -17.5098   23.9442 C.3     1  UNL1        0.1138
     18 C          -8.1790  -16.7228   25.0366 C.ar    1  UNL1       -0.0029
     19 C          -8.7902  -16.6800   26.4057 C.ar    1  UNL1       -0.0026
     20 C          -8.1289  -15.8931   27.4981 C.ar    1  UNL1       -0.0003
     21 C          -6.8562  -15.1489   27.2213 C.ar    1  UNL1       -0.0000
     22 C          -6.2449  -15.1917   25.8522 C.ar    1  UNL1       -0.0003
     23 C          -6.9063  -15.9787   24.7598 C.ar    1  UNL1       -0.0026
     24 C          -9.8712  -18.5450   24.2843 C.3     1  UNL1        0.0968
     25 N         -11.3259  -18.2577   24.0576 N.3     1  UNL1       -0.2689
     26 C         -11.8942  -17.3815   22.9807 C.3     1  UNL1        0.0748
     27 C         -13.3872  -17.3784   23.1256 C.3     1  UNL1        0.0480
     28 C         -13.7416  -18.2525   24.2919 C.3     1  UNL1        0.1278
     29 O         -15.1268  -18.5337   24.7940 O.3     1  UNL1       -0.3830
     30 C         -12.4677  -18.7959   24.8679 C.3     1  UNL1        0.1017
     31 H         -15.7718  -18.0602   24.2457 H       1  UNL1        0.2104
@<TRIPOS>BOND
     1     1     2    1
     2     2     3   am
     3     3     4    2
     4     3     5    1
     5     5     6    1
     6     6     7    1
     7     7     8    2
     8     7     9   am
     9     9    11    1
    10    11    12   ar
    11    12    13   ar
    12    13    14   ar
    13    14    15   ar
    14    15    16   ar
    15     2    17    1
    16    17    24    1
    17    24    25    1
    18    25    26    1
    19    26    27    1
    20    27    28    1
    21    28    29    1
    22    28    30    1
    23    17    18    1
    24    18    19   ar
    25    19    20   ar
    26    20    21   ar
    27    21    22   ar
    28    22    23   ar
    29    16    11   ar
    30    30    25    1
    31    23    18   ar
    32     9    10    1
    33    29    31    1
@<TRIPOS>MOLECULE
*****
 31 33 0 0 0
SMALL
GASTEIGER

@<TRIPOS>ATOM
      1 C          -8.0594  -15.2907   21.7368 C.3     1  UNL1        0.1152
      2 N          -8.1480  -16.5935   22.4748 N.am    1  UNL1       -0.2743
      3 C          -7.6470  -17.8540   21.8343 C.2     1  UNL1        0.2264
      4 O          -7.0574  -17.8116   20.4557 O.2     1  UNL1       -0.2748
      5 C          -7.7355  -19.1568   22.5724 C.3     1  UNL1        0.0948
      6 C          -6.8123  -20.2843   22.2170 C.3     1  UNL1        0.0949
      7 C          -5.5681  -20.0134   21.4241 C.2     1  UNL1        0.2266
      8 O          -5.1727  -20.9369   20.3102 O.2     1  UNL1       -0.2748
      9 N          -4.7193  -18.8191   21.7452 N.am    1  UNL1       -0.2839
     10 H          -4.9788  -18.2130   22.4764 H       1  UNL1        0.1549
     11 C          -3.4750  -18.5483   20.9524 C.ar    1  UNL1        0.0503
     12 C          -3.5760  -18.1677   19.5050 C.ar    1  UNL1        0.0147
     13 C          -2.3318  -17.8968   18.7122 C.ar    1  UNL1        0.0013
     14 C          -0.9866  -18.0066   19.3668 C.ar    1  UNL1        0.0001
     15 C          -0.8857  -18.3872   20.8141 C.ar    1  UNL1        0.0013
     16 C          -2.1299  -18.6580   21.6069 C.ar    1  UNL1        0.0147
     17 C          -8.7376  -16.6359   23.8535 C.3     1  UNL1        0.1138
     18 C          -7.9306  -16.1701   25.0289 C.ar    1  UNL1       -0.0029
     19 C          -6.5393  -15.6483   24.8241 C.ar    1  UNL1       -0.0026
     20 C          -5.7323  -15.1825   25.9996 C.ar    1  UNL1       -0.0003
     21 C          -6.3167  -15.2385   27.3800 C.ar    1  UNL1       -0.0000
     22 C          -7.7080  -15.7603   27.5848 C.ar    1  UNL1       -0.0003
     23 C          -8.5150  -16.2261   26.4093 C.ar    1  UNL1       -0.0026
     24 C         -10.1342  -17.1442   24.0566 C.3     1  UNL1        0.0968
     25 N         -11.0778  -17.2293   22.8937 N.3     1  UNL1       -0.2689
     26 C         -11.7976  -18.4613   22.4307 C.3     1  UNL1        0.0748
     27 C         -12.6320  -18.0908   21.2405 C.3     1  UNL1        0.0480
     28 C         -12.4279  -16.6300   20.9679 C.3     1  UNL1        0.1278
     29 O         -13.0714  -15.8403   19.8669 O.3     1  UNL1       -0.3830
     30 C         -11.4674  -16.0976   21.9896 C.3     1  UNL1        0.1017
     31 H         -13.6489  -16.4212   19.3473 H       1  UNL1        0.2104
@<TRIPOS>BOND
     1     1     2    1
     2     2     3   am
     3     3     4    2
     4     3     5    1
     5     5     6    1
     6     6     7    1
     7     7     8    2
     8     7     9   am
     9     9    11    1
    10    11    12   ar
    11    12    13   ar
    12    13    14   ar
    13    14    15   ar
    14    15    16   ar
    15     2    17    1
    16    17    24    1
    17    24    25    1
    18    25    26    1
    19    26    27    1
    20    27    28    1
    21    28    29    1
    22    28    30    1
    23    17    18    1
    24    18    19   ar
    25    19    20   ar
    26    20    21   ar
    27    21    22   ar
    28    22    23   ar
    29    16    11   ar
    30    30    25    1
    31    23    18   ar
    32     9    10    1
    33    29    31    1
@<TRIPOS>MOLECULE
*****
 31 33 0 0 0
SMALL
GASTEIGER

@<TRIPOS>ATOM
      1 C          -3.2507  -18.0658   25.1861 C.3     1  UNL1        0.1152
      2 N          -3.9973  -17.2026   24.2127 N.am    1  UNL1       -0.2743
      3 C          -4.9241  -16.1351   24.7143 C.2     1  UNL1        0.2264
      4 O          -5.1042  -15.9308   26.1894 O.2     1  UNL1       -0.2748
      5 C          -5.6707  -15.2720   23.7409 C.3     1  UNL1        0.0948
      6 C          -7.1155  -14.9482   23.9806 C.3     1  UNL1        0.0949
      7 C          -8.1787  -15.6022   23.1487 C.2     1  UNL1        0.2266
      8 O          -8.0043  -15.7164   21.6632 O.2     1  UNL1       -0.2748
      9 N          -9.4163  -16.1418   23.8022 N.am    1  UNL1       -0.2839
     10 H          -9.5308  -16.0668   24.7772 H       1  UNL1        0.1549
     11 C         -10.4795  -16.7958   22.9703 C.ar    1  UNL1        0.0503
     12 C         -10.4163  -18.2690   22.6953 C.ar    1  UNL1        0.0147
     13 C         -11.4795  -18.9229   21.8634 C.ar    1  UNL1        0.0013
     14 C         -12.6059  -18.1036   21.3066 C.ar    1  UNL1        0.0001
     15 C         -12.6691  -16.6304   21.5817 C.ar    1  UNL1        0.0013
     16 C         -11.6059  -15.9765   22.4136 C.ar    1  UNL1        0.0147
     17 C          -3.8171  -17.4069   22.7376 C.3     1  UNL1        0.1138
     18 C          -4.5553  -18.5091   22.0374 C.ar    1  UNL1       -0.0029
     19 C          -3.8027  -19.5072   21.2083 C.ar    1  UNL1       -0.0026
     20 C          -4.5409  -20.6093   20.5081 C.ar    1  UNL1       -0.0003
     21 C          -6.0317  -20.7134   20.6370 C.ar    1  UNL1       -0.0000
     22 C          -6.7844  -19.7154   21.4661 C.ar    1  UNL1       -0.0003
     23 C          -6.0461  -18.6131   22.1663 C.ar    1  UNL1       -0.0026
     24 C          -2.8987  -16.5090   21.9627 C.3     1  UNL1        0.0968
     25 N          -2.0634  -17.0703   20.8505 N.3     1  UNL1       -0.2689
     26 C          -0.7706  -17.8147   21.0081 C.3     1  UNL1        0.0748
     27 C          -0.2823  -18.1903   19.6403 C.3     1  UNL1        0.0480
     28 C          -1.2733  -17.6781   18.6375 C.3     1  UNL1        0.1278
     29 O          -1.1799  -17.8311   17.1484 O.3     1  UNL1       -0.3830
     30 C          -2.3740  -16.9859   19.3854 C.3     1  UNL1        0.1017
     31 H          -0.3716  -18.3179   16.9234 H       1  UNL1        0.2104
@<TRIPOS>BOND
     1     1     2    1
     2     2     3   am
     3     3     4    2
     4     3     5    1
     5     5     6    1
     6     6     7    1
     7     7     8    2
     8     7     9   am
     9     9    11    1
    10    11    12   ar
    11    12    13   ar
    12    13    14   ar
    13    14    15   ar
    14    15    16   ar
    15     2    17    1
    16    17    24    1
    17    24    25    1
    18    25    26    1
    19    26    27    1
    20    27    28    1
    21    28    29    1
    22    28    30    1
    23    17    18    1
    24    18    19   ar
    25    19    20   ar
    26    20    21   ar
    27    21    22   ar
    28    22    23   ar
    29    16    11   ar
    30    30    25    1
    31    23    18   ar
    32     9    10    1
    33    29    31    1
@<TRIPOS>MOLECULE
*****
 31 33 0 0 0
SMALL
GASTEIGER

@<TRIPOS>ATOM
      1 C          -3.2687  -17.8021   25.5077 C.3     1  UNL1        0.1152
      2 N          -4.0988  -17.4890   24.2982 N.am    1  UNL1       -0.2743
      3 C          -5.1023  -16.3751   24.3451 C.2     1  UNL1        0.2264
      4 O          -5.2757  -15.5742   25.6015 O.2     1  UNL1       -0.2748
      5 C          -5.9324  -16.0620   23.1356 C.3     1  UNL1        0.0948
      6 C          -7.1420  -15.1842   23.2629 C.3     1  UNL1        0.0949
      7 C          -8.4576  -15.7753   23.6751 C.2     1  UNL1        0.2266
      8 O          -8.8436  -15.8089   25.1242 O.2     1  UNL1       -0.2748
      9 N          -9.3872  -16.3327   22.6383 N.am    1  UNL1       -0.2839
     10 H          -9.1339  -16.3106   21.6872 H       1  UNL1        0.1549
     11 C         -10.7028  -16.9238   23.0505 C.ar    1  UNL1        0.0503
     12 C         -11.9811  -16.3696   22.4948 C.ar    1  UNL1        0.0147
     13 C         -13.2966  -16.9606   22.9070 C.ar    1  UNL1        0.0013
     14 C         -13.3339  -18.1059   23.8750 C.ar    1  UNL1        0.0001
     15 C         -12.0556  -18.6601   24.4307 C.ar    1  UNL1        0.0013
     16 C         -10.7401  -18.0691   24.0185 C.ar    1  UNL1        0.0147
     17 C          -3.9254  -18.2899   23.0418 C.3     1  UNL1        0.1138
     18 C          -2.8673  -17.9085   22.0493 C.ar    1  UNL1       -0.0029
     19 C          -2.3531  -18.9250   21.0735 C.ar    1  UNL1       -0.0026
     20 C          -1.2950  -18.5437   20.0810 C.ar    1  UNL1       -0.0003
     21 C          -0.7511  -17.1458   20.0644 C.ar    1  UNL1       -0.0000
     22 C          -1.2653  -16.1293   21.0403 C.ar    1  UNL1       -0.0003
     23 C          -2.3235  -16.5107   22.0328 C.ar    1  UNL1       -0.0026
     24 C          -4.8102  -19.4721   22.7778 C.3     1  UNL1        0.0968
     25 N          -5.9513  -19.3539   21.8114 N.3     1  UNL1       -0.2689
     26 C          -5.8372  -19.2744   20.3178 C.3     1  UNL1        0.0748
     27 C          -7.2223  -19.1659   19.7523 C.3     1  UNL1        0.0480
     28 C          -8.1924  -19.1783   20.8963 C.3     1  UNL1        0.1278
     29 O          -9.6857  -19.0899   20.7869 O.3     1  UNL1       -0.3830
     30 C          -7.4069  -19.2945   22.1689 C.3     1  UNL1        0.1017
     31 H          -9.9380  -19.0224   19.8527 H       1  UNL1        0.2104
@<TRIPOS>BOND
     1     1     2    1
     2     2     3   am
     3     3     4    2
     4     3     5    1
     5     5     6    1
     6     6     7    1
     7     7     8    2
     8     7     9   am
     9     9    11    1
    10    11    12   ar
    11    12    13   ar
    12    13    14   ar
    13    14    15   ar
    14    15    16   ar
    15     2    17    1
    16    17    24    1
    17    24    25    1
    18    25    26    1
    19    26    27    1
    20    27    28    1
    21    28    29    1
    22    28    30    1
    23    17    18    1
    24    18    19   ar
    25    19    20   ar
    26    20    21   ar
    27    21    22   ar
    28    22    23   ar
    29    16    11   ar
    30    30    25    1
    31    23    18   ar
    32     9    10    1
    33    29    31    1
@<TRIPOS>MOLECULE
*****
 31 33 0 0 0
SMALL
GASTEIGER

@<TRIPOS>ATOM
      1 C         -10.1179  -15.2631   21.3008 C.3     1  UNL1        0.1152
      2 N         -10.3758  -16.7362   21.4166 N.am    1  UNL1       -0.2743
      3 C         -10.7411  -17.5318   20.1984 C.2     1  UNL1        0.2264
      4 O         -10.8485  -16.8541   18.8646 O.2     1  UNL1       -0.2748
      5 C         -10.9989  -19.0048   20.3142 C.3     1  UNL1        0.0948
      6 C         -10.0724  -19.9825   19.6542 C.3     1  UNL1        0.0949
      7 C          -8.5886  -19.7724   19.7213 C.2     1  UNL1        0.2266
      8 O          -7.8690  -19.1330   18.5709 O.2     1  UNL1       -0.2748
      9 N          -7.8246  -20.2016   20.9386 N.am    1  UNL1       -0.2839
     10 H          -8.2970  -20.6212   21.6937 H       1  UNL1        0.1549
     11 C          -6.3409  -19.9915   21.0057 C.ar    1  UNL1        0.0503
     12 C          -5.4299  -20.7872   20.1188 C.ar    1  UNL1        0.0147
     13 C          -3.9462  -20.5771   20.1859 C.ar    1  UNL1        0.0013
     14 C          -3.3736  -19.5711   21.1399 C.ar    1  UNL1        0.0001
     15 C          -4.2846  -18.7754   22.0269 C.ar    1  UNL1        0.0013
     16 C          -5.7683  -18.9855   21.9598 C.ar    1  UNL1        0.0147
     17 C         -10.2684  -17.4139   22.7505 C.3     1  UNL1        0.1138
     18 C         -11.5102  -17.7818   23.5070 C.ar    1  UNL1       -0.0029
     19 C         -11.4223  -18.6931   24.6952 C.ar    1  UNL1       -0.0026
     20 C         -12.6642  -19.0610   25.4517 C.ar    1  UNL1       -0.0003
     21 C         -13.9941  -18.5176   25.0200 C.ar    1  UNL1       -0.0000
     22 C         -14.0820  -17.6064   23.8317 C.ar    1  UNL1       -0.0003
     23 C         -12.8400  -17.2385   23.0752 C.ar    1  UNL1       -0.0026
     24 C          -8.9190  -17.7237   23.3278 C.3     1  UNL1        0.0968
     25 N          -8.2984  -16.7917   24.3259 N.3     1  UNL1       -0.2689
     26 C          -8.8779  -16.4113   25.6562 C.3     1  UNL1        0.0748
     27 C          -7.9269  -15.4609   26.3214 C.3     1  UNL1        0.0480
     28 C          -6.7597  -15.2539   25.4023 C.3     1  UNL1        0.1278
     29 O          -5.5716  -14.3783   25.6696 O.3     1  UNL1       -0.3830
     30 C          -6.9893  -16.0764   24.1691 C.3     1  UNL1        0.1017
     31 H          -5.6688  -13.9576   26.5382 H       1  UNL1        0.2104
@<TRIPOS>BOND
     1     1     2    1
     2     2     3   am
     3     3     4    2
     4     3     5    1
     5     5     6    1
     6     6     7    1
     7     7     8    2
     8     7     9   am
     9     9    11    1
    10    11    12   ar
    11    12    13   ar
    12    13    14   ar
    13    14    15   ar
    14    15    16   ar
    15     2    17    1
    16    17    24    1
    17    24    25    1
    18    25    26    1
    19    26    27    1
    20    27    28    1
    21    28    29    1
    22    28    30    1
    23    17    18    1
    24    18    19   ar
    25    19    20   ar
    26    20    21   ar
    27    21    22   ar
    28    22    23   ar
    29    16    11   ar
    30    30    25    1
    31    23    18   ar
    32     9    10    1
    33    29    31    1
@<TRIPOS>MOLECULE
*****
 31 33 0 0 0
SMALL
GASTEIGER

@<TRIPOS>ATOM
      1 C          -6.0326  -21.4875   22.6506 C.3     1  UNL1        0.1152
      2 N          -6.5523  -20.3926   21.7669 N.am    1  UNL1       -0.2743
      3 C          -6.6351  -20.6016   20.2837 C.2     1  UNL1        0.2264
      4 O          -6.1982  -21.9054   19.6845 O.2     1  UNL1       -0.2748
      5 C          -7.1548  -19.5067   19.4000 C.3     1  UNL1        0.0948
      6 C          -8.5626  -19.5629   18.8854 C.3     1  UNL1        0.0949
      7 C          -9.7042  -19.1817   19.7807 C.2     1  UNL1        0.2266
      8 O         -10.6638  -20.2303   20.2602 O.2     1  UNL1       -0.2748
      9 N          -9.8863  -17.7521   20.1966 N.am    1  UNL1       -0.2839
     10 H          -9.2565  -17.0639   19.8819 H       1  UNL1        0.1549
     11 C         -11.0279  -17.3710   21.0920 C.ar    1  UNL1        0.0503
     12 C         -12.1349  -18.3488   21.3532 C.ar    1  UNL1        0.0147
     13 C         -13.2764  -17.9677   22.2485 C.ar    1  UNL1        0.0013
     14 C         -13.3109  -16.6087   22.8825 C.ar    1  UNL1        0.0001
     15 C         -12.2039  -15.6308   22.6213 C.ar    1  UNL1        0.0013
     16 C         -11.0624  -16.0120   21.7260 C.ar    1  UNL1        0.0147
     17 C          -6.9892  -19.0888   22.3661 C.3     1  UNL1        0.1138
     18 C          -8.2614  -19.0160   23.1575 C.ar    1  UNL1       -0.0029
     19 C          -8.6357  -17.7448   23.8603 C.ar    1  UNL1       -0.0026
     20 C          -9.9079  -17.6720   24.6517 C.ar    1  UNL1       -0.0003
     21 C         -10.8057  -18.8704   24.7403 C.ar    1  UNL1       -0.0000
     22 C         -10.4314  -20.1416   24.0374 C.ar    1  UNL1       -0.0003
     23 C          -9.1592  -20.2144   23.2460 C.ar    1  UNL1       -0.0026
     24 C          -6.1540  -17.8577   22.1740 C.3     1  UNL1        0.0968
     25 N          -4.6575  -17.9533   22.2121 N.3     1  UNL1       -0.2689
     26 C          -3.7723  -17.4863   23.3295 C.3     1  UNL1        0.0748
     27 C          -2.3512  -17.7770   22.9474 C.3     1  UNL1        0.0480
     28 C          -2.3581  -18.4237   21.5940 C.3     1  UNL1        0.1278
     29 O          -1.1514  -18.8810   20.8293 O.3     1  UNL1       -0.3830
     30 C          -3.7834  -18.5326   21.1395 C.3     1  UNL1        0.1017
     31 H          -0.3517  -18.6949   21.3457 H       1  UNL1        0.2104
@<TRIPOS>BOND
     1     1     2    1
     2     2     3   am
     3     3     4    2
     4     3     5    1
     5     5     6    1
     6     6     7    1
     7     7     8    2
     8     7     9   am
     9     9    11    1
    10    11    12   ar
    11    12    13   ar
    12    13    14   ar
    13    14    15   ar
    14    15    16   ar
    15     2    17    1
    16    17    24    1
    17    24    25    1
    18    25    26    1
    19    26    27    1
    20    27    28    1
    21    28    29    1
    22    28    30    1
    23    17    18    1
    24    18    19   ar
    25    19    20   ar
    26    20    21   ar
    27    21    22   ar
    28    22    23   ar
    29    16    11   ar
    30    30    25    1
    31    23    18   ar
    32     9    10    1
    33    29    31    1
@<TRIPOS>MOLECULE
*****
 31 33 0 0 0
SMALL
GASTEIGER

@<TRIPOS>ATOM
      1 C         -13.8088   -3.6733   20.6424 C.3     1  UNL1        0.1152
      2 N         -14.2312   -3.3845   19.2324 N.am    1  UNL1       -0.2743
      3 C         -15.6864   -3.3937   18.8685 C.2     1  UNL1        0.2264
      4 O         -16.7192   -3.6917   19.9147 O.2     1  UNL1       -0.2748
      5 C         -16.1088   -3.1049   17.4585 C.3     1  UNL1        0.0948
      6 C         -16.3960   -4.2352   16.5153 C.3     1  UNL1        0.0949
      7 C         -16.3275   -5.6529   17.0005 C.2     1  UNL1        0.2266
      8 O         -15.1307   -6.4983   16.6797 O.2     1  UNL1       -0.2748
      9 N         -17.4557   -6.2251   17.8065 N.am    1  UNL1       -0.2839
     10 H         -18.2411   -5.6702   18.0171 H       1  UNL1        0.1549
     11 C         -17.3871   -7.6429   18.2918 C.ar    1  UNL1        0.0503
     12 C         -16.6329   -7.9705   19.5463 C.ar    1  UNL1        0.0147
     13 C         -16.5643   -9.3882   20.0315 C.ar    1  UNL1        0.0013
     14 C         -17.2500  -10.4782   19.2622 C.ar    1  UNL1        0.0001
     15 C         -18.0042  -10.1505   18.0077 C.ar    1  UNL1        0.0013
     16 C         -18.0727   -8.7329   17.5225 C.ar    1  UNL1        0.0147
     17 C         -13.1984   -3.0864   18.1862 C.3     1  UNL1        0.1138
     18 C         -12.8164   -1.6659   17.8927 C.ar    1  UNL1       -0.0029
     19 C         -11.5899   -1.3715   17.0809 C.ar    1  UNL1       -0.0026
     20 C         -11.2079    0.0490   16.7874 C.ar    1  UNL1       -0.0003
     21 C         -12.0524    1.1752   17.3057 C.ar    1  UNL1       -0.0000
     22 C         -13.2789    0.8808   18.1175 C.ar    1  UNL1       -0.0003
     23 C         -13.6609   -0.5398   18.4110 C.ar    1  UNL1       -0.0026
     24 C         -12.5476   -4.2089   17.4336 C.3     1  UNL1        0.0968
     25 N         -11.4686   -5.0223   18.0849 N.3     1  UNL1       -0.2689
     26 C         -10.2737   -4.4806   18.8123 C.3     1  UNL1        0.0748
     27 C          -9.4616   -5.6437   19.3001 C.3     1  UNL1        0.0480
     28 C         -10.1546   -6.9041   18.8742 C.3     1  UNL1        0.1278
     29 O          -9.6889   -8.3028   19.1508 O.3     1  UNL1       -0.3830
     30 C         -11.3949   -6.5200   18.1232 C.3     1  UNL1        0.1017
     31 H          -8.8601   -8.2741   19.6539 H       1  UNL1        0.2104
@<TRIPOS>BOND
     1     1     2    1
     2     2     3   am
     3     3     4    2
     4     3     5    1
     5     5     6    1
     6     6     7    1
     7     7     8    2
     8     7     9   am
     9     9    11    1
    10    11    12   ar
    11    12    13   ar
    12    13    14   ar
    13    14    15   ar
    14    15    16   ar
    15     2    17    1
    16    17    24    1
    17    24    25    1
    18    25    26    1
    19    26    27    1
    20    27    28    1
    21    28    29    1
    22    28    30    1
    23    17    18    1
    24    18    19   ar
    25    19    20   ar
    26    20    21   ar
    27    21    22   ar
    28    22    23   ar
    29    16    11   ar
    30    30    25    1
    31    23    18   ar
    32     9    10    1
    33    29    31    1
