@<TRIPOS>MOLECULE
*****
 23 25 0 0 0
SMALL
GASTEIGER

@<TRIPOS>ATOM
      1 N          -8.6128  -18.4823   20.7075 N.pl3   1  UNL1       -0.3267
      2 H          -8.8004  -17.5922   20.3309 H       1  UNL1        0.1472
      3 C          -7.1947  -18.9248   20.9156 C.ar    1  UNL1        0.0798
      4 C          -6.6501  -20.0870   20.1393 C.ar    1  UNL1        0.0189
      5 C          -5.2321  -20.5295   20.3474 C.ar    1  UNL1        0.0204
      6 C          -4.3586  -19.8098   21.3319 C.ar    1  UNL1        0.0812
      7 N          -4.9032  -18.6477   22.1083 N.ar    1  UNL1       -0.2919
      8 C          -4.2846  -17.7511   23.1395 C.ar    1  UNL1        0.0567
      9 C          -2.8773  -17.8362   23.6516 C.3     1  UNL1        0.0517
     10 C          -5.3202  -16.7545   23.5687 C.ar    1  UNL1        0.0730
     11 C          -5.1304  -15.6680   24.5853 C.3     1  UNL1        0.0534
     12 N          -6.5790  -17.0351   22.8027 N.ar    1  UNL1       -0.2299
     13 C          -6.3213  -18.2052   21.9001 C.ar    1  UNL1        0.1603
     14 C          -9.7449  -19.3958   21.0732 C.3     1  UNL1        0.1137
     15 C         -11.8671  -17.9931   21.6011 C.ar    1  UNL1       -0.0248
     16 C         -12.9144  -17.5375   22.5735 C.ar    1  UNL1       -0.0045
     17 C         -12.8868  -18.0290   23.9904 C.ar    1  UNL1       -0.0007
     18 C         -11.8118  -18.9761   24.4350 C.ar    1  UNL1       -0.0045
     19 C         -10.7646  -19.4317   23.4626 C.ar    1  UNL1       -0.0245
     20 C          -9.6897  -20.3788   23.9071 C.3     1  UNL1        0.0307
     21 C         -10.7922  -18.9402   22.0456 C.ar    1  UNL1       -0.0105
     22 C         -11.5646  -16.0704   19.8802 C.3     1  UNL1        0.0050
     23 C         -11.8947  -17.5017   20.1842 C.3     1  UNL1        0.0261
@<TRIPOS>BOND
     1    22    23    1
     2    23    15    1
     3    15    16   ar
     4    16    17   ar
     5    17    18   ar
     6    18    19   ar
     7    19    20    1
     8    19    21   ar
     9    21    14    1
    10    14     1    1
    11     1     3    1
    12     3     4   ar
    13     4     5   ar
    14     5     6   ar
    15     6     7   ar
    16     7     8   ar
    17     8     9    1
    18     8    10   ar
    19    10    11    1
    20    10    12   ar
    21    12    13   ar
    22    21    15   ar
    23    13     3   ar
    24    13     7   ar
    25     1     2    1
@<TRIPOS>MOLECULE
*****
 23 25 0 0 0
SMALL
GASTEIGER

@<TRIPOS>ATOM
      1 N          -6.8995  -18.8664   21.6105 N.pl3   1  UNL1       -0.3267
      2 H          -6.8309  -18.2784   20.8238 H       1  UNL1        0.1472
      3 C          -8.2407  -19.1528   22.2181 C.ar    1  UNL1        0.0798
      4 C          -8.3681  -20.1789   23.3048 C.ar    1  UNL1        0.0189
      5 C          -9.7093  -20.4653   23.9124 C.ar    1  UNL1        0.0204
      6 C         -10.9231  -19.7256   23.4333 C.ar    1  UNL1        0.0812
      7 N         -10.7957  -18.6996   22.3466 N.ar    1  UNL1       -0.2919
      8 C         -11.8067  -17.8185   21.6745 C.ar    1  UNL1        0.0567
      9 C         -13.2761  -17.7759   21.9730 C.3     1  UNL1        0.0517
     10 C         -11.0903  -16.9875   20.6516 C.ar    1  UNL1        0.0730
     11 C         -11.7176  -15.9681   19.7476 C.3     1  UNL1        0.0534
     12 N          -9.6366  -17.3550   20.6914 N.ar    1  UNL1       -0.2299
     13 C          -9.4545  -18.4131   21.7390 C.ar    1  UNL1        0.1603
     14 C          -5.6628  -19.4757   22.2016 C.3     1  UNL1        0.1137
     15 C          -3.7394  -17.7901   22.6590 C.ar    1  UNL1       -0.0248
     16 C          -2.3901  -17.2336   22.3129 C.ar    1  UNL1       -0.0045
     17 C          -1.6150  -17.8062   21.1635 C.ar    1  UNL1       -0.0007
     18 C          -2.1891  -18.9352   20.3600 C.ar    1  UNL1       -0.0045
     19 C          -3.5384  -19.4917   20.7060 C.ar    1  UNL1       -0.0245
     20 C          -4.1125  -20.6208   19.9026 C.3     1  UNL1        0.0307
     21 C          -4.3136  -18.9192   21.8555 C.ar    1  UNL1       -0.0105
     22 C          -4.9251  -15.7749   23.7917 C.3     1  UNL1        0.0050
     23 C          -4.5145  -17.2175   23.8085 C.3     1  UNL1        0.0261
@<TRIPOS>BOND
     1    22    23    1
     2    23    15    1
     3    15    16   ar
     4    16    17   ar
     5    17    18   ar
     6    18    19   ar
     7    19    20    1
     8    19    21   ar
     9    21    14    1
    10    14     1    1
    11     1     3    1
    12     3     4   ar
    13     4     5   ar
    14     5     6   ar
    15     6     7   ar
    16     7     8   ar
    17     8     9    1
    18     8    10   ar
    19    10    11    1
    20    10    12   ar
    21    12    13   ar
    22    21    15   ar
    23    13     3   ar
    24    13     7   ar
    25     1     2    1
@<TRIPOS>MOLECULE
*****
 23 25 0 0 0
SMALL
GASTEIGER

@<TRIPOS>ATOM
      1 N          -4.7529  -16.0707   23.2145 N.pl3   1  UNL1       -0.3267
      2 H          -4.4504  -15.2647   22.7369 H       1  UNL1        0.1472
      3 C          -6.0568  -16.0580   23.9561 C.ar    1  UNL1        0.0798
      4 C          -6.1226  -15.5031   25.3481 C.ar    1  UNL1        0.0189
      5 C          -7.4264  -15.4904   26.0896 C.ar    1  UNL1        0.0204
      6 C          -8.6645  -16.0327   25.4390 C.ar    1  UNL1        0.0812
      7 N          -8.5987  -16.5875   24.0470 N.ar    1  UNL1       -0.2919
      8 C          -9.6453  -17.1860   23.1546 C.ar    1  UNL1        0.0567
      9 C         -11.0945  -17.3697   23.4954 C.3     1  UNL1        0.0517
     10 C          -8.9883  -17.5686   21.8615 C.ar    1  UNL1        0.0730
     11 C          -9.6652  -18.2020   20.6822 C.3     1  UNL1        0.0534
     12 N          -7.5356  -17.2066   21.9548 N.ar    1  UNL1       -0.2299
     13 C          -7.2949  -16.6002   23.3055 C.ar    1  UNL1        0.1603
     14 C          -3.9101  -17.3114   23.2006 C.3     1  UNL1        0.1137
     15 C          -4.2092  -19.1519   21.3914 C.ar    1  UNL1       -0.0248
     16 C          -3.8028  -19.7679   20.0854 C.ar    1  UNL1       -0.0045
     17 C          -2.6911  -19.1596   19.2829 C.ar    1  UNL1       -0.0007
     18 C          -1.9857  -17.9353   19.7863 C.ar    1  UNL1       -0.0045
     19 C          -2.3920  -17.3192   21.0922 C.ar    1  UNL1       -0.0245
     20 C          -1.6867  -16.0948   21.5955 C.3     1  UNL1        0.0307
     21 C          -3.5038  -17.9275   21.8947 C.ar    1  UNL1       -0.0105
     22 C          -6.4056  -20.5349   21.5059 C.3     1  UNL1        0.0050
     23 C          -5.3209  -19.7602   22.1939 C.3     1  UNL1        0.0261
@<TRIPOS>BOND
     1    22    23    1
     2    23    15    1
     3    15    16   ar
     4    16    17   ar
     5    17    18   ar
     6    18    19   ar
     7    19    20    1
     8    19    21   ar
     9    21    14    1
    10    14     1    1
    11     1     3    1
    12     3     4   ar
    13     4     5   ar
    14     5     6   ar
    15     6     7   ar
    16     7     8   ar
    17     8     9    1
    18     8    10   ar
    19    10    11    1
    20    10    12   ar
    21    12    13   ar
    22    21    15   ar
    23    13     3   ar
    24    13     7   ar
    25     1     2    1
@<TRIPOS>MOLECULE
*****
 23 25 0 0 0
SMALL
GASTEIGER

@<TRIPOS>ATOM
      1 N          -7.2857  -19.0306   22.5004 N.pl3   1  UNL1       -0.3267
      2 H          -7.1777  -18.1534   22.9340 H       1  UNL1        0.1472
      3 C          -6.1934  -19.5760   21.6288 C.ar    1  UNL1        0.0798
      4 C          -6.4189  -20.8329   20.8419 C.ar    1  UNL1        0.0189
      5 C          -5.3267  -21.3782   19.9704 C.ar    1  UNL1        0.0204
      6 C          -4.0089  -20.6666   19.8858 C.ar    1  UNL1        0.0812
      7 N          -3.7834  -19.4097   20.6728 N.ar    1  UNL1       -0.2919
      8 C          -2.5985  -18.4974   20.7891 C.ar    1  UNL1        0.0567
      9 C          -1.2844  -18.6648   20.0856 C.3     1  UNL1        0.0517
     10 C          -2.9584  -17.3882   21.7326 C.ar    1  UNL1        0.0730
     11 C          -2.0673  -16.2516   22.1382 C.3     1  UNL1        0.0534
     12 N          -4.3658  -17.6150   22.1993 N.ar    1  UNL1       -0.2299
     13 C          -4.8756  -18.8644   21.5443 C.ar    1  UNL1        0.1603
     14 C          -8.5425  -19.8218   22.7113 C.3     1  UNL1        0.1137
     15 C         -10.3563  -18.6914   21.2341 C.ar    1  UNL1       -0.0248
     16 C         -11.6935  -18.0247   21.1015 C.ar    1  UNL1       -0.0045
     17 C         -12.5539  -17.8218   22.3134 C.ar    1  UNL1       -0.0007
     18 C         -12.0771  -18.2856   23.6578 C.ar    1  UNL1       -0.0045
     19 C         -10.7400  -18.9522   23.7905 C.ar    1  UNL1       -0.0245
     20 C         -10.2632  -19.4160   25.1350 C.3     1  UNL1        0.0307
     21 C          -9.8796  -19.1552   22.5786 C.ar    1  UNL1       -0.0105
     22 C          -9.7434  -20.0621   19.1139 C.3     1  UNL1        0.0050
     23 C          -9.4960  -18.8944   20.0223 C.3     1  UNL1        0.0261
@<TRIPOS>BOND
     1    22    23    1
     2    23    15    1
     3    15    16   ar
     4    16    17   ar
     5    17    18   ar
     6    18    19   ar
     7    19    20    1
     8    19    21   ar
     9    21    14    1
    10    14     1    1
    11     1     3    1
    12     3     4   ar
    13     4     5   ar
    14     5     6   ar
    15     6     7   ar
    16     7     8   ar
    17     8     9    1
    18     8    10   ar
    19    10    11    1
    20    10    12   ar
    21    12    13   ar
    22    21    15   ar
    23    13     3   ar
    24    13     7   ar
    25     1     2    1
@<TRIPOS>MOLECULE
*****
 23 25 0 0 0
SMALL
GASTEIGER

@<TRIPOS>ATOM
      1 N          -7.3005  -18.8043   22.5620 N.pl3   1  UNL1       -0.3267
      2 H          -7.0628  -18.0817   23.1870 H       1  UNL1        0.1472
      3 C          -6.2456  -19.4202   21.6913 C.ar    1  UNL1        0.0798
      4 C          -6.5379  -20.6848   20.9396 C.ar    1  UNL1        0.0189
      5 C          -5.4830  -21.3006   20.0691 C.ar    1  UNL1        0.0204
      6 C          -4.1358  -20.6518   19.9502 C.ar    1  UNL1        0.0812
      7 N          -3.8436  -19.3871   20.7019 N.ar    1  UNL1       -0.2919
      8 C          -2.6174  -18.5267   20.7805 C.ar    1  UNL1        0.0567
      9 C          -1.3216  -18.7710   20.0654 C.3     1  UNL1        0.0517
     10 C          -2.9145  -17.3791   21.6996 C.ar    1  UNL1        0.0730
     11 C          -1.9679  -16.2743   22.0650 C.3     1  UNL1        0.0534
     12 N          -4.3242  -17.5302   22.1891 N.ar    1  UNL1       -0.2299
     13 C          -4.8984  -18.7713   21.5725 C.ar    1  UNL1        0.1603
     14 C          -8.7176  -19.2893   22.4803 C.3     1  UNL1        0.1137
     15 C         -10.3429  -17.3119   22.9251 C.ar    1  UNL1       -0.0248
     16 C         -11.4257  -16.3884   22.4509 C.ar    1  UNL1       -0.0045
     17 C         -11.9657  -16.5188   21.0576 C.ar    1  UNL1       -0.0007
     18 C         -11.4230  -17.5727   20.1385 C.ar    1  UNL1       -0.0045
     19 C         -10.3403  -18.4962   20.6127 C.ar    1  UNL1       -0.0245
     20 C          -9.7976  -19.5501   19.6936 C.3     1  UNL1        0.0307
     21 C          -9.8003  -18.3658   22.0061 C.ar    1  UNL1       -0.0105
     22 C          -8.9614  -15.9963   24.6888 C.3     1  UNL1        0.0050
     23 C          -9.8030  -17.1815   24.3185 C.3     1  UNL1        0.0261
@<TRIPOS>BOND
     1    22    23    1
     2    23    15    1
     3    15    16   ar
     4    16    17   ar
     5    17    18   ar
     6    18    19   ar
     7    19    20    1
     8    19    21   ar
     9    21    14    1
    10    14     1    1
    11     1     3    1
    12     3     4   ar
    13     4     5   ar
    14     5     6   ar
    15     6     7   ar
    16     7     8   ar
    17     8     9    1
    18     8    10   ar
    19    10    11    1
    20    10    12   ar
    21    12    13   ar
    22    21    15   ar
    23    13     3   ar
    24    13     7   ar
    25     1     2    1
@<TRIPOS>MOLECULE
*****
 23 25 0 0 0
SMALL
GASTEIGER

@<TRIPOS>ATOM
      1 N          -6.8465  -18.6656   20.6818 N.pl3   1  UNL1       -0.3267
      2 H          -6.4621  -18.1227   19.9561 H       1  UNL1        0.1472
      3 C          -8.3336  -18.8323   20.7868 C.ar    1  UNL1        0.0798
      4 C          -9.1285  -19.2472   19.5843 C.ar    1  UNL1        0.0189
      5 C         -10.6155  -19.4138   19.6894 C.ar    1  UNL1        0.0204
      6 C         -11.3075  -19.1656   20.9969 C.ar    1  UNL1        0.0812
      7 N         -10.5126  -18.7507   22.1993 N.ar    1  UNL1       -0.2919
      8 C         -10.9155  -18.4381   23.6099 C.ar    1  UNL1        0.0567
      9 C         -12.3114  -18.4783   24.1576 C.3     1  UNL1        0.0517
     10 C          -9.6776  -18.0782   24.3767 C.ar    1  UNL1        0.0730
     11 C          -9.6182  -17.6953   25.8259 C.3     1  UNL1        0.0534
     12 N          -8.5095  -18.1684   23.4400 N.ar    1  UNL1       -0.2299
     13 C          -9.0256  -18.5840   22.0942 C.ar    1  UNL1        0.1603
     14 C          -5.9453  -19.3262   21.6825 C.3     1  UNL1        0.1137
     15 C          -3.9911  -17.9350   22.6803 C.ar    1  UNL1       -0.0248
     16 C          -2.5326  -17.5869   22.7208 C.ar    1  UNL1       -0.0045
     17 C          -1.5699  -18.2818   21.8042 C.ar    1  UNL1       -0.0007
     18 C          -2.0656  -19.3248   20.8470 C.ar    1  UNL1       -0.0045
     19 C          -3.5241  -19.6730   20.8064 C.ar    1  UNL1       -0.0245
     20 C          -4.0198  -20.7160   19.8492 C.3     1  UNL1        0.0307
     21 C          -4.4869  -18.9781   21.7231 C.ar    1  UNL1       -0.0105
     22 C          -4.8923  -15.7502   23.7593 C.3     1  UNL1        0.0050
     23 C          -4.9538  -17.2401   23.5969 C.3     1  UNL1        0.0261
@<TRIPOS>BOND
     1    22    23    1
     2    23    15    1
     3    15    16   ar
     4    16    17   ar
     5    17    18   ar
     6    18    19   ar
     7    19    20    1
     8    19    21   ar
     9    21    14    1
    10    14     1    1
    11     1     3    1
    12     3     4   ar
    13     4     5   ar
    14     5     6   ar
    15     6     7   ar
    16     7     8   ar
    17     8     9    1
    18     8    10   ar
    19    10    11    1
    20    10    12   ar
    21    12    13   ar
    22    21    15   ar
    23    13     3   ar
    24    13     7   ar
    25     1     2    1
@<TRIPOS>MOLECULE
*****
 23 25 0 0 0
SMALL
GASTEIGER

@<TRIPOS>ATOM
      1 N         -10.0022  -17.1078   24.4154 N.pl3   1  UNL1       -0.3267
      2 H         -10.0860  -17.7275   25.1758 H       1  UNL1        0.1472
      3 C         -10.4688  -17.5256   23.0524 C.ar    1  UNL1        0.0798
      4 C         -11.8534  -17.1758   22.5937 C.ar    1  UNL1        0.0189
      5 C         -12.3199  -17.5937   21.2307 C.ar    1  UNL1        0.0204
      6 C         -11.4017  -18.3613   20.3264 C.ar    1  UNL1        0.0812
      7 N         -10.0171  -18.7111   20.7851 N.ar    1  UNL1       -0.2919
      8 C          -8.8968  -19.4538   20.1193 C.ar    1  UNL1        0.0567
      9 C          -8.9297  -20.0505   18.7435 C.3     1  UNL1        0.0517
     10 C          -7.7379  -19.4950   21.0707 C.ar    1  UNL1        0.0730
     11 C          -6.4084  -20.1401   20.8134 C.3     1  UNL1        0.0534
     12 N          -8.1420  -18.7777   22.3246 N.ar    1  UNL1       -0.2299
     13 C          -9.5506  -18.2933   22.1481 C.ar    1  UNL1        0.1603
     14 C          -9.4080  -15.7458   24.6199 C.3     1  UNL1        0.1137
     15 C          -7.3320  -15.6485   26.1789 C.ar    1  UNL1       -0.0248
     16 C          -5.8509  -15.4961   26.3620 C.ar    1  UNL1       -0.0045
     17 C          -4.9652  -15.2886   25.1695 C.ar    1  UNL1       -0.0007
     18 C          -5.5603  -15.2336   23.7937 C.ar    1  UNL1       -0.0045
     19 C          -7.0412  -15.3860   23.6105 C.ar    1  UNL1       -0.0245
     20 C          -7.6363  -15.3309   22.2347 C.3     1  UNL1        0.0307
     21 C          -7.9271  -15.5934   24.8031 C.ar    1  UNL1       -0.0105
     22 C          -8.7848  -14.6732   28.0993 C.3     1  UNL1        0.0050
     23 C          -8.2177  -15.8559   27.3715 C.3     1  UNL1        0.0261
@<TRIPOS>BOND
     1    22    23    1
     2    23    15    1
     3    15    16   ar
     4    16    17   ar
     5    17    18   ar
     6    18    19   ar
     7    19    20    1
     8    19    21   ar
     9    21    14    1
    10    14     1    1
    11     1     3    1
    12     3     4   ar
    13     4     5   ar
    14     5     6   ar
    15     6     7   ar
    16     7     8   ar
    17     8     9    1
    18     8    10   ar
    19    10    11    1
    20    10    12   ar
    21    12    13   ar
    22    21    15   ar
    23    13     3   ar
    24    13     7   ar
    25     1     2    1
@<TRIPOS>MOLECULE
*****
 23 25 0 0 0
SMALL
GASTEIGER

@<TRIPOS>ATOM
      1 N          -9.7599  -17.6707   24.4604 N.pl3   1  UNL1       -0.3267
      2 H          -9.6564  -18.3724   25.1432 H       1  UNL1        0.1472
      3 C         -10.2942  -18.0186   23.1026 C.ar    1  UNL1        0.0798
      4 C         -11.7159  -17.6948   22.7505 C.ar    1  UNL1        0.0189
      5 C         -12.2501  -18.0427   21.3928 C.ar    1  UNL1        0.0204
      6 C         -11.3627  -18.7143   20.3871 C.ar    1  UNL1        0.0812
      7 N          -9.9410  -19.0381   20.7391 N.ar    1  UNL1       -0.2919
      8 C          -8.8382  -19.6921   19.9607 C.ar    1  UNL1        0.0567
      9 C          -8.9344  -20.2005   18.5528 C.3     1  UNL1        0.0517
     10 C          -7.6223  -19.7485   20.8374 C.ar    1  UNL1        0.0730
     11 C          -6.2891  -20.3232   20.4600 C.3     1  UNL1        0.0534
     12 N          -7.9737  -19.1293   22.1576 N.ar    1  UNL1       -0.2299
     13 C          -9.4068  -18.6902   22.0969 C.ar    1  UNL1        0.1603
     14 C          -9.3834  -16.2539   24.7777 C.3     1  UNL1        0.1137
     15 C          -6.9738  -15.7296   23.9597 C.ar    1  UNL1       -0.0248
     16 C          -5.5461  -15.3826   24.2618 C.ar    1  UNL1       -0.0045
     17 C          -5.1002  -15.2131   25.6839 C.ar    1  UNL1       -0.0007
     18 C          -6.0820  -15.3905   26.8040 C.ar    1  UNL1       -0.0045
     19 C          -7.5097  -15.7374   26.5020 C.ar    1  UNL1       -0.0245
     20 C          -8.4916  -15.9148   27.6220 C.3     1  UNL1        0.0307
     21 C          -7.9557  -15.9070   25.0798 C.ar    1  UNL1       -0.0105
     22 C          -8.2542  -14.8391   21.8818 C.3     1  UNL1        0.0050
     23 C          -7.4197  -15.8991   22.5376 C.3     1  UNL1        0.0261
@<TRIPOS>BOND
     1    22    23    1
     2    23    15    1
     3    15    16   ar
     4    16    17   ar
     5    17    18   ar
     6    18    19   ar
     7    19    20    1
     8    19    21   ar
     9    21    14    1
    10    14     1    1
    11     1     3    1
    12     3     4   ar
    13     4     5   ar
    14     5     6   ar
    15     6     7   ar
    16     7     8   ar
    17     8     9    1
    18     8    10   ar
    19    10    11    1
    20    10    12   ar
    21    12    13   ar
    22    21    15   ar
    23    13     3   ar
    24    13     7   ar
    25     1     2    1
@<TRIPOS>MOLECULE
*****
 23 25 0 0 0
SMALL
GASTEIGER

@<TRIPOS>ATOM
      1 N          -7.2523  -19.3213   21.7783 N.pl3   1  UNL1       -0.3267
      2 H          -7.0621  -19.8319   20.9584 H       1  UNL1        0.1472
      3 C          -8.6257  -19.3539   22.3807 C.ar    1  UNL1        0.0798
      4 C          -8.9105  -20.2486   23.5505 C.ar    1  UNL1        0.0189
      5 C         -10.2839  -20.2811   24.1528 C.ar    1  UNL1        0.0204
      6 C         -11.3724  -19.4191   23.5853 C.ar    1  UNL1        0.0812
      7 N         -11.0875  -18.5244   22.4155 N.ar    1  UNL1       -0.2919
      8 C         -11.9531  -17.5699   21.6477 C.ar    1  UNL1        0.0567
      9 C         -13.4026  -17.2875   21.9106 C.3     1  UNL1        0.0517
     10 C         -11.1148  -16.9474   20.5708 C.ar    1  UNL1        0.0730
     11 C         -11.5788  -15.9331   19.5677 C.3     1  UNL1        0.0534
     12 N          -9.7310  -17.5172   20.6731 N.ar    1  UNL1       -0.2299
     13 C          -9.7142  -18.4919   21.8132 C.ar    1  UNL1        0.1603
     14 C          -6.1686  -18.5108   22.4254 C.3     1  UNL1        0.1137
     15 C          -4.4122  -19.5299   20.8048 C.ar    1  UNL1       -0.0248
     16 C          -2.9826  -19.7258   20.3948 C.ar    1  UNL1       -0.0045
     17 C          -1.8801  -19.0985   21.1954 C.ar    1  UNL1       -0.0007
     18 C          -2.2070  -18.2754   22.4060 C.ar    1  UNL1       -0.0045
     19 C          -3.6365  -18.0794   22.8160 C.ar    1  UNL1       -0.0245
     20 C          -3.9635  -17.2563   24.0266 C.3     1  UNL1        0.0307
     21 C          -4.7391  -18.7067   22.0154 C.ar    1  UNL1       -0.0105
     22 C          -5.7891  -21.6265   20.1282 C.3     1  UNL1        0.0050
     23 C          -5.5147  -20.1571   20.0042 C.3     1  UNL1        0.0261
@<TRIPOS>BOND
     1    22    23    1
     2    23    15    1
     3    15    16   ar
     4    16    17   ar
     5    17    18   ar
     6    18    19   ar
     7    19    20    1
     8    19    21   ar
     9    21    14    1
    10    14     1    1
    11     1     3    1
    12     3     4   ar
    13     4     5   ar
    14     5     6   ar
    15     6     7   ar
    16     7     8   ar
    17     8     9    1
    18     8    10   ar
    19    10    11    1
    20    10    12   ar
    21    12    13   ar
    22    21    15   ar
    23    13     3   ar
    24    13     7   ar
    25     1     2    1
