@<TRIPOS>MOLECULE
*****
 42 45 0 0 0
SMALL
GASTEIGER

@<TRIPOS>ATOM
      1 C          -0.3453    2.0396   26.3676 C.ar    1  UNL1        0.0548
      2 C          -1.5930    2.8604   26.5072 C.ar    1  UNL1        0.0077
      3 C          -2.0135    3.7801   25.3994 C.ar    1  UNL1        0.0390
      4 C          -1.1864    3.8791   24.1520 C.ar    1  UNL1        0.1598
      5 C           0.0613    3.0583   24.0124 C.ar    1  UNL1        0.0993
      6 C           0.4818    2.1385   25.1202 C.ar    1  UNL1        0.0235
      7 N           1.4524    1.2297   28.0593 N.am    1  UNL1       -0.3040
      8 C           0.0752    1.1198   27.4754 C.2     1  UNL1        0.2458
      9 O          -0.8815    0.0902   27.9992 O.2     1  UNL1       -0.2701
     10 H           2.0804    1.9055   27.7155 H       1  UNL1        0.1496
     11 C           2.4797   -0.6234   28.1619 C.3     1  UNL1        0.0196
     12 C           1.8730    0.3100   29.1671 C.3     1  UNL1        0.0572
     13 C           1.2662    1.2434   30.1724 C.3     1  UNL1        0.0196
     14 C           2.2935   -0.6098   30.2749 C.3     1  UNL1        0.0196
     15 N           0.8885    3.1572   22.7650 N.pl3   1  UNL1       -0.2120
     16 H           1.0659    4.0370   22.3605 H       1  UNL1        0.1738
     17 S           1.4454    1.9156   22.1340 S.O2    1  UNL1        0.0745
     18 O           0.0560    1.3732   21.9751 O.2     1  UNL1       -0.1499
     19 O           2.8348    2.4580   22.2929 O.2     1  UNL1       -0.1499
     20 C           2.0024    0.6739   21.5029 C.ar    1  UNL1        0.1356
     21 C           1.9428    0.4976   20.0145 C.ar    1  UNL1        0.0207
     22 C           2.4997   -0.7439   19.3834 C.ar    1  UNL1       -0.0028
     23 C           3.1162   -1.8092   20.2408 C.ar    1  UNL1       -0.0216
     24 C           3.1758   -1.6329   21.7292 C.ar    1  UNL1        0.0085
     25 C           2.6189   -0.3913   22.3602 C.ar    1  UNL1        0.0762
     26 CL          2.6784   -0.2150   23.8487 Cl      1  UNL1       -0.0809
     27 C           3.6732   -3.0509   19.6097 C.3     1  UNL1        0.0224
     28 C           4.8239   -3.7925   18.9966 C.3     1  UNL1        0.0047
     29 C           3.4871   -4.4598   19.1298 C.3     1  UNL1        0.0047
     30 O          -1.6069    4.7988   23.0442 O.3     1  UNL1       -0.4513
     31 C          -2.7052    4.3914   22.1073 C.ar    1  UNL1        0.1580
     32 C          -4.1207    4.3172   22.5981 C.ar    1  UNL1        0.0677
     33 C          -5.2190    3.9098   21.6612 C.ar    1  UNL1        0.1396
     34 F          -6.6345    3.8356   22.1520 F       1  UNL1       -0.2044
     35 C          -4.9018    3.5766   20.2335 C.ar    1  UNL1        0.0119
     36 C          -3.4863    3.6508   19.7427 C.ar    1  UNL1        0.0128
     37 C          -2.3880    4.0582   20.6796 C.ar    1  UNL1        0.0919
     38 CL         -0.9725    4.1324   20.1888 Cl      1  UNL1       -0.0791
     39 C          -6.0001    3.1691   19.2966 C.3     1  UNL1        0.0703
     40 C          -6.6046    4.1781   18.3657 C.2     1  UNL1        0.0548
     41 O          -5.7693    4.7952   17.2835 O.co2   1  UNL1       -0.5488
     42 O          -8.0446    4.5699   18.5172 O.co2   1  UNL1       -0.5488
@<TRIPOS>UNITY_ATOM_ATTR
41 1
charge -1
@<TRIPOS>BOND
     1    11    12    1
     2    12    13    1
     3    12    14    1
     4    12     7    1
     5     7     8   am
     6     8     9    2
     7     8     1    1
     8     1     2   ar
     9     2     3   ar
    10     3     4   ar
    11     4    30    1
    12    30    31    1
    13    31    32   ar
    14    32    33   ar
    15    33    34    1
    16    33    35   ar
    17    35    39    1
    18    39    40    1
    19    40    41   ar
    20    40    42   ar
    21    35    36   ar
    22    36    37   ar
    23    37    38    1
    24     4     5   ar
    25     5    15    1
    26    15    17    1
    27    17    18    2
    28    17    19    2
    29    17    20    1
    30    20    21   ar
    31    21    22   ar
    32    22    23   ar
    33    23    27    1
    34    27    28    1
    35    28    29    1
    36    23    24   ar
    37    24    25   ar
    38    25    26    1
    39     5     6   ar
    40     6     1   ar
    41    37    31   ar
    42    25    20   ar
    43    29    27    1
    44     7    10    1
    45    15    16    1
@<TRIPOS>MOLECULE
*****
 42 45 0 0 0
SMALL
GASTEIGER

@<TRIPOS>ATOM
      1 C          -0.3853    2.5782   25.8852 C.ar    1  UNL1        0.0548
      2 C          -1.7863    3.0341   26.1669 C.ar    1  UNL1        0.0077
      3 C          -2.6380    3.5716   25.0552 C.ar    1  UNL1        0.0390
      4 C          -2.0886    3.6533   23.6619 C.ar    1  UNL1        0.1598
      5 C          -0.6876    3.1974   23.3802 C.ar    1  UNL1        0.0993
      6 C           0.1640    2.6599   24.4918 C.ar    1  UNL1        0.0235
      7 N           0.7758    0.5745   27.0628 N.am    1  UNL1       -0.3040
      8 C           0.4663    2.0407   26.9969 C.2     1  UNL1        0.2458
      9 O           1.0084    2.9694   28.0426 O.2     1  UNL1       -0.2701
     10 H           0.4200   -0.0350   26.3764 H       1  UNL1        0.1496
     11 C           0.4002   -0.1829   29.0084 C.3     1  UNL1        0.0196
     12 C           1.6275    0.0370   28.1745 C.3     1  UNL1        0.0572
     13 C           2.8548    0.2569   27.3406 C.3     1  UNL1        0.0196
     14 C           2.4791   -0.5005   29.2861 C.3     1  UNL1        0.0196
     15 N          -0.1382    3.2791   21.9867 N.pl3   1  UNL1       -0.2120
     16 H          -0.2997    4.0819   21.4402 H       1  UNL1        0.1738
     17 S           0.6572    2.1376   21.4261 S.O2    1  UNL1        0.0745
     18 O           1.9146    2.9424   21.5715 O.2     1  UNL1       -0.1499
     19 O          -0.6002    1.3329   21.2807 O.2     1  UNL1       -0.1499
     20 C           1.4526    0.9961   20.8654 C.ar    1  UNL1        0.1356
     21 C           2.0941    0.0038   21.7894 C.ar    1  UNL1        0.0207
     22 C           2.8895   -1.1377   21.2287 C.ar    1  UNL1       -0.0028
     23 C           3.0433   -1.2869   19.7442 C.ar    1  UNL1       -0.0216
     24 C           2.4017   -0.2946   18.8202 C.ar    1  UNL1        0.0085
     25 C           1.6063    0.8469   19.3808 C.ar    1  UNL1        0.0762
     26 CL          0.9648    1.8392   18.4568 Cl      1  UNL1       -0.0809
     27 C           3.8387   -2.4285   19.1835 C.3     1  UNL1        0.0224
     28 C           5.0451   -2.9345   18.4497 C.3     1  UNL1        0.0047
     29 C           4.0098   -3.8996   18.9462 C.3     1  UNL1        0.0047
     30 O          -2.9403    4.1908   22.5502 O.3     1  UNL1       -0.4513
     31 C          -4.2818    4.7885   22.8550 C.ar    1  UNL1        0.1580
     32 C          -5.5124    3.9320   22.8089 C.ar    1  UNL1        0.0677
     33 C          -6.8541    4.5298   23.1136 C.ar    1  UNL1        0.1396
     34 F          -8.0847    3.6734   23.0675 F       1  UNL1       -0.2044
     35 C          -6.9650    5.9839   23.4645 C.ar    1  UNL1        0.0119
     36 C          -5.7344    6.8404   23.5106 C.ar    1  UNL1        0.0128
     37 C          -4.3928    6.2427   23.2058 C.ar    1  UNL1        0.0919
     38 CL         -3.1622    7.0991   23.2519 Cl      1  UNL1       -0.0791
     39 C          -8.3066    6.5817   23.7693 C.3     1  UNL1        0.0703
     40 C          -9.0750    6.1250   24.9738 C.2     1  UNL1        0.0548
     41 O         -10.3899    5.4236   24.8030 O.co2   1  UNL1       -0.5488
     42 O          -8.5286    6.3698   26.3491 O.co2   1  UNL1       -0.5488
@<TRIPOS>UNITY_ATOM_ATTR
41 1
charge -1
@<TRIPOS>BOND
     1    11    12    1
     2    12    13    1
     3    12    14    1
     4    12     7    1
     5     7     8   am
     6     8     9    2
     7     8     1    1
     8     1     2   ar
     9     2     3   ar
    10     3     4   ar
    11     4    30    1
    12    30    31    1
    13    31    32   ar
    14    32    33   ar
    15    33    34    1
    16    33    35   ar
    17    35    39    1
    18    39    40    1
    19    40    41   ar
    20    40    42   ar
    21    35    36   ar
    22    36    37   ar
    23    37    38    1
    24     4     5   ar
    25     5    15    1
    26    15    17    1
    27    17    18    2
    28    17    19    2
    29    17    20    1
    30    20    21   ar
    31    21    22   ar
    32    22    23   ar
    33    23    27    1
    34    27    28    1
    35    28    29    1
    36    23    24   ar
    37    24    25   ar
    38    25    26    1
    39     5     6   ar
    40     6     1   ar
    41    37    31   ar
    42    25    20   ar
    43    29    27    1
    44     7    10    1
    45    15    16    1
@<TRIPOS>MOLECULE
*****
 42 45 0 0 0
SMALL
GASTEIGER

@<TRIPOS>ATOM
      1 C           2.3957    0.6892   19.5798 C.ar    1  UNL1        0.0548
      2 C           1.6734    0.9382   18.2890 C.ar    1  UNL1        0.0077
      3 C           0.7460    2.1103   18.1625 C.ar    1  UNL1        0.0390
      4 C           0.5409    3.0335   19.3268 C.ar    1  UNL1        0.1598
      5 C           1.2633    2.7846   20.6176 C.ar    1  UNL1        0.0993
      6 C           2.1907    1.6124   20.7441 C.ar    1  UNL1        0.0235
      7 N           3.4773   -1.4439   18.5649 N.am    1  UNL1       -0.3040
      8 C           3.3231   -0.4829   19.7062 C.2     1  UNL1        0.2458
      9 O           4.0964   -0.6941   20.9741 O.2     1  UNL1       -0.2701
     10 H           2.9697   -1.3053   17.7328 H       1  UNL1        0.1496
     11 C           3.2927   -3.4323   19.2807 C.3     1  UNL1        0.0196
     12 C           4.4047   -2.6161   18.6914 C.3     1  UNL1        0.0572
     13 C           5.5166   -1.7998   18.1021 C.3     1  UNL1        0.0196
     14 C           5.3321   -3.7882   18.8179 C.3     1  UNL1        0.0196
     15 N           1.0583    3.7078   21.7820 N.pl3   1  UNL1       -0.2120
     16 H           1.1816    4.6779   21.6686 H       1  UNL1        0.1738
     17 S           0.6654    3.1529   23.1190 S.O2    1  UNL1        0.0745
     18 O          -0.5221    2.4841   22.4924 O.2     1  UNL1       -0.1499
     19 O           1.8528    3.8216   23.7455 O.2     1  UNL1       -0.1499
     20 C           0.2725    2.5979   24.4561 C.ar    1  UNL1        0.1356
     21 C          -0.7138    3.3344   25.3133 C.ar    1  UNL1        0.0207
     22 C          -1.1067    2.7796   26.6503 C.ar    1  UNL1       -0.0028
     23 C          -0.5134    1.4882   27.1301 C.ar    1  UNL1       -0.0216
     24 C           0.4729    0.7517   26.2729 C.ar    1  UNL1        0.0085
     25 C           0.8658    1.3066   24.9359 C.ar    1  UNL1        0.0762
     26 CL          1.8521    0.5701   24.0787 Cl      1  UNL1       -0.0809
     27 C          -0.9063    0.9333   28.4672 C.3     1  UNL1        0.0224
     28 C          -1.7294   -0.0131   29.2900 C.3     1  UNL1        0.0047
     29 C          -0.7636    0.9185   29.9603 C.3     1  UNL1        0.0047
     30 O          -0.3865    4.2057   19.2003 O.3     1  UNL1       -0.4513
     31 C          -1.8667    3.9837   19.1026 C.ar    1  UNL1        0.1580
     32 C          -2.6469    3.5826   20.3193 C.ar    1  UNL1        0.0677
     33 C          -4.1272    3.3607   20.2215 C.ar    1  UNL1        0.1396
     34 F          -4.9074    2.9595   21.4382 F       1  UNL1       -0.2044
     35 C          -4.8273    3.5399   18.9071 C.ar    1  UNL1        0.0119
     36 C          -4.0471    3.9410   17.6904 C.ar    1  UNL1        0.0128
     37 C          -2.5668    4.1630   17.7881 C.ar    1  UNL1        0.0919
     38 CL         -1.7866    4.5641   16.5714 Cl      1  UNL1       -0.0791
     39 C          -6.3076    3.3180   18.8093 C.3     1  UNL1        0.0703
     40 C          -7.2567    4.4258   19.1582 C.2     1  UNL1        0.0548
     41 O          -8.2468    4.9131   18.1422 O.co2   1  UNL1       -0.5488
     42 O          -7.2158    5.0463   20.5232 O.co2   1  UNL1       -0.5488
@<TRIPOS>UNITY_ATOM_ATTR
41 1
charge -1
@<TRIPOS>BOND
     1    11    12    1
     2    12    13    1
     3    12    14    1
     4    12     7    1
     5     7     8   am
     6     8     9    2
     7     8     1    1
     8     1     2   ar
     9     2     3   ar
    10     3     4   ar
    11     4    30    1
    12    30    31    1
    13    31    32   ar
    14    32    33   ar
    15    33    34    1
    16    33    35   ar
    17    35    39    1
    18    39    40    1
    19    40    41   ar
    20    40    42   ar
    21    35    36   ar
    22    36    37   ar
    23    37    38    1
    24     4     5   ar
    25     5    15    1
    26    15    17    1
    27    17    18    2
    28    17    19    2
    29    17    20    1
    30    20    21   ar
    31    21    22   ar
    32    22    23   ar
    33    23    27    1
    34    27    28    1
    35    28    29    1
    36    23    24   ar
    37    24    25   ar
    38    25    26    1
    39     5     6   ar
    40     6     1   ar
    41    37    31   ar
    42    25    20   ar
    43    29    27    1
    44     7    10    1
    45    15    16    1
@<TRIPOS>MOLECULE
*****
 42 45 0 0 0
SMALL
GASTEIGER

@<TRIPOS>ATOM
      1 C           6.4108   -2.2104   32.4109 C.ar    1  UNL1        0.0548
      2 C           7.4147   -1.3289   33.0927 C.ar    1  UNL1        0.0077
      3 C           7.0241    0.0504   33.5345 C.ar    1  UNL1        0.0390
      4 C           5.6297    0.5480   33.2944 C.ar    1  UNL1        0.1598
      5 C           4.6257   -0.3335   32.6126 C.ar    1  UNL1        0.0993
      6 C           5.0163   -1.7128   32.1708 C.ar    1  UNL1        0.0235
      7 N           7.7409   -3.7692   30.8137 N.am    1  UNL1       -0.3040
      8 C           6.8014   -3.5897   31.9691 C.2     1  UNL1        0.2458
      9 O           6.2525   -4.7894   32.6828 O.2     1  UNL1       -0.2701
     10 H           8.1011   -2.9818   30.3452 H       1  UNL1        0.1496
     11 C           6.8973   -5.2259   29.5228 C.3     1  UNL1        0.0196
     12 C           8.1314   -5.1484   30.3719 C.3     1  UNL1        0.0572
     13 C           9.3655   -5.0709   31.2210 C.3     1  UNL1        0.0196
     14 C           8.5220   -6.5276   29.9301 C.3     1  UNL1        0.0196
     15 N           3.2312    0.1641   32.3725 N.pl3   1  UNL1       -0.2120
     16 H           2.6293    0.3286   33.1340 H       1  UNL1        0.1738
     17 S           2.7537    0.4111   30.9722 S.O2    1  UNL1        0.0745
     18 O           2.0920   -0.9349   30.9604 O.2     1  UNL1       -0.1499
     19 O           3.4154    1.7572   30.9840 O.2     1  UNL1       -0.1499
     20 C           2.2762    0.6582   29.5718 C.ar    1  UNL1        0.1356
     21 C           3.1125    0.2205   28.4061 C.ar    1  UNL1        0.0207
     22 C           2.6351    0.4675   27.0057 C.ar    1  UNL1       -0.0028
     23 C           1.3213    1.1523   26.7711 C.ar    1  UNL1       -0.0216
     24 C           0.4850    1.5901   27.9369 C.ar    1  UNL1        0.0085
     25 C           0.9624    1.3430   29.3372 C.ar    1  UNL1        0.0762
     26 CL          0.1261    1.7808   30.5029 Cl      1  UNL1       -0.0809
     27 C           0.8438    1.3994   25.3707 C.3     1  UNL1        0.0224
     28 C          -0.0768    2.1013   24.4170 C.3     1  UNL1        0.0047
     29 C           0.9375    1.1253   23.8990 C.3     1  UNL1        0.0047
     30 O           5.2391    1.9273   33.7362 O.3     1  UNL1       -0.4513
     31 C           4.4452    2.1150   34.9950 C.ar    1  UNL1        0.1580
     32 C           4.8622    1.4173   36.2557 C.ar    1  UNL1        0.0677
     33 C           4.0682    1.6050   37.5145 C.ar    1  UNL1        0.1396
     34 F           4.4852    0.9073   38.7752 F       1  UNL1       -0.2044
     35 C           2.8574    2.4903   37.5125 C.ar    1  UNL1        0.0119
     36 C           2.4405    3.1880   36.2518 C.ar    1  UNL1        0.0128
     37 C           3.2344    3.0004   34.9931 C.ar    1  UNL1        0.0919
     38 CL          2.8174    3.6981   33.7324 Cl      1  UNL1       -0.0791
     39 C           2.0635    2.6781   38.7713 C.3     1  UNL1        0.0703
     40 C           1.1505    1.5892   39.2516 C.2     1  UNL1        0.0548
     41 O          -0.3015    1.6077   38.8755 O.co2   1  UNL1       -0.5488
     42 O           1.6894    0.4819   40.1079 O.co2   1  UNL1       -0.5488
@<TRIPOS>UNITY_ATOM_ATTR
41 1
charge -1
@<TRIPOS>BOND
     1    11    12    1
     2    12    13    1
     3    12    14    1
     4    12     7    1
     5     7     8   am
     6     8     9    2
     7     8     1    1
     8     1     2   ar
     9     2     3   ar
    10     3     4   ar
    11     4    30    1
    12    30    31    1
    13    31    32   ar
    14    32    33   ar
    15    33    34    1
    16    33    35   ar
    17    35    39    1
    18    39    40    1
    19    40    41   ar
    20    40    42   ar
    21    35    36   ar
    22    36    37   ar
    23    37    38    1
    24     4     5   ar
    25     5    15    1
    26    15    17    1
    27    17    18    2
    28    17    19    2
    29    17    20    1
    30    20    21   ar
    31    21    22   ar
    32    22    23   ar
    33    23    27    1
    34    27    28    1
    35    28    29    1
    36    23    24   ar
    37    24    25   ar
    38    25    26    1
    39     5     6   ar
    40     6     1   ar
    41    37    31   ar
    42    25    20   ar
    43    29    27    1
    44     7    10    1
    45    15    16    1
@<TRIPOS>MOLECULE
*****
 42 45 0 0 0
SMALL
GASTEIGER

@<TRIPOS>ATOM
      1 C          -3.1246    3.7125   22.5987 C.ar    1  UNL1        0.0548
      2 C          -3.6479    4.0795   23.9557 C.ar    1  UNL1        0.0077
      3 C          -2.6968    4.2714   25.0996 C.ar    1  UNL1        0.0390
      4 C          -1.2224    4.0964   24.8866 C.ar    1  UNL1        0.1598
      5 C          -0.6991    3.7294   23.5296 C.ar    1  UNL1        0.0993
      6 C          -1.6502    3.5375   22.3857 C.ar    1  UNL1        0.0235
      7 N          -4.3928    4.6681   20.5424 N.am    1  UNL1       -0.3040
      8 C          -4.0757    3.5205   21.4548 C.2     1  UNL1        0.2458
      9 O          -4.7097    2.1810   21.2232 O.2     1  UNL1       -0.2701
     10 H          -3.9767    5.5473   20.6944 H       1  UNL1        0.1496
     11 C          -6.4881    4.8740   20.2831 C.3     1  UNL1        0.0196
     12 C          -5.3439    4.4761   19.3985 C.3     1  UNL1        0.0572
     13 C          -4.1996    4.0782   18.5139 C.3     1  UNL1        0.0196
     14 C          -6.2950    4.2842   18.2546 C.3     1  UNL1        0.0196
     15 N           0.7754    3.5544   23.3165 N.pl3   1  UNL1       -0.2120
     16 H           1.4051    4.2337   23.6501 H       1  UNL1        0.1738
     17 S           1.2905    2.3443   22.5952 S.O2    1  UNL1        0.0745
     18 O           0.7982    1.4701   23.7103 O.2     1  UNL1       -0.1499
     19 O           1.7828    3.2185   21.4802 O.2     1  UNL1       -0.1499
     20 C           1.8057    1.1341   21.8739 C.ar    1  UNL1        0.1356
     21 C           0.9256    0.4121   20.8971 C.ar    1  UNL1        0.0207
     22 C           1.4406   -0.7980   20.1757 C.ar    1  UNL1       -0.0028
     23 C           2.8358   -1.2860   20.4312 C.ar    1  UNL1       -0.0216
     24 C           3.7159   -0.5639   21.4079 C.ar    1  UNL1        0.0085
     25 C           3.2008    0.6461   22.1293 C.ar    1  UNL1        0.0762
     26 CL          4.0809    1.3682   23.1061 Cl      1  UNL1       -0.0809
     27 C           3.3509   -2.4961   19.7098 C.3     1  UNL1        0.0224
     28 C           3.2789   -3.9670   19.4245 C.3     1  UNL1        0.0047
     29 C           4.3152   -3.1212   18.7457 C.3     1  UNL1        0.0047
     30 O          -0.2713    4.2883   26.0305 O.3     1  UNL1       -0.4513
     31 C           0.2247    3.1007   26.8008 C.ar    1  UNL1        0.1580
     32 C          -0.7531    2.1393   27.4087 C.ar    1  UNL1        0.0677
     33 C          -0.2570    0.9516   28.1790 C.ar    1  UNL1        0.1396
     34 F          -1.2349   -0.0098   28.7868 F       1  UNL1       -0.2044
     35 C           1.2169    0.7254   28.3415 C.ar    1  UNL1        0.0119
     36 C           2.1947    1.6868   27.7337 C.ar    1  UNL1        0.0128
     37 C           1.6987    2.8745   26.9634 C.ar    1  UNL1        0.0919
     38 CL          2.6766    3.8359   26.3556 Cl      1  UNL1       -0.0791
     39 C           1.7130   -0.4623   29.1119 C.3     1  UNL1        0.0703
     40 C           2.1454   -0.3030   30.5393 C.2     1  UNL1        0.0548
     41 O           1.7073    0.8964   31.3263 O.co2   1  UNL1       -0.5488
     42 O           3.0159   -1.3432   31.1797 O.co2   1  UNL1       -0.5488
@<TRIPOS>UNITY_ATOM_ATTR
41 1
charge -1
@<TRIPOS>BOND
     1    11    12    1
     2    12    13    1
     3    12    14    1
     4    12     7    1
     5     7     8   am
     6     8     9    2
     7     8     1    1
     8     1     2   ar
     9     2     3   ar
    10     3     4   ar
    11     4    30    1
    12    30    31    1
    13    31    32   ar
    14    32    33   ar
    15    33    34    1
    16    33    35   ar
    17    35    39    1
    18    39    40    1
    19    40    41   ar
    20    40    42   ar
    21    35    36   ar
    22    36    37   ar
    23    37    38    1
    24     4     5   ar
    25     5    15    1
    26    15    17    1
    27    17    18    2
    28    17    19    2
    29    17    20    1
    30    20    21   ar
    31    21    22   ar
    32    22    23   ar
    33    23    27    1
    34    27    28    1
    35    28    29    1
    36    23    24   ar
    37    24    25   ar
    38    25    26    1
    39     5     6   ar
    40     6     1   ar
    41    37    31   ar
    42    25    20   ar
    43    29    27    1
    44     7    10    1
    45    15    16    1
@<TRIPOS>MOLECULE
*****
 42 45 0 0 0
SMALL
GASTEIGER

@<TRIPOS>ATOM
      1 C           2.8823   -0.7356   20.8481 C.ar    1  UNL1        0.0548
      2 C           2.9970   -0.9224   22.3319 C.ar    1  UNL1        0.0077
      3 C           2.4387    0.1123   23.2635 C.ar    1  UNL1        0.0390
      4 C           1.7657    1.3338   22.7111 C.ar    1  UNL1        0.1598
      5 C           1.6510    1.5205   21.2272 C.ar    1  UNL1        0.0993
      6 C           2.2093    0.4858   20.2957 C.ar    1  UNL1        0.0235
      7 N           3.8349   -3.1185   20.4427 N.am    1  UNL1       -0.3040
      8 C           3.4406   -1.7703   19.9166 C.2     1  UNL1        0.2458
      9 O           3.6046   -1.4568   18.4589 O.2     1  UNL1       -0.2701
     10 H           3.7273   -3.3242   21.3994 H       1  UNL1        0.1496
     11 C           3.0020   -4.6058   19.1801 C.3     1  UNL1        0.0196
     12 C           4.3932   -4.1532   19.5112 C.3     1  UNL1        0.0572
     13 C           5.7845   -3.7005   19.8422 C.3     1  UNL1        0.0196
     14 C           4.9515   -5.1878   18.5796 C.3     1  UNL1        0.0196
     15 N           0.9780    2.7420   20.6748 N.pl3   1  UNL1       -0.2120
     16 H           1.4437    3.3046   20.0147 H       1  UNL1        0.1738
     17 S          -0.4046    3.1063   21.1282 S.O2    1  UNL1        0.0745
     18 O          -0.8748    1.7179   20.8100 O.2     1  UNL1       -0.1499
     19 O           0.0655    4.4946   21.4465 O.2     1  UNL1       -0.1499
     20 C          -1.7873    3.4706   21.5817 C.ar    1  UNL1        0.1356
     21 C          -2.1267    3.4522   23.0426 C.ar    1  UNL1        0.0207
     22 C          -3.5093    3.8166   23.4961 C.ar    1  UNL1       -0.0028
     23 C          -4.5525    4.1993   22.4886 C.ar    1  UNL1       -0.0216
     24 C          -4.2131    4.2177   21.0276 C.ar    1  UNL1        0.0085
     25 C          -2.8305    3.8534   20.5741 C.ar    1  UNL1        0.0762
     26 CL         -2.4912    3.8718   19.1131 Cl      1  UNL1       -0.0809
     27 C          -5.9351    4.5637   22.9420 C.3     1  UNL1        0.0224
     28 C          -7.3951    4.2369   23.0502 C.3     1  UNL1        0.0047
     29 C          -6.8699    5.5215   23.6193 C.3     1  UNL1        0.0047
     30 O           1.2074    2.3684   23.6426 O.3     1  UNL1       -0.4513
     31 C           1.1682    2.1056   25.1189 C.ar    1  UNL1        0.1580
     32 C          -0.0499    1.4874   25.7385 C.ar    1  UNL1        0.0677
     33 C          -0.0890    1.2245   27.2149 C.ar    1  UNL1        0.1396
     34 F          -1.3072    0.6064   27.8345 F       1  UNL1       -0.2044
     35 C           1.0899    1.5798   28.0714 C.ar    1  UNL1        0.0119
     36 C           2.3081    2.1979   27.4517 C.ar    1  UNL1        0.0128
     37 C           2.3473    2.4608   25.9755 C.ar    1  UNL1        0.0919
     38 CL          3.5654    3.0790   25.3558 Cl      1  UNL1       -0.0791
     39 C           1.0508    1.3169   29.5477 C.3     1  UNL1        0.0703
     40 C           1.9106    0.2404   30.1409 C.2     1  UNL1        0.0548
     41 O           2.3660   -0.9090   29.2914 O.co2   1  UNL1       -0.5488
     42 O           2.3149    0.3132   31.5835 O.co2   1  UNL1       -0.5488
@<TRIPOS>UNITY_ATOM_ATTR
41 1
charge -1
@<TRIPOS>BOND
     1    11    12    1
     2    12    13    1
     3    12    14    1
     4    12     7    1
     5     7     8   am
     6     8     9    2
     7     8     1    1
     8     1     2   ar
     9     2     3   ar
    10     3     4   ar
    11     4    30    1
    12    30    31    1
    13    31    32   ar
    14    32    33   ar
    15    33    34    1
    16    33    35   ar
    17    35    39    1
    18    39    40    1
    19    40    41   ar
    20    40    42   ar
    21    35    36   ar
    22    36    37   ar
    23    37    38    1
    24     4     5   ar
    25     5    15    1
    26    15    17    1
    27    17    18    2
    28    17    19    2
    29    17    20    1
    30    20    21   ar
    31    21    22   ar
    32    22    23   ar
    33    23    27    1
    34    27    28    1
    35    28    29    1
    36    23    24   ar
    37    24    25   ar
    38    25    26    1
    39     5     6   ar
    40     6     1   ar
    41    37    31   ar
    42    25    20   ar
    43    29    27    1
    44     7    10    1
    45    15    16    1
@<TRIPOS>MOLECULE
*****
 42 45 0 0 0
SMALL
GASTEIGER

@<TRIPOS>ATOM
      1 C          -1.3883    3.4927   23.6420 C.ar    1  UNL1        0.0548
      2 C          -0.5035    3.8379   22.4811 C.ar    1  UNL1        0.0077
      3 C           0.8446    3.1937   22.3479 C.ar    1  UNL1        0.0390
      4 C           1.3078    2.2042   23.3757 C.ar    1  UNL1        0.1598
      5 C           0.4230    1.8590   24.5367 C.ar    1  UNL1        0.0993
      6 C          -0.9251    2.5033   24.6698 C.ar    1  UNL1        0.0235
      7 N          -3.9408    3.2986   24.0859 N.am    1  UNL1       -0.3040
      8 C          -2.7364    4.1369   23.7752 C.2     1  UNL1        0.2458
      9 O          -2.8800    5.6194   23.5977 O.2     1  UNL1       -0.2701
     10 H          -3.8466    2.3256   24.2024 H       1  UNL1        0.1496
     11 C          -5.5562    3.6838   22.7660 C.3     1  UNL1        0.0196
     12 C          -5.2889    3.9429   24.2190 C.3     1  UNL1        0.0572
     13 C          -5.0215    4.2019   25.6721 C.3     1  UNL1        0.0196
     14 C          -6.6369    4.5871   24.3522 C.3     1  UNL1        0.0196
     15 N           0.8862    0.8696   25.5645 N.pl3   1  UNL1       -0.2120
     16 H           1.0985   -0.0541   25.2981 H       1  UNL1        0.1738
     17 S           1.0259    1.2874   26.9983 S.O2    1  UNL1        0.0745
     18 O           2.3561    1.9073   26.6881 O.2     1  UNL1       -0.1499
     19 O          -0.3043    0.6675   27.3086 O.2     1  UNL1       -0.1499
     20 C           1.1655    1.7053   28.4322 C.ar    1  UNL1        0.1356
     21 C           1.7655    0.7627   29.4331 C.ar    1  UNL1        0.0207
     22 C           1.9052    1.1805   30.8669 C.ar    1  UNL1       -0.0028
     23 C           1.4449    2.5408   31.2999 C.ar    1  UNL1       -0.0216
     24 C           0.8449    3.4834   30.2991 C.ar    1  UNL1        0.0085
     25 C           0.7052    3.0656   28.8653 C.ar    1  UNL1        0.0762
     26 CL          0.1052    4.0081   27.8645 Cl      1  UNL1       -0.0809
     27 C           1.5845    2.9587   32.7338 C.3     1  UNL1        0.0224
     28 C           1.3425    3.9592   33.8248 C.3     1  UNL1        0.0047
     29 C           2.0684    2.6818   34.1263 C.3     1  UNL1        0.0047
     30 O           2.6559    1.5600   23.2425 O.3     1  UNL1       -0.4513
     31 C           2.8548    0.4298   22.2767 C.ar    1  UNL1        0.1580
     32 C           2.5657    0.6297   20.8184 C.ar    1  UNL1        0.0677
     33 C           2.7647   -0.5007   19.8526 C.ar    1  UNL1        0.1396
     34 F           2.4755   -0.3008   18.3943 F       1  UNL1       -0.2044
     35 C           3.2529   -1.8308   20.3449 C.ar    1  UNL1        0.0119
     36 C           3.5421   -2.0306   21.8032 C.ar    1  UNL1        0.0128
     37 C           3.3431   -0.9004   22.7690 C.ar    1  UNL1        0.0919
     38 CL          3.6322   -1.1003   24.2273 Cl      1  UNL1       -0.0791
     39 C           3.4519   -2.9611   19.3791 C.3     1  UNL1        0.0703
     40 C           4.8386   -3.4141   19.0302 C.2     1  UNL1        0.0548
     41 O           5.5337   -4.4298   19.8876 O.co2   1  UNL1       -0.5488
     42 O           5.5302   -2.8515   17.8239 O.co2   1  UNL1       -0.5488
@<TRIPOS>UNITY_ATOM_ATTR
41 1
charge -1
@<TRIPOS>BOND
     1    11    12    1
     2    12    13    1
     3    12    14    1
     4    12     7    1
     5     7     8   am
     6     8     9    2
     7     8     1    1
     8     1     2   ar
     9     2     3   ar
    10     3     4   ar
    11     4    30    1
    12    30    31    1
    13    31    32   ar
    14    32    33   ar
    15    33    34    1
    16    33    35   ar
    17    35    39    1
    18    39    40    1
    19    40    41   ar
    20    40    42   ar
    21    35    36   ar
    22    36    37   ar
    23    37    38    1
    24     4     5   ar
    25     5    15    1
    26    15    17    1
    27    17    18    2
    28    17    19    2
    29    17    20    1
    30    20    21   ar
    31    21    22   ar
    32    22    23   ar
    33    23    27    1
    34    27    28    1
    35    28    29    1
    36    23    24   ar
    37    24    25   ar
    38    25    26    1
    39     5     6   ar
    40     6     1   ar
    41    37    31   ar
    42    25    20   ar
    43    29    27    1
    44     7    10    1
    45    15    16    1
@<TRIPOS>MOLECULE
*****
 42 45 0 0 0
SMALL
GASTEIGER

@<TRIPOS>ATOM
      1 C           3.6181   -0.4803   28.8077 C.ar    1  UNL1        0.0548
      2 C           4.0103   -0.9154   30.1885 C.ar    1  UNL1        0.0077
      3 C           5.3694   -1.5015   30.4326 C.ar    1  UNL1        0.0390
      4 C           6.3362   -1.6524   29.2958 C.ar    1  UNL1        0.1598
      5 C           5.9441   -1.2173   27.9149 C.ar    1  UNL1        0.0993
      6 C           4.5850   -0.6313   27.6709 C.ar    1  UNL1        0.0235
      7 N           2.1149    1.3431   27.7282 N.am    1  UNL1       -0.3040
      8 C           2.2591    0.1057   28.5636 C.2     1  UNL1        0.2458
      9 O           1.0442   -0.5457   29.1550 O.2     1  UNL1       -0.2701
     10 H           2.9123    1.7706   27.3401 H       1  UNL1        0.1496
     11 C           0.6460    1.1441   26.2107 C.3     1  UNL1        0.0196
     12 C           0.7559    1.9291   27.4841 C.3     1  UNL1        0.0572
     13 C           0.8657    2.7141   28.7576 C.3     1  UNL1        0.0196
     14 C          -0.6032    2.5151   27.2401 C.3     1  UNL1        0.0196
     15 N           6.9109   -1.3682   26.7781 N.pl3   1  UNL1       -0.2120
     16 H           7.8561   -1.1210   26.8996 H       1  UNL1        0.1738
     17 S           6.4377   -1.8956   25.4560 S.O2    1  UNL1        0.0745
     18 O           6.0780   -3.1992   26.1049 O.2     1  UNL1       -0.1499
     19 O           6.7974   -0.5920   24.8072 O.2     1  UNL1       -0.1499
     20 C           5.9644   -2.4230   24.1339 C.ar    1  UNL1        0.1356
     21 C           4.6092   -2.0421   23.6161 C.ar    1  UNL1        0.0207
     22 C           4.1359   -2.5694   22.2941 C.ar    1  UNL1       -0.0028
     23 C           5.0179   -3.4778   21.4898 C.ar    1  UNL1       -0.0216
     24 C           6.3732   -3.8587   22.0076 C.ar    1  UNL1        0.0085
     25 C           6.8465   -3.3314   23.3296 C.ar    1  UNL1        0.0762
     26 CL          8.2017   -3.7123   23.8474 Cl      1  UNL1       -0.0809
     27 C           4.5446   -4.0052   20.1677 C.3     1  UNL1        0.0224
     28 C           3.7342   -4.9884   19.3761 C.3     1  UNL1        0.0047
     29 C           4.5354   -3.9355   18.6694 C.3     1  UNL1        0.0047
     30 O           7.6953   -2.2384   29.5399 O.3     1  UNL1       -0.4513
     31 C           7.9569   -3.6818   29.2267 C.ar    1  UNL1        0.1580
     32 C           8.6137   -4.0614   27.9327 C.ar    1  UNL1        0.0677
     33 C           8.8753   -5.5049   27.6195 C.ar    1  UNL1        0.1396
     34 F           9.5321   -5.8845   26.3255 F       1  UNL1       -0.2044
     35 C           8.4802   -6.5687   28.6004 C.ar    1  UNL1        0.0119
     36 C           7.8235   -6.1891   29.8945 C.ar    1  UNL1        0.0128
     37 C           7.5618   -4.7457   30.2076 C.ar    1  UNL1        0.0919
     38 CL          6.9051   -4.3661   31.5017 Cl      1  UNL1       -0.0791
     39 C           8.7418   -8.0121   28.2873 C.3     1  UNL1        0.0703
     40 C           7.8342   -8.7529   27.3506 C.2     1  UNL1        0.0548
     41 O           7.2587   -8.0540   26.1546 O.co2   1  UNL1       -0.5488
     42 O           7.5019  -10.1924   27.6099 O.co2   1  UNL1       -0.5488
@<TRIPOS>UNITY_ATOM_ATTR
41 1
charge -1
@<TRIPOS>BOND
     1    11    12    1
     2    12    13    1
     3    12    14    1
     4    12     7    1
     5     7     8   am
     6     8     9    2
     7     8     1    1
     8     1     2   ar
     9     2     3   ar
    10     3     4   ar
    11     4    30    1
    12    30    31    1
    13    31    32   ar
    14    32    33   ar
    15    33    34    1
    16    33    35   ar
    17    35    39    1
    18    39    40    1
    19    40    41   ar
    20    40    42   ar
    21    35    36   ar
    22    36    37   ar
    23    37    38    1
    24     4     5   ar
    25     5    15    1
    26    15    17    1
    27    17    18    2
    28    17    19    2
    29    17    20    1
    30    20    21   ar
    31    21    22   ar
    32    22    23   ar
    33    23    27    1
    34    27    28    1
    35    28    29    1
    36    23    24   ar
    37    24    25   ar
    38    25    26    1
    39     5     6   ar
    40     6     1   ar
    41    37    31   ar
    42    25    20   ar
    43    29    27    1
    44     7    10    1
    45    15    16    1
@<TRIPOS>MOLECULE
*****
 42 45 0 0 0
SMALL
GASTEIGER

@<TRIPOS>ATOM
      1 C           3.0680    0.1920   28.4199 C.ar    1  UNL1        0.0548
      2 C           3.5156   -0.1910   29.7993 C.ar    1  UNL1        0.0077
      3 C           4.9186   -0.6708   30.0264 C.ar    1  UNL1        0.0390
      4 C           5.8740   -0.7674   28.8741 C.ar    1  UNL1        0.1598
      5 C           5.4264   -0.3843   27.4947 C.ar    1  UNL1        0.0993
      6 C           4.0234    0.0954   27.2676 C.ar    1  UNL1        0.0235
      7 N           1.4037    1.8028   27.2429 N.am    1  UNL1       -0.3040
      8 C           1.6651    0.6718   28.1928 C.2     1  UNL1        0.2458
      9 O           0.5235    0.0204   28.9156 O.2     1  UNL1       -0.2701
     10 H           2.1530    2.2304   26.7685 H       1  UNL1        0.1496
     11 C          -0.1410    1.3254   25.8697 C.3     1  UNL1        0.0196
     12 C           0.0007    2.2826   27.0158 C.3     1  UNL1        0.0572
     13 C           0.1425    3.2397   28.1620 C.3     1  UNL1        0.0196
     14 C          -1.4022    2.7623   26.7888 C.3     1  UNL1        0.0196
     15 N           6.3817   -0.4809   26.3422 N.pl3   1  UNL1       -0.2120
     16 H           7.2706   -0.0621   26.4033 H       1  UNL1        0.1738
     17 S           5.9828   -1.2157   25.0969 S.O2    1  UNL1        0.0745
     18 O           5.7499   -2.4580   25.9045 O.2     1  UNL1       -0.1499
     19 O           6.2156    0.0267   24.2893 O.2     1  UNL1       -0.1499
     20 C           5.5838   -1.9504   23.8514 C.ar    1  UNL1        0.1356
     21 C           6.5476   -2.8951   23.1967 C.ar    1  UNL1        0.0207
     22 C           6.1487   -3.6298   21.9513 C.ar    1  UNL1       -0.0028
     23 C           4.7861   -3.4198   21.3607 C.ar    1  UNL1       -0.0216
     24 C           3.8223   -2.4752   22.0154 C.ar    1  UNL1        0.0085
     25 C           4.2211   -1.7404   23.2608 C.ar    1  UNL1        0.0762
     26 CL          3.2573   -0.7957   23.9155 Cl      1  UNL1       -0.0809
     27 C           4.3871   -4.1546   20.1152 C.3     1  UNL1        0.0224
     28 C           3.4210   -5.0352   19.3796 C.3     1  UNL1        0.0047
     29 C           4.6622   -4.5465   18.6938 C.3     1  UNL1        0.0047
     30 O           7.2769   -1.2471   29.1012 O.3     1  UNL1       -0.4513
     31 C           7.6083   -2.7008   28.9371 C.ar    1  UNL1        0.1580
     32 C           6.9534   -3.7234   29.8177 C.ar    1  UNL1        0.0677
     33 C           7.2848   -5.1771   29.6536 C.ar    1  UNL1        0.1396
     34 F           6.6299   -6.1997   30.5342 F       1  UNL1       -0.2044
     35 C           8.2711   -5.6082   28.6090 C.ar    1  UNL1        0.0119
     36 C           8.9260   -4.5857   27.7283 C.ar    1  UNL1        0.0128
     37 C           8.5946   -3.1320   27.8924 C.ar    1  UNL1        0.0919
     38 CL          9.2495   -2.1094   27.0118 Cl      1  UNL1       -0.0791
     39 C           8.6025   -7.0620   28.4448 C.3     1  UNL1        0.0703
     40 C           7.9046   -7.8766   27.3964 C.2     1  UNL1        0.0548
     41 O           7.0077   -7.2054   26.3989 O.co2   1  UNL1       -0.5488
     42 O           8.1038   -9.3624   27.3454 O.co2   1  UNL1       -0.5488
@<TRIPOS>UNITY_ATOM_ATTR
41 1
charge -1
@<TRIPOS>BOND
     1    11    12    1
     2    12    13    1
     3    12    14    1
     4    12     7    1
     5     7     8   am
     6     8     9    2
     7     8     1    1
     8     1     2   ar
     9     2     3   ar
    10     3     4   ar
    11     4    30    1
    12    30    31    1
    13    31    32   ar
    14    32    33   ar
    15    33    34    1
    16    33    35   ar
    17    35    39    1
    18    39    40    1
    19    40    41   ar
    20    40    42   ar
    21    35    36   ar
    22    36    37   ar
    23    37    38    1
    24     4     5   ar
    25     5    15    1
    26    15    17    1
    27    17    18    2
    28    17    19    2
    29    17    20    1
    30    20    21   ar
    31    21    22   ar
    32    22    23   ar
    33    23    27    1
    34    27    28    1
    35    28    29    1
    36    23    24   ar
    37    24    25   ar
    38    25    26    1
    39     5     6   ar
    40     6     1   ar
    41    37    31   ar
    42    25    20   ar
    43    29    27    1
    44     7    10    1
    45    15    16    1
