@<TRIPOS>MOLECULE
*****
 29 32 0 0 0
SMALL
GASTEIGER

@<TRIPOS>ATOM
      1 C          -8.0220  -16.5058   24.7057 C.ar    1  UNL1        0.0338
      2 C          -7.8971  -15.5544   25.8586 C.ar    1  UNL1        0.1336
      3 O          -9.1149  -15.1592   26.6402 O.3     1  UNL1       -0.5055
      4 C          -6.5544  -14.9982   26.2300 C.ar    1  UNL1        0.0366
      5 C          -5.3367  -15.3934   25.4484 C.ar    1  UNL1        0.0031
      6 C          -5.4615  -16.3448   24.2954 C.ar    1  UNL1        0.0002
      7 C          -4.2437  -16.7399   23.5139 C.ar    1  UNL1        0.0000
      8 C          -4.3686  -17.6913   22.3609 C.ar    1  UNL1        0.0001
      9 C          -5.7113  -18.2475   21.9896 C.ar    1  UNL1        0.0000
     10 C          -6.9290  -17.8523   22.7711 C.ar    1  UNL1        0.0001
     11 C          -6.8042  -16.9010   23.9240 C.ar    1  UNL1        0.0029
     12 H          -9.9536  -15.5067   26.4082 H       1  UNL1        0.2922
     13 N         -12.4024  -16.2117   21.9262 N.pl3   1  UNL1       -0.3570
     14 C         -11.5548  -16.9150   22.9446 C.ar    1  UNL1        0.0415
     15 C         -12.0499  -18.1744   23.5915 C.ar    1  UNL1        0.0141
     16 C         -11.2023  -18.8777   24.6100 C.ar    1  UNL1        0.0013
     17 C          -9.8597  -18.3215   24.9813 C.ar    1  UNL1        0.0002
     18 C          -9.3646  -17.0620   24.3343 C.ar    1  UNL1        0.0041
     19 C         -10.2122  -16.3588   23.3160 C.ar    1  UNL1        0.0142
     20 H         -13.2836  -16.5767   21.6824 H       1  UNL1        0.1424
     21 H         -12.0774  -15.3850   21.5015 H       1  UNL1        0.1424
     22 C          -3.1508  -18.0864   21.5793 C.ar    1  UNL1        0.0030
     23 C          -2.9129  -19.5279   21.2395 C.ar    1  UNL1        0.0002
     24 C          -1.6952  -19.9232   20.4579 C.ar    1  UNL1        0.0031
     25 C          -0.7153  -18.8768   20.0161 C.ar    1  UNL1        0.0366
     26 C          -0.9532  -17.4353   20.3559 C.ar    1  UNL1        0.1337
     27 O           0.0266  -16.3891   19.9141 O.3     1  UNL1       -0.5055
     28 C          -2.1710  -17.0402   21.1375 C.ar    1  UNL1        0.0366
     29 H           0.7873  -16.6359   19.4259 H       1  UNL1        0.2922
@<TRIPOS>BOND
     1    13    14    1
     2    14    15   ar
     3    15    16   ar
     4    16    17   ar
     5    17    18   ar
     6    18     1    1
     7     1     2   ar
     8     2     3    1
     9     2     4   ar
    10     4     5   ar
    11     5     6   ar
    12     6     7   ar
    13     7     8   ar
    14     8    22    1
    15    22    23   ar
    16    23    24   ar
    17    24    25   ar
    18    25    26   ar
    19    26    27    1
    20    26    28   ar
    21     8     9   ar
    22     9    10   ar
    23    10    11   ar
    24    18    19   ar
    25    19    14   ar
    26    11     1   ar
    27    11     6   ar
    28    28    22   ar
    29    13    20    1
    30    13    21    1
    31     3    12    1
    32    27    29    1
@<TRIPOS>MOLECULE
*****
 29 32 0 0 0
SMALL
GASTEIGER

@<TRIPOS>ATOM
      1 C         -13.1441   -4.4270   19.1459 C.ar    1  UNL1        0.0338
      2 C         -13.2306   -3.0246   19.6710 C.ar    1  UNL1        0.1336
      3 O         -12.0131   -2.1484   19.6744 O.3     1  UNL1       -0.5055
      4 C         -14.5347   -2.4983   20.1929 C.ar    1  UNL1        0.0366
      5 C         -15.7523   -3.3744   20.1896 C.ar    1  UNL1        0.0031
      6 C         -15.6657   -4.7768   19.6644 C.ar    1  UNL1        0.0002
      7 C         -16.8833   -5.6529   19.6611 C.ar    1  UNL1        0.0000
      8 C         -16.7967   -7.0553   19.1360 C.ar    1  UNL1        0.0001
      9 C         -15.4926   -7.5816   18.6141 C.ar    1  UNL1        0.0000
     10 C         -14.2751   -6.7055   18.6174 C.ar    1  UNL1        0.0001
     11 C         -14.3616   -5.3031   19.1426 C.ar    1  UNL1        0.0029
     12 H         -11.1984   -2.4772   19.3484 H       1  UNL1        0.2922
     13 N          -9.3723   -7.9998   19.2400 N.pl3   1  UNL1       -0.3570
     14 C          -9.9541   -6.7396   18.6711 C.ar    1  UNL1        0.0415
     15 C          -9.2318   -6.0058   17.5804 C.ar    1  UNL1        0.0141
     16 C          -9.8135   -4.7457   17.0114 C.ar    1  UNL1        0.0013
     17 C         -11.1176   -4.2194   17.5332 C.ar    1  UNL1        0.0002
     18 C         -11.8400   -4.9533   18.6240 C.ar    1  UNL1        0.0041
     19 C         -11.2582   -6.2133   19.1929 C.ar    1  UNL1        0.0142
     20 H          -8.5164   -8.3452   18.8975 H       1  UNL1        0.1424
     21 H          -9.8464   -8.4814   19.9559 H       1  UNL1        0.1424
     22 C         -18.0143   -7.9314   19.1327 C.ar    1  UNL1        0.0030
     23 C         -19.0844   -7.7322   20.1647 C.ar    1  UNL1        0.0002
     24 C         -20.3019   -8.6083   20.1614 C.ar    1  UNL1        0.0031
     25 C         -20.4494   -9.6837   19.1261 C.ar    1  UNL1        0.0366
     26 C         -19.3793   -9.8829   18.0940 C.ar    1  UNL1        0.1337
     27 O         -19.5267  -10.9581   17.0587 O.3     1  UNL1       -0.5055
     28 C         -18.1617   -9.0067   18.0973 C.ar    1  UNL1        0.0366
     29 H         -20.2872  -11.5054   17.0566 H       1  UNL1        0.2922
@<TRIPOS>BOND
     1    13    14    1
     2    14    15   ar
     3    15    16   ar
     4    16    17   ar
     5    17    18   ar
     6    18     1    1
     7     1     2   ar
     8     2     3    1
     9     2     4   ar
    10     4     5   ar
    11     5     6   ar
    12     6     7   ar
    13     7     8   ar
    14     8    22    1
    15    22    23   ar
    16    23    24   ar
    17    24    25   ar
    18    25    26   ar
    19    26    27    1
    20    26    28   ar
    21     8     9   ar
    22     9    10   ar
    23    10    11   ar
    24    18    19   ar
    25    19    14   ar
    26    11     1   ar
    27    11     6   ar
    28    28    22   ar
    29    13    20    1
    30    13    21    1
    31     3    12    1
    32    27    29    1
@<TRIPOS>MOLECULE
*****
 29 32 0 0 0
SMALL
GASTEIGER

@<TRIPOS>ATOM
      1 C          -7.8707  -16.3108   24.7288 C.ar    1  UNL1        0.0338
      2 C          -7.7157  -15.4147   25.9216 C.ar    1  UNL1        0.1336
      3 O          -8.9242  -14.9879   26.7011 O.3     1  UNL1       -0.5055
      4 C          -6.3524  -14.9453   26.3350 C.ar    1  UNL1        0.0366
      5 C          -5.1439  -15.3720   25.5556 C.ar    1  UNL1        0.0031
      6 C          -5.2988  -16.2682   24.3627 C.ar    1  UNL1        0.0002
      7 C          -4.0904  -16.6950   23.5833 C.ar    1  UNL1        0.0000
      8 C          -4.2453  -17.5911   22.3905 C.ar    1  UNL1        0.0001
      9 C          -5.6087  -18.0605   21.9771 C.ar    1  UNL1        0.0000
     10 C          -6.8171  -17.6338   22.7565 C.ar    1  UNL1        0.0001
     11 C          -6.6622  -16.7376   23.9493 C.ar    1  UNL1        0.0029
     12 H          -9.7759  -15.2811   26.4428 H       1  UNL1        0.2922
     13 N         -11.7198  -19.7873   25.0424 N.pl3   1  UNL1       -0.3570
     14 C         -11.1586  -18.5185   24.4721 C.ar    1  UNL1        0.0415
     15 C         -11.9607  -17.7191   23.4886 C.ar    1  UNL1        0.0141
     16 C         -11.3995  -16.4502   22.9183 C.ar    1  UNL1        0.0013
     17 C         -10.0362  -15.9808   23.3317 C.ar    1  UNL1        0.0002
     18 C          -9.2340  -16.7803   24.3154 C.ar    1  UNL1        0.0041
     19 C          -9.7952  -18.0491   24.8856 C.ar    1  UNL1        0.0142
     20 H         -12.6146  -20.0955   24.7711 H       1  UNL1        0.1424
     21 H         -11.1933  -20.3120   25.6880 H       1  UNL1        0.1424
     22 C          -3.0368  -18.0179   21.6110 C.ar    1  UNL1        0.0030
     23 C          -2.8161  -19.4697   21.3049 C.ar    1  UNL1        0.0002
     24 C          -1.6077  -19.8965   20.5255 C.ar    1  UNL1        0.0031
     25 C          -0.6200  -18.8715   20.0521 C.ar    1  UNL1        0.0366
     26 C          -0.8407  -17.4198   20.3582 C.ar    1  UNL1        0.1337
     27 O           0.1469  -16.3949   19.8849 O.3     1  UNL1       -0.5055
     28 C          -2.0492  -16.9930   21.1377 C.ar    1  UNL1        0.0366
     29 H           0.9018  -16.6615   19.3980 H       1  UNL1        0.2922
@<TRIPOS>BOND
     1    13    14    1
     2    14    15   ar
     3    15    16   ar
     4    16    17   ar
     5    17    18   ar
     6    18     1    1
     7     1     2   ar
     8     2     3    1
     9     2     4   ar
    10     4     5   ar
    11     5     6   ar
    12     6     7   ar
    13     7     8   ar
    14     8    22    1
    15    22    23   ar
    16    23    24   ar
    17    24    25   ar
    18    25    26   ar
    19    26    27    1
    20    26    28   ar
    21     8     9   ar
    22     9    10   ar
    23    10    11   ar
    24    18    19   ar
    25    19    14   ar
    26    11     1   ar
    27    11     6   ar
    28    28    22   ar
    29    13    20    1
    30    13    21    1
    31     3    12    1
    32    27    29    1
@<TRIPOS>MOLECULE
*****
 29 32 0 0 0
SMALL
GASTEIGER

@<TRIPOS>ATOM
      1 C         -18.0538   -4.6698   19.3354 C.ar    1  UNL1        0.0338
      2 C         -18.9912   -5.8001   19.6416 C.ar    1  UNL1        0.1336
      3 O         -20.4640   -5.5416   19.7610 O.3     1  UNL1       -0.5055
      4 C         -18.4559   -7.1888   19.8285 C.ar    1  UNL1        0.0366
      5 C         -16.9832   -7.4472   19.7091 C.ar    1  UNL1        0.0031
      6 C         -16.0457   -6.3170   19.4029 C.ar    1  UNL1        0.0002
      7 C         -14.5730   -6.5754   19.2835 C.ar    1  UNL1        0.0000
      8 C         -13.6356   -5.4452   18.9773 C.ar    1  UNL1        0.0001
      9 C         -14.1709   -4.0565   18.7904 C.ar    1  UNL1        0.0000
     10 C         -15.6437   -3.7980   18.9098 C.ar    1  UNL1        0.0001
     11 C         -16.5810   -4.9283   19.2160 C.ar    1  UNL1        0.0029
     12 H         -20.7984   -4.6742   19.6442 H       1  UNL1        0.2922
     13 N         -19.2308   -0.0002   21.2872 N.pl3   1  UNL1       -0.3570
     14 C         -19.1776   -0.9463   20.1244 C.ar    1  UNL1        0.0415
     15 C         -19.6598   -0.5037   18.7748 C.ar    1  UNL1        0.0141
     16 C         -19.6066   -1.4498   17.6119 C.ar    1  UNL1        0.0013
     17 C         -19.0713   -2.8385   17.7988 C.ar    1  UNL1        0.0002
     18 C         -18.5891   -3.2811   19.1485 C.ar    1  UNL1        0.0041
     19 C         -18.6423   -2.3350   20.3113 C.ar    1  UNL1        0.0142
     20 H         -19.5821    0.9112   21.1646 H       1  UNL1        0.1424
     21 H         -18.9143   -0.2908   22.1731 H       1  UNL1        0.1424
     22 C         -12.1628   -5.7036   18.8579 C.ar    1  UNL1        0.0030
     23 C         -11.1861   -4.5829   19.0581 C.ar    1  UNL1        0.0002
     24 C          -9.7134   -4.8413   18.9387 C.ar    1  UNL1        0.0031
     25 C          -9.2173   -6.2204   18.6192 C.ar    1  UNL1        0.0366
     26 C         -10.1940   -7.3411   18.4191 C.ar    1  UNL1        0.1337
     27 O          -9.6980   -8.7202   18.0996 O.3     1  UNL1       -0.5055
     28 C         -11.6668   -7.0827   18.5384 C.ar    1  UNL1        0.0366
     29 H          -8.7781   -8.8816   18.0250 H       1  UNL1        0.2922
@<TRIPOS>BOND
     1    13    14    1
     2    14    15   ar
     3    15    16   ar
     4    16    17   ar
     5    17    18   ar
     6    18     1    1
     7     1     2   ar
     8     2     3    1
     9     2     4   ar
    10     4     5   ar
    11     5     6   ar
    12     6     7   ar
    13     7     8   ar
    14     8    22    1
    15    22    23   ar
    16    23    24   ar
    17    24    25   ar
    18    25    26   ar
    19    26    27    1
    20    26    28   ar
    21     8     9   ar
    22     9    10   ar
    23    10    11   ar
    24    18    19   ar
    25    19    14   ar
    26    11     1   ar
    27    11     6   ar
    28    28    22   ar
    29    13    20    1
    30    13    21    1
    31     3    12    1
    32    27    29    1
@<TRIPOS>MOLECULE
*****
 29 32 0 0 0
SMALL
GASTEIGER

@<TRIPOS>ATOM
      1 C          -5.2454  -17.7646   22.4655 C.ar    1  UNL1        0.0338
      2 C          -4.4118  -16.8508   23.3140 C.ar    1  UNL1        0.1336
      3 O          -2.9247  -16.7993   23.1235 O.3     1  UNL1       -0.5055
      4 C          -5.0651  -15.9883   24.3529 C.ar    1  UNL1        0.0366
      5 C          -6.5520  -16.0397   24.5433 C.ar    1  UNL1        0.0031
      6 C          -7.3857  -16.9536   23.6949 C.ar    1  UNL1        0.0002
      7 C          -8.8727  -17.0050   23.8853 C.ar    1  UNL1        0.0000
      8 C          -9.7063  -17.9189   23.0369 C.ar    1  UNL1        0.0001
      9 C          -9.0529  -18.7813   21.9979 C.ar    1  UNL1        0.0000
     10 C          -7.5660  -18.7299   21.8075 C.ar    1  UNL1        0.0001
     11 C          -6.7324  -17.8161   22.6559 C.ar    1  UNL1        0.0029
     12 H          -2.5166  -17.3380   22.4745 H       1  UNL1        0.2922
     13 N          -1.7196  -18.3831   18.6990 N.pl3   1  UNL1       -0.3570
     14 C          -2.8292  -18.9364   19.5434 C.ar    1  UNL1        0.0415
     15 C          -3.2854  -20.3520   19.3488 C.ar    1  UNL1        0.0141
     16 C          -4.3950  -20.9052   20.1931 C.ar    1  UNL1        0.0013
     17 C          -5.0483  -20.0427   21.2320 C.ar    1  UNL1        0.0002
     18 C          -4.5920  -18.6271   21.4266 C.ar    1  UNL1        0.0041
     19 C          -3.4825  -18.0739   20.5823 C.ar    1  UNL1        0.0142
     20 H          -1.2907  -18.9492   18.0172 H       1  UNL1        0.1424
     21 H          -1.4201  -17.4540   18.8268 H       1  UNL1        0.1424
     22 C         -11.1933  -17.9703   23.2273 C.ar    1  UNL1        0.0030
     23 C         -12.1074  -17.6100   22.0940 C.ar    1  UNL1        0.0002
     24 C         -13.5944  -17.6614   22.2843 C.ar    1  UNL1        0.0031
     25 C         -14.1673  -18.0732   23.6081 C.ar    1  UNL1        0.0366
     26 C         -13.2531  -18.4336   24.7415 C.ar    1  UNL1        0.1337
     27 O         -13.8259  -18.8454   26.0652 O.3     1  UNL1       -0.5055
     28 C         -11.7661  -18.3821   24.5510 C.ar    1  UNL1        0.0366
     29 H         -14.7548  -18.8775   26.1841 H       1  UNL1        0.2922
@<TRIPOS>BOND
     1    13    14    1
     2    14    15   ar
     3    15    16   ar
     4    16    17   ar
     5    17    18   ar
     6    18     1    1
     7     1     2   ar
     8     2     3    1
     9     2     4   ar
    10     4     5   ar
    11     5     6   ar
    12     6     7   ar
    13     7     8   ar
    14     8    22    1
    15    22    23   ar
    16    23    24   ar
    17    24    25   ar
    18    25    26   ar
    19    26    27    1
    20    26    28   ar
    21     8     9   ar
    22     9    10   ar
    23    10    11   ar
    24    18    19   ar
    25    19    14   ar
    26    11     1   ar
    27    11     6   ar
    28    28    22   ar
    29    13    20    1
    30    13    21    1
    31     3    12    1
    32    27    29    1
@<TRIPOS>MOLECULE
*****
 29 32 0 0 0
SMALL
GASTEIGER

@<TRIPOS>ATOM
      1 C          -8.7505  -19.0940   21.7303 C.ar    1  UNL1        0.0338
      2 C          -9.7790  -19.4882   20.7121 C.ar    1  UNL1        0.1336
      3 O         -11.2179  -19.6243   21.1135 O.3     1  UNL1       -0.5055
      4 C          -9.3687  -19.7463   19.2926 C.ar    1  UNL1        0.0366
      5 C          -7.9298  -19.6101   18.8912 C.ar    1  UNL1        0.0031
      6 C          -6.9012  -19.2160   19.9094 C.ar    1  UNL1        0.0002
      7 C          -5.4623  -19.0799   19.5081 C.ar    1  UNL1        0.0000
      8 C          -4.4338  -18.6857   20.5262 C.ar    1  UNL1        0.0001
      9 C          -4.8441  -18.4276   21.9458 C.ar    1  UNL1        0.0000
     10 C          -6.2830  -18.5637   22.3471 C.ar    1  UNL1        0.0001
     11 C          -7.3115  -18.9579   21.3290 C.ar    1  UNL1        0.0029
     12 H         -11.4743  -19.4631   22.0002 H       1  UNL1        0.2922
     13 N          -8.9496  -15.9392   25.8543 N.pl3   1  UNL1       -0.3570
     14 C          -9.2603  -17.2586   25.2118 C.ar    1  UNL1        0.0415
     15 C          -9.9814  -18.3198   25.9888 C.ar    1  UNL1        0.0141
     16 C         -10.2922  -19.6392   25.3464 C.ar    1  UNL1        0.0013
     17 C          -9.8819  -19.8973   23.9268 C.ar    1  UNL1        0.0002
     18 C          -9.1608  -18.8360   23.1498 C.ar    1  UNL1        0.0041
     19 C          -8.8500  -17.5167   23.7923 C.ar    1  UNL1        0.0142
     20 H          -9.2189  -15.7698   26.7860 H       1  UNL1        0.1424
     21 H          -8.4763  -15.2427   25.3443 H       1  UNL1        0.1424
     22 C          -2.9949  -18.5496   20.1249 C.ar    1  UNL1        0.0030
     23 C          -1.9105  -18.7497   21.1418 C.ar    1  UNL1        0.0002
     24 C          -0.4716  -18.6136   20.7406 C.ar    1  UNL1        0.0031
     25 C          -0.1170  -18.2773   19.3223 C.ar    1  UNL1        0.0366
     26 C          -1.2014  -18.0772   18.3054 C.ar    1  UNL1        0.1337
     27 O          -0.8469  -17.7410   16.8873 O.3     1  UNL1       -0.5055
     28 C          -2.6404  -18.2133   18.7068 C.ar    1  UNL1        0.0366
     29 H           0.0519  -17.6559   16.6366 H       1  UNL1        0.2922
@<TRIPOS>BOND
     1    13    14    1
     2    14    15   ar
     3    15    16   ar
     4    16    17   ar
     5    17    18   ar
     6    18     1    1
     7     1     2   ar
     8     2     3    1
     9     2     4   ar
    10     4     5   ar
    11     5     6   ar
    12     6     7   ar
    13     7     8   ar
    14     8    22    1
    15    22    23   ar
    16    23    24   ar
    17    24    25   ar
    18    25    26   ar
    19    26    27    1
    20    26    28   ar
    21     8     9   ar
    22     9    10   ar
    23    10    11   ar
    24    18    19   ar
    25    19    14   ar
    26    11     1   ar
    27    11     6   ar
    28    28    22   ar
    29    13    20    1
    30    13    21    1
    31     3    12    1
    32    27    29    1
@<TRIPOS>MOLECULE
*****
 29 32 0 0 0
SMALL
GASTEIGER

@<TRIPOS>ATOM
      1 C         -15.5193   -6.8632   19.0108 C.ar    1  UNL1        0.0338
      2 C         -14.1944   -7.5663   19.0112 C.ar    1  UNL1        0.1336
      3 O         -14.1381   -9.0606   18.8916 O.3     1  UNL1       -0.5055
      4 C         -12.9256   -6.7753   19.1311 C.ar    1  UNL1        0.0366
      5 C         -12.9817   -5.2811   19.2508 C.ar    1  UNL1        0.0031
      6 C         -14.3068   -4.5780   19.2504 C.ar    1  UNL1        0.0002
      7 C         -14.3629   -3.0838   19.3700 C.ar    1  UNL1        0.0000
      8 C         -15.6879   -2.3808   19.3697 C.ar    1  UNL1        0.0001
      9 C         -16.9567   -3.1718   19.2497 C.ar    1  UNL1        0.0000
     10 C         -16.9005   -4.6659   19.1301 C.ar    1  UNL1        0.0001
     11 C         -15.5756   -5.3690   19.1305 C.ar    1  UNL1        0.0029
     12 H         -14.9307   -9.5547   18.8166 H       1  UNL1        0.2922
     13 N         -19.1493   -9.1267   16.0612 N.pl3   1  UNL1       -0.3570
     14 C         -18.6031   -8.7860   17.4161 C.ar    1  UNL1        0.0415
     15 C         -19.3257   -9.2364   18.6510 C.ar    1  UNL1        0.0141
     16 C         -18.7796   -8.8957   20.0059 C.ar    1  UNL1        0.0013
     17 C         -17.5108   -8.1047   20.1259 C.ar    1  UNL1        0.0002
     18 C         -16.7881   -7.6543   18.8909 C.ar    1  UNL1        0.0041
     19 C         -17.3343   -7.9950   17.5361 C.ar    1  UNL1        0.0142
     20 H         -19.9820   -9.6459   15.9825 H       1  UNL1        0.1424
     21 H         -18.6750   -8.8311   15.2507 H       1  UNL1        0.1424
     22 C         -15.7442   -0.8865   19.4893 C.ar    1  UNL1        0.0030
     23 C         -16.8022   -0.2411   20.3343 C.ar    1  UNL1        0.0002
     24 C         -16.8585    1.2530   20.4539 C.ar    1  UNL1        0.0031
     25 C         -15.8567    2.1018   19.7286 C.ar    1  UNL1        0.0366
     26 C         -14.7986    1.4564   18.8836 C.ar    1  UNL1        0.1337
     27 O         -13.7969    2.3051   18.1582 O.3     1  UNL1       -0.5055
     28 C         -14.7424   -0.0379   18.7640 C.ar    1  UNL1        0.0366
     29 H         -13.8320    3.2384   18.2330 H       1  UNL1        0.2922
@<TRIPOS>BOND
     1    13    14    1
     2    14    15   ar
     3    15    16   ar
     4    16    17   ar
     5    17    18   ar
     6    18     1    1
     7     1     2   ar
     8     2     3    1
     9     2     4   ar
    10     4     5   ar
    11     5     6   ar
    12     6     7   ar
    13     7     8   ar
    14     8    22    1
    15    22    23   ar
    16    23    24   ar
    17    24    25   ar
    18    25    26   ar
    19    26    27    1
    20    26    28   ar
    21     8     9   ar
    22     9    10   ar
    23    10    11   ar
    24    18    19   ar
    25    19    14   ar
    26    11     1   ar
    27    11     6   ar
    28    28    22   ar
    29    13    20    1
    30    13    21    1
    31     3    12    1
    32    27    29    1
@<TRIPOS>MOLECULE
*****
 29 32 0 0 0
SMALL
GASTEIGER

@<TRIPOS>ATOM
      1 C         -14.3125   -6.5889   18.7466 C.ar    1  UNL1        0.0338
      2 C         -15.3545   -7.6011   19.1201 C.ar    1  UNL1        0.1336
      3 O         -15.0707   -9.0650   18.9568 O.3     1  UNL1       -0.5055
      4 C         -16.6803   -7.1495   19.6570 C.ar    1  UNL1        0.0366
      5 C         -16.9641   -5.6858   19.8204 C.ar    1  UNL1        0.0031
      6 C         -15.9221   -4.6734   19.4468 C.ar    1  UNL1        0.0002
      7 C         -16.2059   -3.2097   19.6102 C.ar    1  UNL1        0.0000
      8 C         -15.1639   -2.1974   19.2366 C.ar    1  UNL1        0.0001
      9 C         -13.8381   -2.6490   18.6997 C.ar    1  UNL1        0.0000
     10 C         -13.5543   -4.1128   18.5364 C.ar    1  UNL1        0.0001
     11 C         -14.5963   -5.1250   18.9099 C.ar    1  UNL1        0.0029
     12 H         -14.2425   -9.3471   18.6214 H       1  UNL1        0.2922
     13 N          -9.2325   -7.4387   19.4336 N.pl3   1  UNL1       -0.3570
     14 C         -10.4467   -7.4653   18.5531 C.ar    1  UNL1        0.0415
     15 C         -10.3350   -7.9436   17.1358 C.ar    1  UNL1        0.0141
     16 C         -11.5492   -7.9702   16.2554 C.ar    1  UNL1        0.0013
     17 C         -12.8750   -7.5187   16.7923 C.ar    1  UNL1        0.0002
     18 C         -12.9867   -7.0404   18.2096 C.ar    1  UNL1        0.0041
     19 C         -11.7725   -7.0138   19.0900 C.ar    1  UNL1        0.0142
     20 H          -8.3623   -7.7350   19.0812 H       1  UNL1        0.1424
     21 H          -9.3058   -7.1248   20.3638 H       1  UNL1        0.1424
     22 C         -15.4477   -0.7336   19.4000 C.ar    1  UNL1        0.0030
     23 C         -16.5640   -0.2812   20.2941 C.ar    1  UNL1        0.0002
     24 C         -16.8478    1.1826   20.4574 C.ar    1  UNL1        0.0031
     25 C         -16.0153    2.1941   19.7267 C.ar    1  UNL1        0.0366
     26 C         -14.8991    1.7418   18.8326 C.ar    1  UNL1        0.1337
     27 O         -14.0667    2.7532   18.1019 O.3     1  UNL1       -0.5055
     28 C         -14.6153    0.2779   18.6693 C.ar    1  UNL1        0.0366
     29 H         -14.2439    3.6676   18.2039 H       1  UNL1        0.2922
@<TRIPOS>BOND
     1    13    14    1
     2    14    15   ar
     3    15    16   ar
     4    16    17   ar
     5    17    18   ar
     6    18     1    1
     7     1     2   ar
     8     2     3    1
     9     2     4   ar
    10     4     5   ar
    11     5     6   ar
    12     6     7   ar
    13     7     8   ar
    14     8    22    1
    15    22    23   ar
    16    23    24   ar
    17    24    25   ar
    18    25    26   ar
    19    26    27    1
    20    26    28   ar
    21     8     9   ar
    22     9    10   ar
    23    10    11   ar
    24    18    19   ar
    25    19    14   ar
    26    11     1   ar
    27    11     6   ar
    28    28    22   ar
    29    13    20    1
    30    13    21    1
    31     3    12    1
    32    27    29    1
@<TRIPOS>MOLECULE
*****
 29 32 0 0 0
SMALL
GASTEIGER

@<TRIPOS>ATOM
      1 C           0.2695    2.0716   24.3503 C.ar    1  UNL1        0.0338
      2 C          -0.7666    3.0515   23.8853 C.ar    1  UNL1        0.1336
      3 O          -1.5187    3.8790   24.8852 O.3     1  UNL1       -0.5055
      4 C          -1.0507    3.2040   22.4203 C.ar    1  UNL1        0.0366
      5 C          -0.2987    2.3766   21.4204 C.ar    1  UNL1        0.0031
      6 C           0.7375    1.3966   21.8854 C.ar    1  UNL1        0.0002
      7 C           1.4895    0.5692   20.8855 C.ar    1  UNL1        0.0000
      8 C           2.5256   -0.4107   21.3506 C.ar    1  UNL1        0.0001
      9 C           2.8097   -0.5631   22.8155 C.ar    1  UNL1        0.0000
     10 C           2.0577    0.2643   23.8154 C.ar    1  UNL1        0.0001
     11 C           1.0216    1.2442   23.3504 C.ar    1  UNL1        0.0029
     12 H          -1.3412    3.7837   25.8003 H       1  UNL1        0.2922
     13 N          -0.8331   -0.0851   28.9474 N.pl3   1  UNL1       -0.3570
     14 C           0.0023    0.8408   28.1138 C.ar    1  UNL1        0.0415
     15 C           1.1218    1.6142   28.7451 C.ar    1  UNL1        0.0141
     16 C           1.9572    2.5401   27.9115 C.ar    1  UNL1        0.0013
     17 C           1.6731    2.6926   26.4466 C.ar    1  UNL1        0.0002
     18 C           0.5536    1.9192   25.8152 C.ar    1  UNL1        0.0041
     19 C          -0.2818    0.9933   26.6488 C.ar    1  UNL1        0.0142
     20 H          -0.6467   -0.1852   29.9089 H       1  UNL1        0.1424
     21 H          -1.5679   -0.5927   28.5330 H       1  UNL1        0.1424
     22 C           3.2776   -1.2381   20.3507 C.ar    1  UNL1        0.0030
     23 C           4.0724   -2.4259   20.8063 C.ar    1  UNL1        0.0002
     24 C           4.8245   -3.2533   19.8064 C.ar    1  UNL1        0.0031
     25 C           4.7818   -2.8931   18.3509 C.ar    1  UNL1        0.0366
     26 C           3.9870   -1.7053   17.8953 C.ar    1  UNL1        0.1337
     27 O           3.9443   -1.3450   16.4399 O.3     1  UNL1       -0.5055
     28 C           3.2349   -0.8778   18.8952 C.ar    1  UNL1        0.0366
     29 H           4.4140   -1.8619   15.8153 H       1  UNL1        0.2922
@<TRIPOS>BOND
     1    13    14    1
     2    14    15   ar
     3    15    16   ar
     4    16    17   ar
     5    17    18   ar
     6    18     1    1
     7     1     2   ar
     8     2     3    1
     9     2     4   ar
    10     4     5   ar
    11     5     6   ar
    12     6     7   ar
    13     7     8   ar
    14     8    22    1
    15    22    23   ar
    16    23    24   ar
    17    24    25   ar
    18    25    26   ar
    19    26    27    1
    20    26    28   ar
    21     8     9   ar
    22     9    10   ar
    23    10    11   ar
    24    18    19   ar
    25    19    14   ar
    26    11     1   ar
    27    11     6   ar
    28    28    22   ar
    29    13    20    1
    30    13    21    1
    31     3    12    1
    32    27    29    1
