@<TRIPOS>MOLECULE
*****
 38 42 0 0 0
SMALL
GASTEIGER

@<TRIPOS>ATOM
      1 N           7.6044   -3.1259   26.3595 N.ar    1  UNL1       -0.2986
      2 C           7.9325   -4.2044   27.3492 C.ar    1  UNL1        0.1245
      3 C           8.2980   -5.4410   26.5830 C.ar    1  UNL1        0.1157
      4 C           8.1957   -5.1269   25.1198 C.ar    1  UNL1        0.0967
      5 C           7.7671   -3.6961   24.9817 C.ar    1  UNL1        0.1354
      6 C           7.5803   -3.0973   23.6192 C.ar    1  UNL1        0.2819
      7 O           7.1516   -1.6665   23.4811 O.2     1  UNL1       -0.2652
      8 N           7.8221   -3.9293   22.3947 N.ar    1  UNL1       -0.2417
      9 C           8.2508   -5.3601   22.5328 C.ar    1  UNL1        0.3342
     10 O           8.4926   -6.1921   21.3084 O.2     1  UNL1       -0.2462
     11 N           8.4376   -5.9589   23.8953 N.ar    1  UNL1       -0.2770
     12 C           8.8662   -7.3897   24.0334 C.3     1  UNL1        0.1351
     13 N           7.9007   -4.0697   28.8428 N.pl3   1  UNL1       -0.2926
     14 C           8.5715   -2.9029   29.5051 C.3     1  UNL1        0.0922
     15 C           8.5396   -2.7683   30.9987 C.3     1  UNL1        0.0229
     16 C           7.8371   -3.8005   31.8300 C.3     1  UNL1        0.0190
     17 C           7.1663   -4.9672   31.1677 C.3     1  UNL1        0.0709
     18 N           6.4637   -5.9994   31.9990 N.3     1  UNL1       -0.3208
     19 C           7.1981   -5.1018   29.6741 C.3     1  UNL1        0.1075
     20 H           6.5410   -5.7516   32.9854 H       1  UNL1        0.1189
     21 H           6.8930   -6.9114   31.8428 H       1  UNL1        0.1189
     22 C           8.6958   -6.7602   27.1758 C.1     1  UNL1        0.1047
     23 N           9.0936   -8.0794   27.7688 N.1     1  UNL1       -0.1907
     24 C           7.1869   -1.7236   26.6897 C.3     1  UNL1        0.1842
     25 C           2.9866   -0.8936   28.0752 C.3     1  UNL1        0.0900
     26 C           4.3867   -1.1703   27.6134 C.1     1  UNL1       -0.0881
     27 C           5.7868   -1.4469   27.1515 C.1     1  UNL1       -0.0656
     28 C           7.6353   -3.3305   21.0322 C.3     1  UNL1        0.1593
     29 C           6.2873   -3.3671   20.3752 C.ar    1  UNL1        0.0821
     30 N           5.2845   -4.4072   20.7784 N.ar    1  UNL1       -0.2462
     31 C           3.9365   -4.4438   20.1214 C.ar    1  UNL1        0.0985
     32 C           3.5914   -3.4404   19.0612 C.ar    1  UNL1        0.0207
     33 C           4.5942   -2.4003   18.6580 C.ar    1  UNL1        0.0027
     34 C           4.2491   -1.3969   17.5978 C.ar    1  UNL1        0.0001
     35 C           5.2519   -0.3569   17.1946 C.ar    1  UNL1        0.0000
     36 C           6.5999   -0.3202   17.8516 C.ar    1  UNL1        0.0000
     37 C           6.9450   -1.3236   18.9118 C.ar    1  UNL1        0.0012
     38 C           5.9422   -2.3637   19.3150 C.ar    1  UNL1        0.0155
@<TRIPOS>BOND
     1    25    26    1
     2    26    27    3
     3    27    24    1
     4    24     1    1
     5     1     2   ar
     6     2    13    1
     7    13    14    1
     8    14    15    1
     9    15    16    1
    10    16    17    1
    11    17    18    1
    12    17    19    1
    13     2     3   ar
    14     3    22    1
    15    22    23    3
    16     3     4   ar
    17     4     5   ar
    18     5     6   ar
    19     6     7    2
    20     6     8   ar
    21     8    28    1
    22    28    29    1
    23    29    30   ar
    24    30    31   ar
    25    31    32   ar
    26    32    33   ar
    27    33    34   ar
    28    34    35   ar
    29    35    36   ar
    30    36    37   ar
    31    37    38   ar
    32     8     9   ar
    33     9    10    2
    34     9    11   ar
    35    11    12    1
    36     5     1   ar
    37    38    29   ar
    38    19    13    1
    39    11     4   ar
    40    38    33   ar
    41    18    20    1
    42    18    21    1
@<TRIPOS>MOLECULE
*****
 38 42 0 0 0
SMALL
GASTEIGER

@<TRIPOS>ATOM
      1 N           2.8890    0.1184   19.7943 N.ar    1  UNL1       -0.2986
      2 C           4.2304    0.4736   19.2247 C.ar    1  UNL1        0.1245
      3 C           4.1516    1.8733   18.6913 C.ar    1  UNL1        0.1157
      4 C           2.7615    2.3832   18.9312 C.ar    1  UNL1        0.0967
      5 C           1.9812    1.2986   19.6129 C.ar    1  UNL1        0.1354
      6 C           0.5447    1.5258   19.9804 C.ar    1  UNL1        0.2819
      7 O          -0.2356    0.4412   20.6621 O.2     1  UNL1       -0.2652
      8 N          -0.1114    2.8376   19.6662 N.ar    1  UNL1       -0.2417
      9 C           0.6690    3.9222   18.9845 C.ar    1  UNL1        0.3342
     10 O           0.0129    5.2340   18.6702 O.2     1  UNL1       -0.2462
     11 N           2.1054    3.6950   18.6170 N.ar    1  UNL1       -0.2770
     12 C           2.8857    4.7796   17.9353 C.3     1  UNL1        0.1351
     13 N           5.4386   -0.4150   19.1940 N.pl3   1  UNL1       -0.2926
     14 C           5.7961   -1.1515   17.9372 C.3     1  UNL1        0.0922
     15 C           7.0042   -2.0400   17.9065 C.3     1  UNL1        0.0229
     16 C           7.8548   -2.1920   19.1326 C.3     1  UNL1        0.0190
     17 C           7.4972   -1.4555   20.3895 C.3     1  UNL1        0.0709
     18 N           8.3478   -1.6076   21.6156 N.3     1  UNL1       -0.3208
     19 C           6.2891   -0.5670   20.4201 C.3     1  UNL1        0.1075
     20 H           9.1201   -2.2435   21.4169 H       1  UNL1        0.1189
     21 H           7.7832   -1.9856   22.3763 H       1  UNL1        0.1189
     22 C           5.2671    2.6303   18.0335 C.1     1  UNL1        0.1047
     23 N           6.3825    3.3874   17.3756 N.1     1  UNL1       -0.1907
     24 C           2.5202   -1.1877   20.4332 C.3     1  UNL1        0.1842
     25 C           4.2895   -5.0265   18.8894 C.3     1  UNL1        0.0900
     26 C           3.6998   -3.7469   19.4040 C.1     1  UNL1       -0.0881
     27 C           3.1099   -2.4673   19.9186 C.1     1  UNL1       -0.0656
     28 C          -1.5478    3.0648   20.0337 C.3     1  UNL1        0.1593
     29 C          -1.9304    3.2764   21.4685 C.ar    1  UNL1        0.0821
     30 N          -0.8791    3.2434   22.5378 N.ar    1  UNL1       -0.2462
     31 C          -1.2617    3.4551   23.9727 C.ar    1  UNL1        0.0985
     32 C          -2.6958    3.6997   24.3382 C.ar    1  UNL1        0.0207
     33 C          -3.7472    3.7327   23.2689 C.ar    1  UNL1        0.0027
     34 C          -5.1813    3.9773   23.6344 C.ar    1  UNL1        0.0001
     35 C          -6.2326    4.0103   22.5651 C.ar    1  UNL1        0.0000
     36 C          -5.8500    3.7987   21.1302 C.ar    1  UNL1        0.0000
     37 C          -4.4159    3.5541   20.7647 C.ar    1  UNL1        0.0012
     38 C          -3.3646    3.5211   21.8340 C.ar    1  UNL1        0.0155
@<TRIPOS>BOND
     1    25    26    1
     2    26    27    3
     3    27    24    1
     4    24     1    1
     5     1     2   ar
     6     2    13    1
     7    13    14    1
     8    14    15    1
     9    15    16    1
    10    16    17    1
    11    17    18    1
    12    17    19    1
    13     2     3   ar
    14     3    22    1
    15    22    23    3
    16     3     4   ar
    17     4     5   ar
    18     5     6   ar
    19     6     7    2
    20     6     8   ar
    21     8    28    1
    22    28    29    1
    23    29    30   ar
    24    30    31   ar
    25    31    32   ar
    26    32    33   ar
    27    33    34   ar
    28    34    35   ar
    29    35    36   ar
    30    36    37   ar
    31    37    38   ar
    32     8     9   ar
    33     9    10    2
    34     9    11   ar
    35    11    12    1
    36     5     1   ar
    37    38    29   ar
    38    19    13    1
    39    11     4   ar
    40    38    33   ar
    41    18    20    1
    42    18    21    1
@<TRIPOS>MOLECULE
*****
 38 42 0 0 0
SMALL
GASTEIGER

@<TRIPOS>ATOM
      1 N           2.6071    0.2256   19.9141 N.ar    1  UNL1       -0.2986
      2 C           3.3184   -0.6632   20.8909 C.ar    1  UNL1        0.1245
      3 C           2.8648   -0.2914   22.2714 C.ar    1  UNL1        0.1157
      4 C           1.8731    0.8272   22.1479 C.ar    1  UNL1        0.0967
      5 C           1.7138    1.1467   20.6910 C.ar    1  UNL1        0.1354
      6 C           0.7760    2.2351   20.2600 C.ar    1  UNL1        0.2819
      7 O           0.6167    2.5546   18.8031 O.2     1  UNL1       -0.2652
      8 N          -0.0026    3.0041   21.2859 N.ar    1  UNL1       -0.2417
      9 C           0.1566    2.6846   22.7428 C.ar    1  UNL1        0.3342
     10 O          -0.6220    3.4535   23.7688 O.2     1  UNL1       -0.2462
     11 N           1.0945    1.5961   23.1738 N.ar    1  UNL1       -0.2770
     12 C           1.2537    1.2767   24.6307 C.3     1  UNL1        0.1351
     13 N           4.3095   -1.7356   20.5473 N.pl3   1  UNL1       -0.2926
     14 C           5.7799   -1.4474   20.6147 C.3     1  UNL1        0.0922
     15 C           6.7709   -2.5197   20.2712 C.3     1  UNL1        0.0229
     16 C           6.2913   -3.8803   19.8603 C.3     1  UNL1        0.0190
     17 C           4.8209   -4.1685   19.7929 C.3     1  UNL1        0.0709
     18 N           4.3413   -5.5291   19.3821 N.3     1  UNL1       -0.3208
     19 C           3.8299   -3.0962   20.1365 C.3     1  UNL1        0.1075
     20 H           5.1437   -6.1278   19.1867 H       1  UNL1        0.1189
     21 H           3.7656   -5.4480   18.5440 H       1  UNL1        0.1189
     22 C           3.3224   -0.9266   23.5509 C.1     1  UNL1        0.1047
     23 N           3.7800   -1.5618   24.8304 N.1     1  UNL1       -0.1907
     24 C           2.7619    0.1981   18.4224 C.3     1  UNL1        0.1842
     25 C           6.8255    0.7557   16.5712 C.3     1  UNL1        0.0900
     26 C           5.4709    0.5699   17.1883 C.1     1  UNL1       -0.0881
     27 C           4.1164    0.3839   17.8053 C.1     1  UNL1       -0.0656
     28 C          -0.9405    4.0925   20.8549 C.3     1  UNL1        0.1593
     29 C          -2.3936    3.7889   20.6400 C.ar    1  UNL1        0.0821
     30 N          -3.2476    3.3538   21.7938 N.ar    1  UNL1       -0.2462
     31 C          -4.7007    3.0502   21.5789 C.ar    1  UNL1        0.0985
     32 C          -5.2999    3.1817   20.2101 C.ar    1  UNL1        0.0207
     33 C          -4.4459    3.6168   19.0561 C.ar    1  UNL1        0.0027
     34 C          -5.0451    3.7482   17.6873 C.ar    1  UNL1        0.0001
     35 C          -4.1911    4.1833   16.5335 C.ar    1  UNL1        0.0000
     36 C          -2.7380    4.4869   16.7484 C.ar    1  UNL1        0.0000
     37 C          -2.1388    4.3555   18.1172 C.ar    1  UNL1        0.0012
     38 C          -2.9928    3.9204   19.2711 C.ar    1  UNL1        0.0155
@<TRIPOS>BOND
     1    25    26    1
     2    26    27    3
     3    27    24    1
     4    24     1    1
     5     1     2   ar
     6     2    13    1
     7    13    14    1
     8    14    15    1
     9    15    16    1
    10    16    17    1
    11    17    18    1
    12    17    19    1
    13     2     3   ar
    14     3    22    1
    15    22    23    3
    16     3     4   ar
    17     4     5   ar
    18     5     6   ar
    19     6     7    2
    20     6     8   ar
    21     8    28    1
    22    28    29    1
    23    29    30   ar
    24    30    31   ar
    25    31    32   ar
    26    32    33   ar
    27    33    34   ar
    28    34    35   ar
    29    35    36   ar
    30    36    37   ar
    31    37    38   ar
    32     8     9   ar
    33     9    10    2
    34     9    11   ar
    35    11    12    1
    36     5     1   ar
    37    38    29   ar
    38    19    13    1
    39    11     4   ar
    40    38    33   ar
    41    18    20    1
    42    18    21    1
@<TRIPOS>MOLECULE
*****
 38 42 0 0 0
SMALL
GASTEIGER

@<TRIPOS>ATOM
      1 N           5.0637   -1.7411   25.7601 N.ar    1  UNL1       -0.2986
      2 C           6.1834   -2.2443   26.6221 C.ar    1  UNL1        0.1245
      3 C           7.0287   -3.1653   25.7931 C.ar    1  UNL1        0.1157
      4 C           6.4314   -3.2313   24.4188 C.ar    1  UNL1        0.0967
      5 C           5.2170   -2.3511   24.3984 C.ar    1  UNL1        0.1354
      6 C           4.4076   -2.2188   23.1424 C.ar    1  UNL1        0.2819
      7 O           3.1932   -1.3386   23.1221 O.2     1  UNL1       -0.2652
      8 N           4.8126   -2.9667   21.9069 N.ar    1  UNL1       -0.2417
      9 C           6.0271   -3.8469   21.9273 C.ar    1  UNL1        0.3342
     10 O           6.4321   -4.5948   20.6917 O.2     1  UNL1       -0.2462
     11 N           6.8364   -3.9792   23.1832 N.ar    1  UNL1       -0.2770
     12 C           8.0508   -4.8594   23.2036 C.3     1  UNL1        0.1351
     13 N           6.4169   -1.8888   28.0607 N.pl3   1  UNL1       -0.2926
     14 C           6.9421   -0.5311   28.4220 C.3     1  UNL1        0.0922
     15 C           7.1755   -0.1757   29.8605 C.3     1  UNL1        0.0229
     16 C           6.8837   -1.1781   30.9375 C.3     1  UNL1        0.0190
     17 C           6.3585   -2.5358   30.5762 C.3     1  UNL1        0.0709
     18 N           6.0666   -3.5382   31.6533 N.3     1  UNL1       -0.3208
     19 C           6.1251   -2.8912   29.1377 C.3     1  UNL1        0.1075
     20 H           6.2813   -3.1313   32.5636 H       1  UNL1        0.1189
     21 H           6.6400   -4.3693   31.5086 H       1  UNL1        0.1189
     22 C           8.2558   -3.8926   26.2570 C.1     1  UNL1        0.1047
     23 N           9.4830   -4.6198   26.7209 N.1     1  UNL1       -0.1907
     24 C           3.9809   -0.7942   26.1852 C.3     1  UNL1        0.1842
     25 C           2.6380   -0.6932   30.4791 C.3     1  UNL1        0.0900
     26 C           3.0856   -0.7268   29.0478 C.1     1  UNL1       -0.0881
     27 C           3.5332   -0.7605   27.6165 C.1     1  UNL1       -0.0656
     28 C           4.0032   -2.8344   20.6510 C.3     1  UNL1        0.1593
     29 C           4.2133   -1.6585   19.7437 C.ar    1  UNL1        0.0821
     30 N           5.5419   -1.4521   19.0789 N.ar    1  UNL1       -0.2462
     31 C           5.7520   -0.2762   18.1716 C.ar    1  UNL1        0.0985
     32 C           4.6334    0.6933   17.9292 C.ar    1  UNL1        0.0207
     33 C           3.3046    0.4869   18.5940 C.ar    1  UNL1        0.0027
     34 C           2.1861    1.4564   18.3516 C.ar    1  UNL1        0.0001
     35 C           0.8574    1.2499   19.0164 C.ar    1  UNL1        0.0000
     36 C           0.6474    0.0740   19.9237 C.ar    1  UNL1        0.0000
     37 C           1.7660   -0.8954   20.1661 C.ar    1  UNL1        0.0012
     38 C           3.0946   -0.6890   19.5013 C.ar    1  UNL1        0.0155
@<TRIPOS>BOND
     1    25    26    1
     2    26    27    3
     3    27    24    1
     4    24     1    1
     5     1     2   ar
     6     2    13    1
     7    13    14    1
     8    14    15    1
     9    15    16    1
    10    16    17    1
    11    17    18    1
    12    17    19    1
    13     2     3   ar
    14     3    22    1
    15    22    23    3
    16     3     4   ar
    17     4     5   ar
    18     5     6   ar
    19     6     7    2
    20     6     8   ar
    21     8    28    1
    22    28    29    1
    23    29    30   ar
    24    30    31   ar
    25    31    32   ar
    26    32    33   ar
    27    33    34   ar
    28    34    35   ar
    29    35    36   ar
    30    36    37   ar
    31    37    38   ar
    32     8     9   ar
    33     9    10    2
    34     9    11   ar
    35    11    12    1
    36     5     1   ar
    37    38    29   ar
    38    19    13    1
    39    11     4   ar
    40    38    33   ar
    41    18    20    1
    42    18    21    1
@<TRIPOS>MOLECULE
*****
 38 42 0 0 0
SMALL
GASTEIGER

@<TRIPOS>ATOM
      1 N           7.4494   -4.1157   26.3021 N.ar    1  UNL1       -0.2986
      2 C           6.9467   -3.4921   27.5704 C.ar    1  UNL1        0.1245
      3 C           5.8174   -2.5701   27.2176 C.ar    1  UNL1        0.1157
      4 C           5.6222   -2.6238   25.7313 C.ar    1  UNL1        0.0967
      5 C           6.6308   -3.5791   25.1656 C.ar    1  UNL1        0.1354
      6 C           6.6736   -3.8368   23.6885 C.ar    1  UNL1        0.2819
      7 O           7.6823   -4.7920   23.1228 O.2     1  UNL1       -0.2652
      8 N           5.7077   -3.1393   22.7771 N.ar    1  UNL1       -0.2417
      9 C           4.6990   -2.1841   23.3429 C.ar    1  UNL1        0.3342
     10 O           3.7331   -1.4866   22.4316 O.2     1  UNL1       -0.2462
     11 N           4.6562   -1.9264   24.8200 N.ar    1  UNL1       -0.2770
     12 C           3.6476   -0.9711   25.3857 C.3     1  UNL1        0.1351
     13 N           7.4797   -3.7460   28.9494 N.pl3   1  UNL1       -0.2926
     14 C           8.6666   -2.9764   29.4481 C.3     1  UNL1        0.0922
     15 C           9.1996   -3.2303   30.8270 C.3     1  UNL1        0.0229
     16 C           8.5456   -4.2539   31.7072 C.3     1  UNL1        0.0190
     17 C           7.3587   -5.0235   31.2084 C.3     1  UNL1        0.0709
     18 N           6.7047   -6.0471   32.0885 N.3     1  UNL1       -0.3208
     19 C           6.8257   -4.7696   29.8295 C.3     1  UNL1        0.1075
     20 H           7.1931   -6.0882   32.9831 H       1  UNL1        0.1189
     21 H           6.7459   -6.9605   31.6364 H       1  UNL1        0.1189
     22 C           5.0227   -1.7401   28.1817 C.1     1  UNL1        0.1047
     23 N           4.2279   -0.9100   29.1458 N.1     1  UNL1       -0.1907
     24 C           8.5735   -5.1026   26.1902 C.3     1  UNL1        0.1842
     25 C           7.9996   -9.3362   27.6037 C.3     1  UNL1        0.0900
     26 C           8.1909   -7.9250   27.1326 C.1     1  UNL1       -0.0881
     27 C           8.3822   -6.5138   26.6613 C.1     1  UNL1       -0.0656
     28 C           5.7505   -3.3971   21.3001 C.3     1  UNL1        0.1593
     29 C           6.5505   -2.4980   20.4047 C.ar    1  UNL1        0.0821
     30 N           8.0191   -2.3125   20.6468 N.ar    1  UNL1       -0.2462
     31 C           8.8191   -1.4134   19.7514 C.ar    1  UNL1        0.0985
     32 C           8.1505   -0.6999   18.6140 C.ar    1  UNL1        0.0207
     33 C           6.6818   -0.8855   18.3718 C.ar    1  UNL1        0.0027
     34 C           6.0132   -0.1720   17.2344 C.ar    1  UNL1        0.0001
     35 C           4.5446   -0.3576   16.9923 C.ar    1  UNL1        0.0000
     36 C           3.7446   -1.2567   17.8876 C.ar    1  UNL1        0.0000
     37 C           4.4132   -1.9701   19.0251 C.ar    1  UNL1        0.0012
     38 C           5.8818   -1.7846   19.2672 C.ar    1  UNL1        0.0155
@<TRIPOS>BOND
     1    25    26    1
     2    26    27    3
     3    27    24    1
     4    24     1    1
     5     1     2   ar
     6     2    13    1
     7    13    14    1
     8    14    15    1
     9    15    16    1
    10    16    17    1
    11    17    18    1
    12    17    19    1
    13     2     3   ar
    14     3    22    1
    15    22    23    3
    16     3     4   ar
    17     4     5   ar
    18     5     6   ar
    19     6     7    2
    20     6     8   ar
    21     8    28    1
    22    28    29    1
    23    29    30   ar
    24    30    31   ar
    25    31    32   ar
    26    32    33   ar
    27    33    34   ar
    28    34    35   ar
    29    35    36   ar
    30    36    37   ar
    31    37    38   ar
    32     8     9   ar
    33     9    10    2
    34     9    11   ar
    35    11    12    1
    36     5     1   ar
    37    38    29   ar
    38    19    13    1
    39    11     4   ar
    40    38    33   ar
    41    18    20    1
    42    18    21    1
@<TRIPOS>MOLECULE
*****
 38 42 0 0 0
SMALL
GASTEIGER

@<TRIPOS>ATOM
      1 N           6.6019   -3.3657   26.4515 N.ar    1  UNL1       -0.2986
      2 C           6.4388   -2.8193   27.8389 C.ar    1  UNL1        0.1245
      3 C           5.3597   -1.7780   27.8030 C.ar    1  UNL1        0.1157
      4 C           4.8559   -1.6808   26.3935 C.ar    1  UNL1        0.0967
      5 C           5.6236   -2.6621   25.5583 C.ar    1  UNL1        0.1354
      6 C           5.3327   -2.7882   24.0921 C.ar    1  UNL1        0.2819
      7 O           6.1004   -3.7695   23.2568 O.2     1  UNL1       -0.2652
      8 N           4.2741   -1.9330   23.4613 N.ar    1  UNL1       -0.2417
      9 C           3.5064   -0.9516   24.2966 C.ar    1  UNL1        0.3342
     10 O           2.4478   -0.0964   23.6658 O.2     1  UNL1       -0.2462
     11 N           3.7973   -0.8256   25.7627 N.ar    1  UNL1       -0.2770
     12 C           3.0297    0.1557   26.5979 C.3     1  UNL1        0.1351
     13 N           7.2179   -3.2403   29.0496 N.pl3   1  UNL1       -0.2926
     14 C           8.6224   -2.7512   29.2450 C.3     1  UNL1        0.0922
     15 C           9.4015   -3.1722   30.4557 C.3     1  UNL1        0.0229
     16 C           8.7761   -4.0824   31.4708 C.3     1  UNL1        0.0190
     17 C           7.3717   -4.5715   31.2754 C.3     1  UNL1        0.0709
     18 N           6.7464   -5.4816   32.2906 N.3     1  UNL1       -0.3208
     19 C           6.5926   -4.1505   30.0647 C.3     1  UNL1        0.1075
     20 H           7.4129   -5.6627   33.0411 H       1  UNL1        0.1189
     21 H           6.4888   -6.3622   31.8448 H       1  UNL1        0.1189
     22 C           4.8704   -0.9748   28.9715 C.1     1  UNL1        0.1047
     23 N           4.3809   -0.1716   30.1400 N.1     1  UNL1       -0.1907
     24 C           7.5727   -4.4291   26.0312 C.3     1  UNL1        0.1842
     25 C           9.0813   -7.4153   29.0407 C.3     1  UNL1        0.0900
     26 C           8.5785   -6.4199   28.0376 C.1     1  UNL1       -0.0881
     27 C           8.0756   -5.4245   27.0344 C.1     1  UNL1       -0.0656
     28 C           3.9832   -2.0590   21.9952 C.3     1  UNL1        0.1593
     29 C           4.4154   -0.9782   21.0491 C.ar    1  UNL1        0.0821
     30 N           5.8650   -0.6066   20.9468 N.ar    1  UNL1       -0.2462
     31 C           6.2972    0.4743   20.0007 C.ar    1  UNL1        0.0985
     32 C           5.2798    1.1835   19.1570 C.ar    1  UNL1        0.0207
     33 C           3.8301    0.8119   19.2594 C.ar    1  UNL1        0.0027
     34 C           2.8127    1.5211   18.4157 C.ar    1  UNL1        0.0001
     35 C           1.3631    1.1495   18.5181 C.ar    1  UNL1        0.0000
     36 C           0.9309    0.0687   19.4641 C.ar    1  UNL1        0.0000
     37 C           1.9483   -0.6406   20.3078 C.ar    1  UNL1        0.0012
     38 C           3.3979   -0.2690   20.2054 C.ar    1  UNL1        0.0155
@<TRIPOS>BOND
     1    25    26    1
     2    26    27    3
     3    27    24    1
     4    24     1    1
     5     1     2   ar
     6     2    13    1
     7    13    14    1
     8    14    15    1
     9    15    16    1
    10    16    17    1
    11    17    18    1
    12    17    19    1
    13     2     3   ar
    14     3    22    1
    15    22    23    3
    16     3     4   ar
    17     4     5   ar
    18     5     6   ar
    19     6     7    2
    20     6     8   ar
    21     8    28    1
    22    28    29    1
    23    29    30   ar
    24    30    31   ar
    25    31    32   ar
    26    32    33   ar
    27    33    34   ar
    28    34    35   ar
    29    35    36   ar
    30    36    37   ar
    31    37    38   ar
    32     8     9   ar
    33     9    10    2
    34     9    11   ar
    35    11    12    1
    36     5     1   ar
    37    38    29   ar
    38    19    13    1
    39    11     4   ar
    40    38    33   ar
    41    18    20    1
    42    18    21    1
@<TRIPOS>MOLECULE
*****
 38 42 0 0 0
SMALL
GASTEIGER

@<TRIPOS>ATOM
      1 N          -0.1024    2.7886   24.8872 N.ar    1  UNL1       -0.2986
      2 C          -1.1299    3.8656   24.7023 C.ar    1  UNL1        0.1245
      3 C          -1.4943    3.9138   23.2480 C.ar    1  UNL1        0.1157
      4 C          -0.6920    2.8665   22.5342 C.ar    1  UNL1        0.0967
      5 C           0.1682    2.1712   23.5473 C.ar    1  UNL1        0.1354
      6 C           1.0869    1.0655   23.1188 C.ar    1  UNL1        0.2819
      7 O           1.9471    0.3701   24.1319 O.2     1  UNL1       -0.2652
      8 N           1.1453    0.6552   21.6771 N.ar    1  UNL1       -0.2417
      9 C           0.2851    1.3507   20.6640 C.ar    1  UNL1        0.3342
     10 O           0.3435    0.9405   19.2224 O.2     1  UNL1       -0.2462
     11 N          -0.6336    2.4563   21.0926 N.ar    1  UNL1       -0.2770
     12 C          -1.4938    3.1517   20.0794 C.3     1  UNL1        0.1351
     13 N          -1.6940    4.7408   25.7821 N.pl3   1  UNL1       -0.2926
     14 C          -0.8176    5.7484   26.4652 C.3     1  UNL1        0.0922
     15 C          -1.3817    6.6235   27.5449 C.3     1  UNL1        0.0229
     16 C          -2.8223    6.4911   27.9415 C.3     1  UNL1        0.0190
     17 C          -3.6987    5.4836   27.2584 C.3     1  UNL1        0.0709
     18 N          -5.1392    5.3512   27.6550 N.3     1  UNL1       -0.3208
     19 C          -3.1346    4.6084   26.1787 C.3     1  UNL1        0.1075
     20 H          -5.3501    6.0181   28.3974 H       1  UNL1        0.1189
     21 H          -5.3141    4.4036   27.9894 H       1  UNL1        0.1189
     22 C          -2.4867    4.8456   22.6181 C.1     1  UNL1        0.1047
     23 N          -3.4792    5.7774   21.9881 N.1     1  UNL1       -0.1907
     24 C           0.5414    2.3976   26.1844 C.3     1  UNL1        0.1842
     25 C          -1.6723   -0.2259   29.0942 C.3     1  UNL1        0.0900
     26 C          -0.9344    0.6486   28.1243 C.1     1  UNL1       -0.0881
     27 C          -0.1964    1.5231   27.1543 C.1     1  UNL1       -0.0656
     28 C           2.0639   -0.4504   21.2486 C.3     1  UNL1        0.1593
     29 C           3.3019   -0.1347   20.4626 C.ar    1  UNL1        0.0821
     30 N           3.8334    1.2676   20.4317 N.ar    1  UNL1       -0.2462
     31 C           5.0714    1.5833   19.6457 C.ar    1  UNL1        0.0985
     32 C           5.7779    0.4967   18.8907 C.ar    1  UNL1        0.0207
     33 C           5.2463   -0.9057   18.9216 C.ar    1  UNL1        0.0027
     34 C           5.9528   -1.9923   18.1665 C.ar    1  UNL1        0.0001
     35 C           5.4213   -3.3946   18.1974 C.ar    1  UNL1        0.0000
     36 C           4.1833   -3.7103   18.9834 C.ar    1  UNL1        0.0000
     37 C           3.4768   -2.6237   19.7385 C.ar    1  UNL1        0.0012
     38 C           4.0084   -1.2214   19.7076 C.ar    1  UNL1        0.0155
@<TRIPOS>BOND
     1    25    26    1
     2    26    27    3
     3    27    24    1
     4    24     1    1
     5     1     2   ar
     6     2    13    1
     7    13    14    1
     8    14    15    1
     9    15    16    1
    10    16    17    1
    11    17    18    1
    12    17    19    1
    13     2     3   ar
    14     3    22    1
    15    22    23    3
    16     3     4   ar
    17     4     5   ar
    18     5     6   ar
    19     6     7    2
    20     6     8   ar
    21     8    28    1
    22    28    29    1
    23    29    30   ar
    24    30    31   ar
    25    31    32   ar
    26    32    33   ar
    27    33    34   ar
    28    34    35   ar
    29    35    36   ar
    30    36    37   ar
    31    37    38   ar
    32     8     9   ar
    33     9    10    2
    34     9    11   ar
    35    11    12    1
    36     5     1   ar
    37    38    29   ar
    38    19    13    1
    39    11     4   ar
    40    38    33   ar
    41    18    20    1
    42    18    21    1
@<TRIPOS>MOLECULE
*****
 38 42 0 0 0
SMALL
GASTEIGER

@<TRIPOS>ATOM
      1 N           3.5985   -1.2936   22.6402 N.ar    1  UNL1       -0.2986
      2 C           4.5099   -2.4271   22.2734 C.ar    1  UNL1        0.1245
      3 C           5.2548   -2.8410   23.5078 C.ar    1  UNL1        0.1157
      4 C           4.8038   -1.9633   24.6375 C.ar    1  UNL1        0.0967
      5 C           3.7802   -1.0070   24.1013 C.ar    1  UNL1        0.1354
      6 C           3.1456    0.0013   25.0127 C.ar    1  UNL1        0.2819
      7 O           2.1220    0.9576   24.4765 O.2     1  UNL1       -0.2652
      8 N           3.5348    0.0532   26.4605 N.ar    1  UNL1       -0.2417
      9 C           4.5585   -0.9032   26.9967 C.ar    1  UNL1        0.3342
     10 O           4.9476   -0.8512   28.4444 O.2     1  UNL1       -0.2462
     11 N           5.1930   -1.9114   26.0852 N.ar    1  UNL1       -0.2770
     12 C           6.2166   -2.8677   26.6214 C.3     1  UNL1        0.1351
     13 N           4.6516   -3.0392   20.9112 N.pl3   1  UNL1       -0.2926
     14 C           3.9396   -4.3188   20.5863 C.3     1  UNL1        0.0922
     15 C           4.0812   -4.9308   19.2242 C.3     1  UNL1        0.0229
     16 C           4.9349   -4.2632   18.1871 C.3     1  UNL1        0.0190
     17 C           5.6469   -2.9836   18.5120 C.3     1  UNL1        0.0709
     18 N           6.5005   -2.3161   17.4749 N.3     1  UNL1       -0.3208
     19 C           5.5052   -2.3716   19.8741 C.3     1  UNL1        0.1075
     20 H           6.4829   -2.8650   16.6153 H       1  UNL1        0.1189
     21 H           7.4595   -2.2489   17.8158 H       1  UNL1        0.1189
     22 C           6.2721   -3.9397   23.5969 C.1     1  UNL1        0.1047
     23 N           7.2895   -5.0384   23.6859 N.1     1  UNL1       -0.1907
     24 C           2.6687   -0.5732   21.7093 C.3     1  UNL1        0.1842
     25 C           4.0672    3.1125   19.5390 C.3     1  UNL1        0.0900
     26 C           3.6011    1.8840   20.2624 C.1     1  UNL1       -0.0881
     27 C           3.1349    0.6554   20.9859 C.1     1  UNL1       -0.0656
     28 C           2.9003    1.0615   27.3719 C.3     1  UNL1        0.1593
     29 C           1.4503    0.9365   27.7350 C.ar    1  UNL1        0.0821
     30 N           0.9821   -0.2216   28.5653 N.ar    1  UNL1       -0.2462
     31 C          -0.4679   -0.3466   28.9284 C.ar    1  UNL1        0.0985
     32 C          -1.4497    0.6867   28.4612 C.ar    1  UNL1        0.0207
     33 C          -0.9816    1.8450   27.6309 C.ar    1  UNL1        0.0027
     34 C          -1.9635    2.8782   27.1637 C.ar    1  UNL1        0.0001
     35 C          -1.4953    4.0364   26.3335 C.ar    1  UNL1        0.0000
     36 C          -0.0453    4.1613   25.9704 C.ar    1  UNL1        0.0000
     37 C           0.9366    3.1281   26.4375 C.ar    1  UNL1        0.0012
     38 C           0.4684    1.9699   27.2678 C.ar    1  UNL1        0.0155
@<TRIPOS>BOND
     1    25    26    1
     2    26    27    3
     3    27    24    1
     4    24     1    1
     5     1     2   ar
     6     2    13    1
     7    13    14    1
     8    14    15    1
     9    15    16    1
    10    16    17    1
    11    17    18    1
    12    17    19    1
    13     2     3   ar
    14     3    22    1
    15    22    23    3
    16     3     4   ar
    17     4     5   ar
    18     5     6   ar
    19     6     7    2
    20     6     8   ar
    21     8    28    1
    22    28    29    1
    23    29    30   ar
    24    30    31   ar
    25    31    32   ar
    26    32    33   ar
    27    33    34   ar
    28    34    35   ar
    29    35    36   ar
    30    36    37   ar
    31    37    38   ar
    32     8     9   ar
    33     9    10    2
    34     9    11   ar
    35    11    12    1
    36     5     1   ar
    37    38    29   ar
    38    19    13    1
    39    11     4   ar
    40    38    33   ar
    41    18    20    1
    42    18    21    1
@<TRIPOS>MOLECULE
*****
 38 42 0 0 0
SMALL
GASTEIGER

@<TRIPOS>ATOM
      1 N           5.6987   -1.2018   26.1693 N.ar    1  UNL1       -0.2986
      2 C           5.7206   -1.8278   27.5322 C.ar    1  UNL1        0.1245
      3 C           6.2369   -3.2290   27.3904 C.ar    1  UNL1        0.1157
      4 C           6.5341   -3.4690   25.9399 C.ar    1  UNL1        0.0967
      5 C           6.2014   -2.2161   25.1852 C.ar    1  UNL1        0.1354
      6 C           6.3993   -2.1606   23.6993 C.ar    1  UNL1        0.2819
      7 O           6.0667   -0.9077   22.9446 O.2     1  UNL1       -0.2652
      8 N           6.9298   -3.3581   22.9682 N.ar    1  UNL1       -0.2417
      9 C           7.2625   -4.6110   23.7229 C.ar    1  UNL1        0.3342
     10 O           7.7930   -5.8085   22.9918 O.2     1  UNL1       -0.2462
     11 N           7.0646   -4.6664   25.2087 N.ar    1  UNL1       -0.2770
     12 C           7.3972   -5.9193   25.9634 C.3     1  UNL1        0.1351
     13 N           5.3000   -1.1684   28.8122 N.pl3   1  UNL1       -0.2926
     14 C           6.3334   -0.7552   29.8178 C.3     1  UNL1        0.0922
     15 C           5.9128   -0.0958   31.0978 C.3     1  UNL1        0.0229
     16 C           4.4588    0.1503   31.3721 C.3     1  UNL1        0.0190
     17 C           3.4254   -0.2629   30.3665 C.3     1  UNL1        0.0709
     18 N           1.9714   -0.0167   30.6408 N.3     1  UNL1       -0.3208
     19 C           3.8460   -0.9222   29.0866 C.3     1  UNL1        0.1075
     20 H           1.8687    0.4361   31.5490 H       1  UNL1        0.1189
     21 H           1.4710   -0.9055   30.6455 H       1  UNL1        0.1189
     22 C           6.4233   -4.2168   28.5037 C.1     1  UNL1        0.1047
     23 N           6.6097   -5.2048   29.6170 N.1     1  UNL1       -0.1907
     24 C           5.2524    0.1935   25.8470 C.3     1  UNL1        0.1842
     25 C           1.0366    0.9445   24.4636 C.3     1  UNL1        0.0900
     26 C           2.4418    0.6942   24.9247 C.1     1  UNL1       -0.0881
     27 C           3.8471    0.4438   25.3859 C.1     1  UNL1       -0.0656
     28 C           7.1277   -3.3027   21.4823 C.3     1  UNL1        0.1593
     29 C           5.9468   -3.4114   20.5638 C.ar    1  UNL1        0.0821
     30 N           4.9994   -4.5670   20.6938 N.ar    1  UNL1       -0.2462
     31 C           3.8185   -4.6757   19.7753 C.ar    1  UNL1        0.0985
     32 C           3.5850   -3.6288   18.7269 C.ar    1  UNL1        0.0207
     33 C           4.5324   -2.4731   18.5968 C.ar    1  UNL1        0.0027
     34 C           4.2989   -1.4261   17.5484 C.ar    1  UNL1        0.0001
     35 C           5.2462   -0.2705   17.4184 C.ar    1  UNL1        0.0000
     36 C           6.4272   -0.1618   18.3369 C.ar    1  UNL1        0.0000
     37 C           6.6607   -1.2087   19.3854 C.ar    1  UNL1        0.0012
     38 C           5.7133   -2.3644   19.5153 C.ar    1  UNL1        0.0155
@<TRIPOS>BOND
     1    25    26    1
     2    26    27    3
     3    27    24    1
     4    24     1    1
     5     1     2   ar
     6     2    13    1
     7    13    14    1
     8    14    15    1
     9    15    16    1
    10    16    17    1
    11    17    18    1
    12    17    19    1
    13     2     3   ar
    14     3    22    1
    15    22    23    3
    16     3     4   ar
    17     4     5   ar
    18     5     6   ar
    19     6     7    2
    20     6     8   ar
    21     8    28    1
    22    28    29    1
    23    29    30   ar
    24    30    31   ar
    25    31    32   ar
    26    32    33   ar
    27    33    34   ar
    28    34    35   ar
    29    35    36   ar
    30    36    37   ar
    31    37    38   ar
    32     8     9   ar
    33     9    10    2
    34     9    11   ar
    35    11    12    1
    36     5     1   ar
    37    38    29   ar
    38    19    13    1
    39    11     4   ar
    40    38    33   ar
    41    18    20    1
    42    18    21    1
