@<TRIPOS>MOLECULE
*****
 37 42 0 0 0
SMALL
GASTEIGER

@<TRIPOS>ATOM
      1 C           1.3592    0.9923   20.4786 C.ar    1  UNL1        0.0515
      2 C           1.7488    0.4020   21.8014 C.ar    1  UNL1        0.0439
      3 C           2.8316   -0.6337   21.8709 C.ar    1  UNL1        0.1390
      4 F           3.2212   -1.2240   23.1937 F       1  UNL1       -0.2044
      5 C           3.5248   -1.0792   20.6175 C.ar    1  UNL1        0.0269
      6 C           3.1352   -0.4889   19.2946 C.ar    1  UNL1        0.0537
      7 C           2.0525    0.5468   19.2252 C.ar    1  UNL1        0.0292
      8 N           3.9901   -1.1199   18.2357 N.am    1  UNL1       -0.2568
      9 C           3.9365   -0.8228   16.7665 C.3     1  UNL1        0.1200
     10 C           4.9080   -2.1000   18.9042 C.2     1  UNL1        0.2326
     11 O           5.9334   -2.9552   18.2207 O.2     1  UNL1       -0.2742
     12 C           4.6204   -2.0749   20.3762 C.3     1  UNL1        0.0977
     13 C           4.2238   -1.9413   21.8166 C.3     1  UNL1        0.0535
     14 C           4.9112   -2.7669   22.8634 C.3     1  UNL1        0.1690
     15 N           5.9952   -3.7261   22.4698 N.pl3   1  UNL1       -0.1876
     16 C           6.3918   -3.8597   21.0294 C.3     1  UNL1        0.1690
     17 C           5.7044   -3.0341   19.9826 C.3     1  UNL1        0.0535
     18 C           6.6825   -4.5517   23.5168 C.2     1  UNL1        0.4556
     19 N           6.5043   -4.2212   24.9690 N.2     1  UNL1        0.0211
     20 C           7.1916   -5.0468   26.0159 C.2     1  UNL1        0.3162
     21 C           8.0572   -6.2029   25.6106 C.3     1  UNL1        0.2015
     22 C           8.2354   -6.5334   24.1583 C.2     1  UNL1        0.3304
     23 O           9.1009   -7.6895   23.7530 O.2     1  UNL1       -0.2528
     24 N           7.5480   -5.7078   23.1114 N.am    1  UNL1        0.0063
     25 C           8.7445   -7.0285   26.6574 C.3     1  UNL1        0.0274
     26 C           8.5663   -6.6980   28.1097 C.3     1  UNL1        0.0520
     27 C           7.7008   -5.5419   28.5150 C.3     1  UNL1        0.2022
     28 N           7.0134   -4.7163   27.4681 N.pl3   1  UNL1       -0.1898
     29 C           6.1479   -3.5602   27.8735 C.3     1  UNL1        0.2533
     30 C          -2.3153    3.8249   22.8184 C.3     1  UNL1        0.0339
     31 C          -1.5608    3.4443   21.5791 C.3     1  UNL1        0.1349
     32 C          -0.4780    2.4085   21.6485 C.3     1  UNL1        0.1205
     33 N           0.2765    2.0280   20.4092 N.pl3   1  UNL1       -0.3028
     34 C          -0.0519    2.6832   19.1003 C.3     1  UNL1        0.1205
     35 C          -1.1347    3.7188   19.0309 C.3     1  UNL1        0.1349
     36 C          -1.4631    4.3741   17.7221 C.3     1  UNL1        0.0339
     37 O          -1.8892    4.0994   20.2703 O.3     1  UNL1       -0.3552
@<TRIPOS>BOND
     1    31    30    1
     2    31    32    1
     3    32    33    1
     4    33     1    1
     5     1     2   ar
     6     2     3   ar
     7     3     4    1
     8     3     5   ar
     9     5     6   ar
    10     6     7   ar
    11     6     8    1
    12     8     9    1
    13     8    10   am
    14    10    11    2
    15    10    12    1
    16    12    13    1
    17    13    14    1
    18    14    15    1
    19    15    18    1
    20    18    19    1
    21    19    20    2
    22    20    21    1
    23    21    22    1
    24    22    23    2
    25    22    24    1
    26    21    25    1
    27    25    26    1
    28    26    27    1
    29    27    28    1
    30    28    29    1
    31    15    16    1
    32    16    17    1
    33    33    34    1
    34    34    35    1
    35    35    36    1
    36    35    37    1
    37    37    31    1
    38     7     1   ar
    39    17    12    1
    40    12     5    1
    41    24    18    2
    42    28    20    1
@<TRIPOS>MOLECULE
*****
 37 42 0 0 0
SMALL
GASTEIGER

@<TRIPOS>ATOM
      1 C           6.7248   -4.0327   25.2024 C.ar    1  UNL1        0.0515
      2 C           6.1253   -2.8379   25.8828 C.ar    1  UNL1        0.0439
      3 C           6.0734   -2.7752   27.3806 C.ar    1  UNL1        0.1390
      4 F           5.4739   -1.5804   28.0610 F       1  UNL1       -0.2044
      5 C           6.6212   -3.9073   28.1980 C.ar    1  UNL1        0.0269
      6 C           7.2209   -5.1022   27.5176 C.ar    1  UNL1        0.0537
      7 C           7.2727   -5.1649   26.0199 C.ar    1  UNL1        0.0292
      8 N           7.6785   -6.0586   28.5787 N.am    1  UNL1       -0.2568
      9 C           8.3372   -7.3857   28.3447 C.3     1  UNL1        0.1200
     10 C           7.3618   -5.4549   29.9148 C.2     1  UNL1        0.2326
     11 O           7.6481   -6.0723   31.2515 O.2     1  UNL1       -0.2742
     12 C           6.7083   -4.1253   29.6795 C.3     1  UNL1        0.0977
     13 C           6.0711   -2.8243   29.2907 C.3     1  UNL1        0.0535
     14 C           5.5894   -1.8787   30.3508 C.3     1  UNL1        0.1690
     15 N           5.7448   -2.2343   31.7998 N.pl3   1  UNL1       -0.1876
     16 C           6.3820   -3.5353   32.1886 C.3     1  UNL1        0.1690
     17 C           6.8638   -4.4808   31.1285 C.3     1  UNL1        0.0535
     18 C           5.2630   -1.2887   32.8599 C.2     1  UNL1        0.4556
     19 N           4.2040   -0.2766   32.5371 N.2     1  UNL1        0.0211
     20 C           3.7222    0.6689   33.5971 C.2     1  UNL1        0.3162
     21 C           4.2995    0.6025   34.9801 C.3     1  UNL1        0.2015
     22 C           5.3585   -0.4095   35.3029 C.2     1  UNL1        0.3304
     23 O           5.9358   -0.4760   36.6857 O.2     1  UNL1       -0.2528
     24 N           5.8403   -1.3551   34.2427 N.am    1  UNL1        0.0063
     25 C           3.8177    1.5481   36.0401 C.3     1  UNL1        0.0274
     26 C           2.7586    2.5601   35.7173 C.3     1  UNL1        0.0520
     27 C           2.1813    2.6265   34.3345 C.3     1  UNL1        0.2022
     28 N           2.6631    1.6809   33.2744 N.pl3   1  UNL1       -0.1898
     29 C           2.0858    1.7474   31.8915 C.3     1  UNL1        0.2533
     30 C           9.3762   -4.9327   20.8251 C.3     1  UNL1        0.0339
     31 C           8.1023   -4.5454   21.5160 C.3     1  UNL1        0.1349
     32 C           8.0505   -4.4827   23.0138 C.3     1  UNL1        0.1205
     33 N           6.7766   -4.0954   23.7047 N.pl3   1  UNL1       -0.3028
     34 C           5.5545   -3.7708   22.8976 C.3     1  UNL1        0.1205
     35 C           5.6063   -3.8335   21.3999 C.3     1  UNL1        0.1349
     36 C           4.3842   -3.5089   20.5929 C.3     1  UNL1        0.0339
     37 O           6.8803   -4.2208   20.7090 O.3     1  UNL1       -0.3552
@<TRIPOS>BOND
     1    31    30    1
     2    31    32    1
     3    32    33    1
     4    33     1    1
     5     1     2   ar
     6     2     3   ar
     7     3     4    1
     8     3     5   ar
     9     5     6   ar
    10     6     7   ar
    11     6     8    1
    12     8     9    1
    13     8    10   am
    14    10    11    2
    15    10    12    1
    16    12    13    1
    17    13    14    1
    18    14    15    1
    19    15    18    1
    20    18    19    1
    21    19    20    2
    22    20    21    1
    23    21    22    1
    24    22    23    2
    25    22    24    1
    26    21    25    1
    27    25    26    1
    28    26    27    1
    29    27    28    1
    30    28    29    1
    31    15    16    1
    32    16    17    1
    33    33    34    1
    34    34    35    1
    35    35    36    1
    36    35    37    1
    37    37    31    1
    38     7     1   ar
    39    17    12    1
    40    12     5    1
    41    24    18    2
    42    28    20    1
@<TRIPOS>MOLECULE
*****
 37 42 0 0 0
SMALL
GASTEIGER

@<TRIPOS>ATOM
      1 C           3.1538   -0.5721   21.3602 C.ar    1  UNL1        0.0515
      2 C           1.9165    0.2409   21.1189 C.ar    1  UNL1        0.0439
      3 C           1.1793    0.8464   22.2764 C.ar    1  UNL1        0.1390
      4 F          -0.0580    1.6595   22.0351 F       1  UNL1       -0.2044
      5 C           1.6793    0.6389   23.6753 C.ar    1  UNL1        0.0269
      6 C           2.9166   -0.1742   23.9166 C.ar    1  UNL1        0.0537
      7 C           3.6538   -0.7796   22.7592 C.ar    1  UNL1        0.0292
      8 N           3.1687   -0.2069   25.3950 N.am    1  UNL1       -0.2568
      9 C           4.3030   -0.9090   26.0806 C.3     1  UNL1        0.1200
     10 C           2.0873    0.5859   26.0673 C.2     1  UNL1        0.2326
     11 O           1.9503    0.8157   27.5432 O.2     1  UNL1       -0.2742
     12 C           1.1667    1.1087   25.0044 C.3     1  UNL1        0.0977
     13 C           0.3390    1.5591   23.8375 C.3     1  UNL1        0.0535
     14 C          -0.8800    2.4033   24.0640 C.3     1  UNL1        0.1690
     15 N          -1.2712    2.7971   25.4576 N.pl3   1  UNL1       -0.1876
     16 C          -0.4434    2.3467   26.6245 C.3     1  UNL1        0.1690
     17 C           0.7756    1.5025   26.3980 C.3     1  UNL1        0.0535
     18 C          -2.4902    3.6414   25.6841 C.2     1  UNL1        0.4556
     19 N          -3.6111    3.6229   24.6875 N.2     1  UNL1        0.0211
     20 C          -4.8301    4.4671   24.9139 C.2     1  UNL1        0.3162
     21 C          -4.9283    5.3298   26.1371 C.3     1  UNL1        0.2015
     22 C          -3.8074    5.3483   27.1338 C.2     1  UNL1        0.3304
     23 O          -3.9055    6.2110   28.3569 O.2     1  UNL1       -0.2528
     24 N          -2.5884    4.5041   26.9072 N.am    1  UNL1        0.0063
     25 C          -6.1473    6.1740   26.3636 C.3     1  UNL1        0.0274
     26 C          -7.2681    6.1555   25.3669 C.3     1  UNL1        0.0520
     27 C          -7.1700    5.2928   24.1438 C.3     1  UNL1        0.2022
     28 N          -5.9510    4.4486   23.9173 N.pl3   1  UNL1       -0.1898
     29 C          -5.8528    3.5859   22.6941 C.3     1  UNL1        0.2533
     30 C           6.0869   -0.0179   17.1070 C.3     1  UNL1        0.0339
     31 C           5.3575   -0.9005   18.0761 C.3     1  UNL1        0.1349
     32 C           4.6203   -0.2950   19.2337 C.3     1  UNL1        0.1205
     33 N           3.8909   -1.1776   20.2027 N.pl3   1  UNL1       -0.3028
     34 C           3.8988   -2.6657   20.0142 C.3     1  UNL1        0.1205
     35 C           4.6360   -3.2712   18.8567 C.3     1  UNL1        0.1349
     36 C           4.6439   -4.7594   18.6682 C.3     1  UNL1        0.0339
     37 O           5.3654   -2.3886   17.8876 O.3     1  UNL1       -0.3552
@<TRIPOS>BOND
     1    31    30    1
     2    31    32    1
     3    32    33    1
     4    33     1    1
     5     1     2   ar
     6     2     3   ar
     7     3     4    1
     8     3     5   ar
     9     5     6   ar
    10     6     7   ar
    11     6     8    1
    12     8     9    1
    13     8    10   am
    14    10    11    2
    15    10    12    1
    16    12    13    1
    17    13    14    1
    18    14    15    1
    19    15    18    1
    20    18    19    1
    21    19    20    2
    22    20    21    1
    23    21    22    1
    24    22    23    2
    25    22    24    1
    26    21    25    1
    27    25    26    1
    28    26    27    1
    29    27    28    1
    30    28    29    1
    31    15    16    1
    32    16    17    1
    33    33    34    1
    34    34    35    1
    35    35    36    1
    36    35    37    1
    37    37    31    1
    38     7     1   ar
    39    17    12    1
    40    12     5    1
    41    24    18    2
    42    28    20    1
@<TRIPOS>MOLECULE
*****
 37 42 0 0 0
SMALL
GASTEIGER

@<TRIPOS>ATOM
      1 C           1.1045    1.1569   20.1179 C.ar    1  UNL1        0.0515
      2 C           1.4506    0.6885   21.5002 C.ar    1  UNL1        0.0439
      3 C           2.5362   -0.3277   21.6980 C.ar    1  UNL1        0.1390
      4 F           2.8823   -0.7961   23.0803 F       1  UNL1       -0.2044
      5 C           3.2756   -0.8753   20.5134 C.ar    1  UNL1        0.0269
      6 C           2.9295   -0.4068   19.1310 C.ar    1  UNL1        0.0537
      7 C           1.8440    0.6092   18.9333 C.ar    1  UNL1        0.0292
      8 N           3.8247   -1.1208   18.1619 N.am    1  UNL1       -0.2568
      9 C           3.8212   -0.9543   16.6713 C.3     1  UNL1        0.1200
     10 C           4.7240   -2.0304   18.9454 C.2     1  UNL1        0.2326
     11 O           5.7777   -2.9333   18.3757 O.2     1  UNL1       -0.2742
     12 C           4.3847   -1.8788   20.3987 C.3     1  UNL1        0.0977
     13 C           3.9368   -1.6228   21.8071 C.3     1  UNL1        0.0535
     14 C           4.5916   -2.3473   22.9457 C.3     1  UNL1        0.1690
     15 N           5.6942   -3.3278   22.6757 N.pl3   1  UNL1       -0.1876
     16 C           6.1420   -3.5838   21.2673 C.3     1  UNL1        0.1690
     17 C           5.4873   -2.8593   20.1287 C.3     1  UNL1        0.0535
     18 C           6.3489   -4.0523   23.8144 C.2     1  UNL1        0.4556
     19 N           7.2566   -5.2148   23.5408 N.2     1  UNL1        0.0211
     20 C           7.9113   -5.9393   24.6793 C.2     1  UNL1        0.3162
     21 C           7.6584   -5.5014   26.0916 C.3     1  UNL1        0.2015
     22 C           6.7507   -4.3390   26.3652 C.2     1  UNL1        0.3304
     23 O           6.4977   -3.9011   27.7773 O.2     1  UNL1       -0.2528
     24 N           6.0960   -3.6144   25.2265 N.am    1  UNL1        0.0063
     25 C           8.3131   -6.2259   27.2301 C.3     1  UNL1        0.0274
     26 C           9.2208   -7.3883   26.9565 C.3     1  UNL1        0.0520
     27 C           9.4738   -7.8262   25.5444 C.3     1  UNL1        0.2022
     28 N           8.8190   -7.1017   24.4057 N.pl3   1  UNL1       -0.1898
     29 C           9.0720   -7.5396   22.9936 C.3     1  UNL1        0.2533
     30 C          -2.9117    3.8729   21.9870 C.3     1  UNL1        0.0339
     31 C          -1.9891    3.5310   20.8547 C.3     1  UNL1        0.1349
     32 C          -0.9036    2.5149   21.0524 C.3     1  UNL1        0.1205
     33 N           0.0190    2.1730   19.9202 N.pl3   1  UNL1       -0.3028
     34 C          -0.1440    2.8473   18.5902 C.3     1  UNL1        0.1205
     35 C          -1.2295    3.8634   18.3925 C.3     1  UNL1        0.1349
     36 C          -1.3925    4.5377   17.0625 C.3     1  UNL1        0.0339
     37 O          -2.1521    4.2053   19.5248 O.3     1  UNL1       -0.3552
@<TRIPOS>BOND
     1    31    30    1
     2    31    32    1
     3    32    33    1
     4    33     1    1
     5     1     2   ar
     6     2     3   ar
     7     3     4    1
     8     3     5   ar
     9     5     6   ar
    10     6     7   ar
    11     6     8    1
    12     8     9    1
    13     8    10   am
    14    10    11    2
    15    10    12    1
    16    12    13    1
    17    13    14    1
    18    14    15    1
    19    15    18    1
    20    18    19    1
    21    19    20    2
    22    20    21    1
    23    21    22    1
    24    22    23    2
    25    22    24    1
    26    21    25    1
    27    25    26    1
    28    26    27    1
    29    27    28    1
    30    28    29    1
    31    15    16    1
    32    16    17    1
    33    33    34    1
    34    34    35    1
    35    35    36    1
    36    35    37    1
    37    37    31    1
    38     7     1   ar
    39    17    12    1
    40    12     5    1
    41    24    18    2
    42    28    20    1
@<TRIPOS>MOLECULE
*****
 37 42 0 0 0
SMALL
GASTEIGER

@<TRIPOS>ATOM
      1 C           5.4328   -2.8429   22.9870 C.ar    1  UNL1        0.0515
      2 C           4.2816   -1.9822   23.4156 C.ar    1  UNL1        0.0439
      3 C           3.5071   -1.2025   22.3946 C.ar    1  UNL1        0.1390
      4 F           2.3558   -0.3418   22.8232 F       1  UNL1       -0.2044
      5 C           3.8839   -1.2836   20.9450 C.ar    1  UNL1        0.0269
      6 C           5.0353   -2.1444   20.5164 C.ar    1  UNL1        0.0537
      7 C           5.8097   -2.9239   21.5373 C.ar    1  UNL1        0.0292
      8 N           5.1727   -2.0267   19.0273 N.am    1  UNL1       -0.2568
      9 C           6.1967   -2.7206   18.1789 C.3     1  UNL1        0.1200
     10 C           4.1064   -1.0934   18.5356 C.2     1  UNL1        0.2326
     11 O           3.8768   -0.6900   17.1093 O.2     1  UNL1       -0.2742
     12 C           3.3098   -0.6341   19.7208 C.3     1  UNL1        0.0977
     13 C           2.6079   -0.2643   20.9938 C.3     1  UNL1        0.0535
     14 C           1.4420    0.6789   20.9606 C.3     1  UNL1        0.1690
     15 N           0.9781    1.2523   19.6545 N.pl3   1  UNL1       -0.1876
     16 C           1.6801    0.8826   18.3815 C.3     1  UNL1        0.1690
     17 C           2.8460   -0.0606   18.4147 C.3     1  UNL1        0.0535
     18 C          -0.1878    2.1955   19.6214 C.2     1  UNL1        0.4556
     19 N          -0.3544    3.1419   18.4696 N.2     1  UNL1        0.0211
     20 C          -1.5202    4.0851   18.4364 C.2     1  UNL1        0.3162
     21 C          -2.5195    4.0820   19.5551 C.3     1  UNL1        0.2015
     22 C          -2.3529    3.1356   20.7069 C.2     1  UNL1        0.3304
     23 O          -3.3522    3.1325   21.8256 O.2     1  UNL1       -0.2528
     24 N          -1.1870    2.1924   20.7400 N.am    1  UNL1        0.0063
     25 C          -3.6854    5.0252   19.5220 C.3     1  UNL1        0.0274
     26 C          -3.8519    5.9715   18.3702 C.3     1  UNL1        0.0520
     27 C          -2.8527    5.9747   17.2515 C.3     1  UNL1        0.2022
     28 N          -1.6868    5.0315   17.2846 N.pl3   1  UNL1       -0.1898
     29 C          -0.6875    5.0346   16.1660 C.3     1  UNL1        0.2533
     30 C           8.4962   -6.8584   24.2084 C.3     1  UNL1        0.0339
     31 C           7.7389   -5.6303   24.6187 C.3     1  UNL1        0.1349
     32 C           6.9645   -4.8506   23.5977 C.3     1  UNL1        0.1205
     33 N           6.2072   -3.6225   24.0079 N.pl3   1  UNL1       -0.3028
     34 C           6.2245   -3.1740   25.4393 C.3     1  UNL1        0.1205
     35 C           6.9989   -3.9536   26.4602 C.3     1  UNL1        0.1349
     36 C           7.0161   -3.5051   27.8916 C.3     1  UNL1        0.0339
     37 O           7.7561   -5.1817   26.0499 O.3     1  UNL1       -0.3552
@<TRIPOS>BOND
     1    31    30    1
     2    31    32    1
     3    32    33    1
     4    33     1    1
     5     1     2   ar
     6     2     3   ar
     7     3     4    1
     8     3     5   ar
     9     5     6   ar
    10     6     7   ar
    11     6     8    1
    12     8     9    1
    13     8    10   am
    14    10    11    2
    15    10    12    1
    16    12    13    1
    17    13    14    1
    18    14    15    1
    19    15    18    1
    20    18    19    1
    21    19    20    2
    22    20    21    1
    23    21    22    1
    24    22    23    2
    25    22    24    1
    26    21    25    1
    27    25    26    1
    28    26    27    1
    29    27    28    1
    30    28    29    1
    31    15    16    1
    32    16    17    1
    33    33    34    1
    34    34    35    1
    35    35    36    1
    36    35    37    1
    37    37    31    1
    38     7     1   ar
    39    17    12    1
    40    12     5    1
    41    24    18    2
    42    28    20    1
@<TRIPOS>MOLECULE
*****
 37 42 0 0 0
SMALL
GASTEIGER

@<TRIPOS>ATOM
      1 C           3.2560   -0.2194   30.1114 C.ar    1  UNL1        0.0515
      2 C           1.9045    0.3920   30.3338 C.ar    1  UNL1        0.0439
      3 C           1.1223    0.9264   29.1707 C.ar    1  UNL1        0.1390
      4 F          -0.2292    1.5378   29.3931 F       1  UNL1       -0.2044
      5 C           1.6918    0.8492   27.7851 C.ar    1  UNL1        0.0269
      6 C           3.0434    0.2378   27.5627 C.ar    1  UNL1        0.0537
      7 C           3.8254   -0.2965   28.7257 C.ar    1  UNL1        0.0292
      8 N           3.3442    0.2999   26.0944 N.am    1  UNL1       -0.2568
      9 C           4.5916   -0.2000   25.4282 C.3     1  UNL1        0.1200
     10 C           2.1786    0.9497   25.4095 C.2     1  UNL1        0.2326
     11 O           2.0558    1.2137   23.9381 O.2     1  UNL1       -0.2742
     12 C           1.1573    1.2892   26.4544 C.3     1  UNL1        0.0977
     13 C           0.2351    1.5670   27.6043 C.3     1  UNL1        0.0535
     14 C          -1.0882    2.2301   27.3612 C.3     1  UNL1        0.1690
     15 N          -1.4893    2.6154   25.9681 N.pl3   1  UNL1       -0.1876
     16 C          -0.5671    2.3376   24.8182 C.3     1  UNL1        0.1690
     17 C           0.7562    1.6745   25.0613 C.3     1  UNL1        0.0535
     18 C          -2.8126    3.2785   25.7250 C.2     1  UNL1        0.4556
     19 N          -3.4578    3.1921   24.3736 N.2     1  UNL1        0.0211
     20 C          -4.7811    3.8551   24.1304 C.2     1  UNL1        0.3162
     21 C          -5.4593    4.6046   25.2387 C.3     1  UNL1        0.2015
     22 C          -4.8142    4.6910   26.5901 C.2     1  UNL1        0.3304
     23 O          -5.4924    5.4405   27.6984 O.2     1  UNL1       -0.2528
     24 N          -3.4908    4.0279   26.8333 N.am    1  UNL1        0.0063
     25 C          -6.7826    5.2677   24.9956 C.3     1  UNL1        0.0274
     26 C          -7.4278    5.1813   23.6441 C.3     1  UNL1        0.0520
     27 C          -6.7496    4.4318   22.5359 C.3     1  UNL1        0.2022
     28 N          -5.4262    3.7687   22.7790 N.pl3   1  UNL1       -0.1898
     29 C          -4.7480    3.0192   21.6707 C.3     1  UNL1        0.2533
     30 C           6.7705   -3.5310   32.0303 C.3     1  UNL1        0.0339
     31 C           5.7953   -2.4095   32.2339 C.3     1  UNL1        0.1349
     32 C           5.0132   -1.8752   31.0708 C.3     1  UNL1        0.1205
     33 N           4.0381   -0.7537   31.2744 N.pl3   1  UNL1       -0.3028
     34 C           3.8451   -0.1665   32.6412 C.3     1  UNL1        0.1205
     35 C           4.6272   -0.7008   33.8043 C.3     1  UNL1        0.1349
     36 C           4.4342   -0.1137   35.1711 C.3     1  UNL1        0.0339
     37 O           5.6023   -1.8224   33.6006 O.3     1  UNL1       -0.3552
@<TRIPOS>BOND
     1    31    30    1
     2    31    32    1
     3    32    33    1
     4    33     1    1
     5     1     2   ar
     6     2     3   ar
     7     3     4    1
     8     3     5   ar
     9     5     6   ar
    10     6     7   ar
    11     6     8    1
    12     8     9    1
    13     8    10   am
    14    10    11    2
    15    10    12    1
    16    12    13    1
    17    13    14    1
    18    14    15    1
    19    15    18    1
    20    18    19    1
    21    19    20    2
    22    20    21    1
    23    21    22    1
    24    22    23    2
    25    22    24    1
    26    21    25    1
    27    25    26    1
    28    26    27    1
    29    27    28    1
    30    28    29    1
    31    15    16    1
    32    16    17    1
    33    33    34    1
    34    34    35    1
    35    35    36    1
    36    35    37    1
    37    37    31    1
    38     7     1   ar
    39    17    12    1
    40    12     5    1
    41    24    18    2
    42    28    20    1
@<TRIPOS>MOLECULE
*****
 37 42 0 0 0
SMALL
GASTEIGER

@<TRIPOS>ATOM
      1 C           5.3952   -1.4145   31.6463 C.ar    1  UNL1        0.0515
      2 C           5.1854   -0.8277   30.2819 C.ar    1  UNL1        0.0439
      3 C           5.5451   -1.6211   29.0607 C.ar    1  UNL1        0.1390
      4 F           5.3352   -1.0343   27.6963 F       1  UNL1       -0.2044
      5 C           6.1146   -3.0013   29.2040 C.ar    1  UNL1        0.0269
      6 C           6.3244   -3.5881   30.5685 C.ar    1  UNL1        0.0537
      7 C           5.9647   -2.7948   31.7896 C.ar    1  UNL1        0.0292
      8 N           6.8995   -4.9631   30.3983 N.am    1  UNL1       -0.2568
      9 C           7.2648   -5.9090   31.5036 C.3     1  UNL1        0.1200
     10 C           7.0451   -5.2260   28.9287 C.2     1  UNL1        0.2326
     11 O           7.5816   -6.4809   28.3064 O.2     1  UNL1       -0.2742
     12 C           6.5600   -4.0135   28.1906 C.3     1  UNL1        0.0977
     13 C           6.0451   -2.7377   27.5930 C.3     1  UNL1        0.0535
     14 C           6.0113   -2.5674   26.1032 C.3     1  UNL1        0.1690
     15 N           6.4925   -3.6730   25.2108 N.pl3   1  UNL1       -0.1876
     16 C           7.0074   -4.9488   25.8084 C.3     1  UNL1        0.1690
     17 C           7.0411   -5.1191   27.2982 C.3     1  UNL1        0.0535
     18 C           6.4587   -3.5026   23.7208 C.2     1  UNL1        0.4556
     19 N           5.3339   -2.7469   23.0777 N.2     1  UNL1        0.0211
     20 C           5.3001   -2.5765   21.5878 C.2     1  UNL1        0.3162
     21 C           6.3911   -3.1619   20.7410 C.3     1  UNL1        0.2015
     22 C           7.5159   -3.9177   21.3842 C.2     1  UNL1        0.3304
     23 O           8.6069   -4.5031   20.5374 O.2     1  UNL1       -0.2528
     24 N           7.5497   -4.0880   22.8741 N.am    1  UNL1        0.0063
     25 C           6.3573   -2.9916   19.2511 C.3     1  UNL1        0.0274
     26 C           5.2325   -2.2358   18.6080 C.3     1  UNL1        0.0520
     27 C           4.1415   -1.6504   19.4547 C.3     1  UNL1        0.2022
     28 N           4.1753   -1.8208   20.9447 N.pl3   1  UNL1       -0.1898
     29 C           3.0843   -1.2354   21.7914 C.3     1  UNL1        0.2533
     30 C           6.2068   -0.2216   36.6381 C.3     1  UNL1        0.0339
     31 C           5.4413   -0.0246   35.3633 C.3     1  UNL1        0.1349
     32 C           5.8010   -0.8180   34.1421 C.3     1  UNL1        0.1205
     33 N           5.0355   -0.6211   32.8673 N.pl3   1  UNL1       -0.3028
     34 C           3.9102    0.3694   32.8137 C.3     1  UNL1        0.1205
     35 C           3.5505    1.1628   34.0347 C.3     1  UNL1        0.1349
     36 C           2.4252    2.1532   33.9810 C.3     1  UNL1        0.0339
     37 O           4.3161    0.9658   35.3096 O.3     1  UNL1       -0.3552
@<TRIPOS>BOND
     1    31    30    1
     2    31    32    1
     3    32    33    1
     4    33     1    1
     5     1     2   ar
     6     2     3   ar
     7     3     4    1
     8     3     5   ar
     9     5     6   ar
    10     6     7   ar
    11     6     8    1
    12     8     9    1
    13     8    10   am
    14    10    11    2
    15    10    12    1
    16    12    13    1
    17    13    14    1
    18    14    15    1
    19    15    18    1
    20    18    19    1
    21    19    20    2
    22    20    21    1
    23    21    22    1
    24    22    23    2
    25    22    24    1
    26    21    25    1
    27    25    26    1
    28    26    27    1
    29    27    28    1
    30    28    29    1
    31    15    16    1
    32    16    17    1
    33    33    34    1
    34    34    35    1
    35    35    36    1
    36    35    37    1
    37    37    31    1
    38     7     1   ar
    39    17    12    1
    40    12     5    1
    41    24    18    2
    42    28    20    1
@<TRIPOS>MOLECULE
*****
 37 42 0 0 0
SMALL
GASTEIGER

@<TRIPOS>ATOM
      1 C           0.3662    1.9959   23.1534 C.ar    1  UNL1        0.0515
      2 C           1.1835    1.2723   24.1821 C.ar    1  UNL1        0.0439
      3 C           2.1519    0.2081   23.7580 C.ar    1  UNL1        0.1390
      4 F           2.9692   -0.5155   24.7868 F       1  UNL1       -0.2044
      5 C           2.3028   -0.1326   22.3050 C.ar    1  UNL1        0.0269
      6 C           1.4854    0.5910   21.2762 C.ar    1  UNL1        0.0537
      7 C           0.5172    1.6552   21.7003 C.ar    1  UNL1        0.0292
      8 N           1.8474    0.0432   19.9275 N.am    1  UNL1       -0.2568
      9 C           1.2698    0.4806   18.6142 C.3     1  UNL1        0.1200
     10 C           2.8885   -1.0189   20.1228 C.2     1  UNL1        0.2326
     11 O           3.5347   -1.8300   19.0391 O.2     1  UNL1       -0.2742
     12 C           3.1699   -1.1276   21.5922 C.3     1  UNL1        0.0977
     13 C           3.3449   -1.1225   23.0819 C.3     1  UNL1        0.0535
     14 C           4.3219   -2.0613   23.7255 C.3     1  UNL1        0.1690
     15 N           5.1239   -3.0051   22.8793 N.pl3   1  UNL1       -0.1876
     16 C           4.9489   -3.0101   21.3896 C.3     1  UNL1        0.1690
     17 C           3.9719   -2.0714   20.7460 C.3     1  UNL1        0.0535
     18 C           6.1010   -3.9439   23.5229 C.2     1  UNL1        0.4556
     19 N           6.2491   -3.9648   25.0154 N.2     1  UNL1        0.0211
     20 C           7.2261   -4.9035   25.6590 C.2     1  UNL1        0.3162
     21 C           8.0550   -5.8214   24.8101 C.3     1  UNL1        0.2015
     22 C           7.9068   -5.8005   23.3176 C.2     1  UNL1        0.3304
     23 O           8.7356   -6.7182   22.4687 O.2     1  UNL1       -0.2528
     24 N           6.9298   -4.8617   22.6740 N.am    1  UNL1        0.0063
     25 C           9.0319   -6.7601   25.4537 C.3     1  UNL1        0.0274
     26 C           9.1801   -6.7810   26.9462 C.3     1  UNL1        0.0520
     27 C           8.3513   -5.8632   27.7951 C.3     1  UNL1        0.2022
     28 N           7.3742   -4.9245   27.1515 N.pl3   1  UNL1       -0.1898
     29 C           6.5454   -4.0067   28.0004 C.3     1  UNL1        0.2533
     30 C          -3.1628    3.7853   26.5215 C.3     1  UNL1        0.0339
     31 C          -2.3666    3.9547   25.2616 C.3     1  UNL1        0.1349
     32 C          -1.3982    2.8905   24.8374 C.3     1  UNL1        0.1205
     33 N          -0.6020    3.0600   23.5775 N.pl3   1  UNL1       -0.3028
     34 C          -0.7741    4.2938   22.7418 C.3     1  UNL1        0.1205
     35 C          -1.7423    5.3579   23.1659 C.3     1  UNL1        0.1349
     36 C          -1.9144    6.5917   22.3302 C.3     1  UNL1        0.0339
     37 O          -2.5386    5.1884   24.4259 O.3     1  UNL1       -0.3552
@<TRIPOS>BOND
     1    31    30    1
     2    31    32    1
     3    32    33    1
     4    33     1    1
     5     1     2   ar
     6     2     3   ar
     7     3     4    1
     8     3     5   ar
     9     5     6   ar
    10     6     7   ar
    11     6     8    1
    12     8     9    1
    13     8    10   am
    14    10    11    2
    15    10    12    1
    16    12    13    1
    17    13    14    1
    18    14    15    1
    19    15    18    1
    20    18    19    1
    21    19    20    2
    22    20    21    1
    23    21    22    1
    24    22    23    2
    25    22    24    1
    26    21    25    1
    27    25    26    1
    28    26    27    1
    29    27    28    1
    30    28    29    1
    31    15    16    1
    32    16    17    1
    33    33    34    1
    34    34    35    1
    35    35    36    1
    36    35    37    1
    37    37    31    1
    38     7     1   ar
    39    17    12    1
    40    12     5    1
    41    24    18    2
    42    28    20    1
@<TRIPOS>MOLECULE
*****
 37 42 0 0 0
SMALL
GASTEIGER

@<TRIPOS>ATOM
      1 C           3.5369   -1.0920   22.2752 C.ar    1  UNL1        0.0515
      2 C           4.2749   -1.6565   23.4527 C.ar    1  UNL1        0.0439
      3 C           3.9670   -1.1659   24.8364 C.ar    1  UNL1        0.1390
      4 F           4.7051   -1.7303   26.0140 F       1  UNL1       -0.2044
      5 C           2.9210   -0.1107   25.0425 C.ar    1  UNL1        0.0269
      6 C           2.1829    0.4539   23.8649 C.ar    1  UNL1        0.0537
      7 C           2.4908   -0.0368   22.4813 C.ar    1  UNL1        0.0292
      8 N           1.2114    1.4771   24.3740 N.am    1  UNL1       -0.2568
      9 C           0.2679    2.2898   23.5378 C.3     1  UNL1        0.1200
     10 C           1.3490    1.5450   25.8661 C.2     1  UNL1        0.2326
     11 O           0.5674    2.4375   26.7839 O.2     1  UNL1       -0.2742
     12 C           2.4057    0.5637   26.2793 C.3     1  UNL1        0.0977
     13 C           3.4772   -0.4530   26.5402 C.3     1  UNL1        0.0535
     14 C           3.9376   -0.7141   27.9437 C.3     1  UNL1        0.1690
     15 N           3.3264    0.0416   29.0863 N.pl3   1  UNL1       -0.1876
     16 C           2.2549    1.0583   28.8254 C.3     1  UNL1        0.1690
     17 C           1.7945    1.3193   27.4219 C.3     1  UNL1        0.0535
     18 C           3.7868   -0.2196   30.4899 C.2     1  UNL1        0.4556
     19 N           3.3469    0.6836   31.6037 N.2     1  UNL1        0.0211
     20 C           3.8073    0.4226   33.0072 C.2     1  UNL1        0.3162
     21 C           4.7077   -0.7417   33.2969 C.3     1  UNL1        0.2015
     22 C           5.1476   -1.6449   32.1830 C.2     1  UNL1        0.3304
     23 O           6.0479   -2.8092   32.4726 O.2     1  UNL1       -0.2528
     24 N           4.6872   -1.3838   30.7795 N.am    1  UNL1        0.0063
     25 C           5.1680   -1.0028   34.7004 C.3     1  UNL1        0.0274
     26 C           4.7281   -0.0996   35.8143 C.3     1  UNL1        0.0520
     27 C           3.8278    1.0646   35.5247 C.3     1  UNL1        0.2022
     28 N           3.3674    1.3257   34.1211 N.pl3   1  UNL1       -0.1898
     29 C           2.4671    2.4900   33.8315 C.3     1  UNL1        0.2533
     30 C           4.4084   -5.0158   18.9822 C.3     1  UNL1        0.0339
     31 C           4.2806   -3.5446   19.2451 C.3     1  UNL1        0.1349
     32 C           3.9726   -3.0539   20.6287 C.3     1  UNL1        0.1205
     33 N           3.8448   -1.5826   20.8916 N.pl3   1  UNL1       -0.3028
     34 C           4.0248   -0.6021   19.7708 C.3     1  UNL1        0.1205
     35 C           4.3328   -1.0927   18.3873 C.3     1  UNL1        0.1349
     36 C           4.5128   -0.1121   17.2665 C.3     1  UNL1        0.0339
     37 O           4.4606   -2.5640   18.1244 O.3     1  UNL1       -0.3552
@<TRIPOS>BOND
     1    31    30    1
     2    31    32    1
     3    32    33    1
     4    33     1    1
     5     1     2   ar
     6     2     3   ar
     7     3     4    1
     8     3     5   ar
     9     5     6   ar
    10     6     7   ar
    11     6     8    1
    12     8     9    1
    13     8    10   am
    14    10    11    2
    15    10    12    1
    16    12    13    1
    17    13    14    1
    18    14    15    1
    19    15    18    1
    20    18    19    1
    21    19    20    2
    22    20    21    1
    23    21    22    1
    24    22    23    2
    25    22    24    1
    26    21    25    1
    27    25    26    1
    28    26    27    1
    29    27    28    1
    30    28    29    1
    31    15    16    1
    32    16    17    1
    33    33    34    1
    34    34    35    1
    35    35    36    1
    36    35    37    1
    37    37    31    1
    38     7     1   ar
    39    17    12    1
    40    12     5    1
    41    24    18    2
    42    28    20    1
