@<TRIPOS>MOLECULE
*****
 34 37 0 0 0
SMALL
GASTEIGER

@<TRIPOS>ATOM
      1 C          -5.8559  -21.2375   20.1445 C.3     1  UNL1        0.0556
      2 C          -5.5574  -20.0810   21.0519 C.ar    1  UNL1        0.0981
      3 N          -4.2175  -19.7397   21.6336 N.ar    1  UNL1       -0.1719
      4 N          -4.3784  -18.5105   22.4781 N.ar    1  UNL1       -0.2444
      5 C          -5.8177  -18.0922   22.4183 C.ar    1  UNL1        0.1284
      6 C          -6.5589  -16.9528   23.0527 C.ar    1  UNL1        0.1550
      7 N          -8.0287  -16.7840   22.8056 N.ar    1  UNL1       -0.1970
      8 C          -8.7573  -17.7546   21.9241 C.ar    1  UNL1        0.2215
      9 N          -8.0161  -18.8940   21.2898 N.ar    1  UNL1       -0.2108
     10 C          -6.5463  -19.0628   21.5369 C.ar    1  UNL1        0.1193
     11 N         -10.2272  -17.5858   21.6770 N.pl3   1  UNL1       -0.2754
     12 C         -10.7170  -17.1713   20.3212 C.3     1  UNL1        0.1107
     13 C         -12.1868  -17.0025   20.0740 C.3     1  UNL1        0.0904
     14 N         -13.1669  -17.2483   21.1827 N.3     1  UNL1       -0.2957
     15 C         -12.6771  -17.6628   22.5385 C.3     1  UNL1        0.0742
     16 C         -13.6571  -17.9086   23.6471 C.3     1  UNL1        0.0189
     17 C         -11.2072  -17.8316   22.7856 C.3     1  UNL1        0.1093
     18 H         -13.7979  -17.9820   20.8605 H       1  UNL1        0.1233
     19 N          -5.8301  -15.9822   23.9342 N.pl3   1  UNL1       -0.2820
     20 H          -4.9541  -15.6281   23.6578 H       1  UNL1        0.1551
     21 C          -6.4363  -15.5510   25.2368 C.ar    1  UNL1        0.1366
     22 C          -7.8624  -15.8940   25.5503 C.ar    1  UNL1        0.0551
     23 C          -8.4685  -15.4629   26.8529 C.ar    1  UNL1        0.1036
     24 N          -7.6485  -14.6888   27.8420 N.ar    1  UNL1       -0.2223
     25 C          -6.2222  -14.3458   27.5284 C.ar    1  UNL1        0.2001
     26 N          -5.6161  -14.7769   26.2258 N.ar    1  UNL1       -0.2089
     27 C          -3.2909  -17.8208   23.2474 C.3     1  UNL1        0.1595
     28 C          -2.4788  -16.7420   22.5943 C.3     1  UNL1        0.1688
     29 O          -2.6853  -16.4218   21.1436 O.3     1  UNL1       -0.3435
     30 C          -1.8216  -17.0693   20.1022 C.3     1  UNL1        0.2459
     31 C          -2.3199  -18.2713   19.3560 C.3     1  UNL1        0.4248
     32 F          -2.8183  -19.4732   18.6098 F       1  UNL1       -0.1674
     33 F          -3.2503  -17.3969   18.5687 F       1  UNL1       -0.1674
     34 F          -1.3895  -19.1457   20.1432 F       1  UNL1       -0.1674
@<TRIPOS>BOND
     1     1     2    1
     2     2     3   ar
     3     3     4   ar
     4     4    27    1
     5    27    28    1
     6    28    29    1
     7    29    30    1
     8    30    31    1
     9    31    32    1
    10    31    33    1
    11    31    34    1
    12     4     5   ar
    13     5     6   ar
    14     6    19    1
    15    19    21    1
    16    21    22   ar
    17    22    23   ar
    18    23    24   ar
    19    24    25   ar
    20    25    26   ar
    21     6     7   ar
    22     7     8   ar
    23     8    11    1
    24    11    12    1
    25    12    13    1
    26    13    14    1
    27    14    15    1
    28    15    16    1
    29    15    17    1
    30     8     9   ar
    31     9    10   ar
    32    10     2   ar
    33    10     5   ar
    34    26    21   ar
    35    17    11    1
    36    19    20    1
    37    14    18    1
@<TRIPOS>MOLECULE
*****
 34 37 0 0 0
SMALL
GASTEIGER

@<TRIPOS>ATOM
      1 C          -5.0897  -14.6346   25.8497 C.3     1  UNL1        0.0556
      2 C          -6.1138  -15.5104   25.1908 C.ar    1  UNL1        0.0981
      3 N          -7.5737  -15.5689   25.5304 N.ar    1  UNL1       -0.1719
      4 N          -8.2199  -16.5761   24.6261 N.ar    1  UNL1       -0.2444
      5 C          -7.1594  -17.1401   23.7275 C.ar    1  UNL1        0.1284
      6 C          -7.2108  -18.1683   22.6366 C.ar    1  UNL1        0.1550
      7 N          -5.9607  -18.5378   21.8947 N.ar    1  UNL1       -0.1970
      8 C          -4.6590  -17.8791   22.2437 C.ar    1  UNL1        0.2215
      9 N          -4.6076  -16.8509   23.3346 N.ar    1  UNL1       -0.2108
     10 C          -5.8577  -16.4814   24.0765 C.ar    1  UNL1        0.1193
     11 N          -3.4088  -18.2487   21.5017 N.pl3   1  UNL1       -0.2754
     12 C          -3.1972  -19.6620   21.0460 C.3     1  UNL1        0.1107
     13 C          -1.9470  -20.0315   20.3041 C.3     1  UNL1        0.0904
     14 N          -0.9084  -18.9877   20.0179 N.3     1  UNL1       -0.2957
     15 C          -1.1200  -17.5744   20.4737 C.3     1  UNL1        0.0742
     16 C          -0.0814  -16.5307   20.1876 C.3     1  UNL1        0.0189
     17 C          -2.3702  -17.2049   21.2156 C.3     1  UNL1        0.1093
     18 H          -0.7937  -18.9564   19.0049 H       1  UNL1        0.1233
     19 N          -8.5126  -18.8270   22.2876 N.pl3   1  UNL1       -0.2820
     20 H          -8.7139  -19.7294   22.6258 H       1  UNL1        0.1551
     21 C          -9.5075  -18.1108   21.4232 C.ar    1  UNL1        0.1366
     22 C         -10.4487  -18.8935   20.5564 C.ar    1  UNL1        0.0551
     23 C         -11.4436  -18.1773   19.6920 C.ar    1  UNL1        0.1036
     24 N         -11.4973  -16.6783   19.6944 N.ar    1  UNL1       -0.2223
     25 C         -10.5560  -15.8955   20.5611 C.ar    1  UNL1        0.2001
     26 N          -9.5611  -16.6117   21.4255 N.ar    1  UNL1       -0.2089
     27 C          -9.6717  -16.9532   24.6211 C.3     1  UNL1        0.1595
     28 C         -10.0996  -18.2959   25.1350 C.3     1  UNL1        0.1688
     29 O         -11.3552  -18.9321   24.6167 O.3     1  UNL1       -0.3435
     30 C         -12.3468  -18.1139   23.8439 C.3     1  UNL1        0.2459
     31 C         -13.8171  -18.3152   24.0617 C.3     1  UNL1        0.4248
     32 F         -15.2875  -18.5165   24.2794 F       1  UNL1       -0.1674
     33 F         -14.0673  -18.0656   22.6040 F       1  UNL1       -0.1674
     34 F         -13.5670  -18.5648   25.5195 F       1  UNL1       -0.1674
@<TRIPOS>BOND
     1     1     2    1
     2     2     3   ar
     3     3     4   ar
     4     4    27    1
     5    27    28    1
     6    28    29    1
     7    29    30    1
     8    30    31    1
     9    31    32    1
    10    31    33    1
    11    31    34    1
    12     4     5   ar
    13     5     6   ar
    14     6    19    1
    15    19    21    1
    16    21    22   ar
    17    22    23   ar
    18    23    24   ar
    19    24    25   ar
    20    25    26   ar
    21     6     7   ar
    22     7     8   ar
    23     8    11    1
    24    11    12    1
    25    12    13    1
    26    13    14    1
    27    14    15    1
    28    15    16    1
    29    15    17    1
    30     8     9   ar
    31     9    10   ar
    32    10     2   ar
    33    10     5   ar
    34    26    21   ar
    35    17    11    1
    36    19    20    1
    37    14    18    1
@<TRIPOS>MOLECULE
*****
 34 37 0 0 0
SMALL
GASTEIGER

@<TRIPOS>ATOM
      1 C           6.7542   -0.1557   36.9297 C.3     1  UNL1        0.0556
      2 C           5.5886    0.4013   36.1674 C.ar    1  UNL1        0.0981
      3 N           4.6257    1.4391   36.6632 N.ar    1  UNL1       -0.1719
      4 N           3.6233    1.6975   35.5776 N.ar    1  UNL1       -0.2444
      5 C           3.9668    0.8195   34.4110 C.ar    1  UNL1        0.1284
      6 C           3.3304    0.6459   33.0638 C.ar    1  UNL1        0.1550
      7 N           3.9087   -0.3287   32.0811 N.ar    1  UNL1       -0.1970
      8 C           5.1233   -1.1298   32.4456 C.ar    1  UNL1        0.2215
      9 N           5.7597   -0.9563   33.7928 N.ar    1  UNL1       -0.2108
     10 C           5.1814    0.0184   34.7755 C.ar    1  UNL1        0.1193
     11 N           5.7016   -2.1045   31.4629 N.pl3   1  UNL1       -0.2754
     12 C           5.7793   -1.7462   30.0084 C.3     1  UNL1        0.1107
     13 C           6.3576   -2.7208   29.0258 C.3     1  UNL1        0.0904
     14 N           6.8582   -4.0538   29.4976 N.3     1  UNL1       -0.2957
     15 C           6.7804   -4.4122   30.9521 C.3     1  UNL1        0.0742
     16 C           7.2809   -5.7451   31.4239 C.3     1  UNL1        0.0189
     17 C           6.2021   -3.4375   31.9348 C.3     1  UNL1        0.1093
     18 H           7.8416   -4.1096   29.2327 H       1  UNL1        0.1233
     19 N           2.1157    1.4471   32.6993 N.pl3   1  UNL1       -0.2820
     20 H           1.5546    1.8397   33.4065 H       1  UNL1        0.1551
     21 C           1.7562    1.6500   31.2572 C.ar    1  UNL1        0.1366
     22 C           2.1746    2.9044   30.5493 C.ar    1  UNL1        0.0551
     23 C           1.8150    3.1074   29.1072 C.ar    1  UNL1        0.1036
     24 N           1.0370    2.0559   28.3731 N.ar    1  UNL1       -0.2223
     25 C           0.6185    0.8014   29.0811 C.ar    1  UNL1        0.2001
     26 N           0.9781    0.5984   30.5231 N.ar    1  UNL1       -0.2089
     27 C           2.4785    2.6643   35.6466 C.3     1  UNL1        0.1595
     28 C           2.2001    3.4075   36.9195 C.3     1  UNL1        0.1688
     29 O           1.2024    2.8674   37.9006 O.3     1  UNL1       -0.3435
     30 C           1.6725    2.2275   39.1732 C.3     1  UNL1        0.2459
     31 C           1.3159    0.8015   39.4719 C.3     1  UNL1        0.4248
     32 F           0.9593   -0.6245   39.7706 F       1  UNL1       -0.1674
     33 F           2.1116    0.3532   38.2820 F       1  UNL1       -0.1674
     34 F           0.5201    1.2498   40.6618 F       1  UNL1       -0.1674
@<TRIPOS>BOND
     1     1     2    1
     2     2     3   ar
     3     3     4   ar
     4     4    27    1
     5    27    28    1
     6    28    29    1
     7    29    30    1
     8    30    31    1
     9    31    32    1
    10    31    33    1
    11    31    34    1
    12     4     5   ar
    13     5     6   ar
    14     6    19    1
    15    19    21    1
    16    21    22   ar
    17    22    23   ar
    18    23    24   ar
    19    24    25   ar
    20    25    26   ar
    21     6     7   ar
    22     7     8   ar
    23     8    11    1
    24    11    12    1
    25    12    13    1
    26    13    14    1
    27    14    15    1
    28    15    16    1
    29    15    17    1
    30     8     9   ar
    31     9    10   ar
    32    10     2   ar
    33    10     5   ar
    34    26    21   ar
    35    17    11    1
    36    19    20    1
    37    14    18    1
@<TRIPOS>MOLECULE
*****
 34 37 0 0 0
SMALL
GASTEIGER

@<TRIPOS>ATOM
      1 C          -7.6402  -15.0171   27.2195 C.3     1  UNL1        0.0556
      2 C          -7.0550  -15.5969   25.9659 C.ar    1  UNL1        0.0981
      3 N          -5.6034  -15.5955   25.5879 N.ar    1  UNL1       -0.1719
      4 N          -5.4699  -16.2777   24.2587 N.ar    1  UNL1       -0.2444
      5 C          -6.8391  -16.7008   23.8153 C.ar    1  UNL1        0.1284
      6 C          -7.3203  -17.4148   22.5871 C.ar    1  UNL1        0.1550
      7 N          -8.7811  -17.7081   22.4140 N.ar    1  UNL1       -0.1970
      8 C          -9.7607  -17.2874   23.4691 C.ar    1  UNL1        0.2215
      9 N          -9.2794  -16.5733   24.6973 N.ar    1  UNL1       -0.2108
     10 C          -7.8187  -16.2800   24.8705 C.ar    1  UNL1        0.1193
     11 N         -11.2216  -17.5806   23.2960 N.pl3   1  UNL1       -0.2754
     12 C         -11.8405  -17.5277   21.9307 C.3     1  UNL1        0.1107
     13 C         -13.3013  -17.8210   21.7576 C.3     1  UNL1        0.0904
     14 N         -14.1432  -18.1672   22.9499 N.3     1  UNL1       -0.2957
     15 C         -13.5243  -18.2201   24.3152 C.3     1  UNL1        0.0742
     16 C         -14.3661  -18.5663   25.5074 C.3     1  UNL1        0.0189
     17 C         -12.0634  -17.9268   24.4882 C.3     1  UNL1        0.1093
     18 H         -14.5417  -19.0890   22.7713 H       1  UNL1        0.1233
     19 N          -6.3406  -17.8355   21.5319 N.pl3   1  UNL1       -0.2820
     20 H          -5.5332  -17.2969   21.3669 H       1  UNL1        0.1551
     21 C          -6.5912  -19.0769   20.7281 C.ar    1  UNL1        0.1366
     22 C          -5.7325  -20.2895   20.9335 C.ar    1  UNL1        0.0551
     23 C          -5.9831  -21.5309   20.1297 C.ar    1  UNL1        0.1036
     24 N          -7.0923  -21.5598   19.1204 N.ar    1  UNL1       -0.2223
     25 C          -7.9511  -20.3472   18.9150 C.ar    1  UNL1        0.2001
     26 N          -7.7006  -19.1057   19.7188 N.ar    1  UNL1       -0.2089
     27 C          -4.1918  -16.4981   23.5052 C.3     1  UNL1        0.1595
     28 C          -3.5713  -17.8631   23.4641 C.3     1  UNL1        0.1688
     29 O          -2.2789  -18.0778   22.7336 O.3     1  UNL1       -0.3435
     30 C          -2.1472  -17.6522   21.3014 C.3     1  UNL1        0.2459
     31 C          -2.6154  -18.5602   20.2031 C.3     1  UNL1        0.4248
     32 F          -3.0836  -19.4683   19.1048 F       1  UNL1       -0.1674
     33 F          -2.3300  -19.7526   21.0672 F       1  UNL1       -0.1674
     34 F          -2.9008  -17.3678   19.3389 F       1  UNL1       -0.1674
@<TRIPOS>BOND
     1     1     2    1
     2     2     3   ar
     3     3     4   ar
     4     4    27    1
     5    27    28    1
     6    28    29    1
     7    29    30    1
     8    30    31    1
     9    31    32    1
    10    31    33    1
    11    31    34    1
    12     4     5   ar
    13     5     6   ar
    14     6    19    1
    15    19    21    1
    16    21    22   ar
    17    22    23   ar
    18    23    24   ar
    19    24    25   ar
    20    25    26   ar
    21     6     7   ar
    22     7     8   ar
    23     8    11    1
    24    11    12    1
    25    12    13    1
    26    13    14    1
    27    14    15    1
    28    15    16    1
    29    15    17    1
    30     8     9   ar
    31     9    10   ar
    32    10     2   ar
    33    10     5   ar
    34    26    21   ar
    35    17    11    1
    36    19    20    1
    37    14    18    1
@<TRIPOS>MOLECULE
*****
 34 37 0 0 0
SMALL
GASTEIGER

@<TRIPOS>ATOM
      1 C           8.3723   -7.8117   24.6823 C.3     1  UNL1        0.0556
      2 C           8.0194   -6.3768   24.4247 C.ar    1  UNL1        0.0981
      3 N           8.0053   -5.6988   23.0867 N.ar    1  UNL1       -0.1719
      4 N           7.5958   -4.2709   23.2949 N.ar    1  UNL1       -0.2444
      5 C           7.3568   -4.0664   24.7616 C.ar    1  UNL1        0.1284
      6 C           6.9346   -2.8632   25.5515 C.ar    1  UNL1        0.1550
      7 N           6.7742   -2.9614   27.0396 N.ar    1  UNL1       -0.1970
      8 C           7.0360   -4.2629   27.7378 C.ar    1  UNL1        0.2215
      9 N           7.4582   -5.4662   26.9479 N.ar    1  UNL1       -0.2108
     10 C           7.6186   -5.3679   25.4598 C.ar    1  UNL1        0.1193
     11 N           6.8756   -4.3612   29.2261 N.pl3   1  UNL1       -0.2754
     12 C           7.1215   -5.6669   29.9223 C.3     1  UNL1        0.1107
     13 C           6.9611   -5.7652   31.4104 C.3     1  UNL1        0.0904
     14 N           6.5548   -4.5579   32.2024 N.3     1  UNL1       -0.2957
     15 C           6.3089   -3.2522   31.5062 C.3     1  UNL1        0.0742
     16 C           5.9026   -2.0448   32.2981 C.3     1  UNL1        0.0189
     17 C           6.4693   -3.1539   30.0180 C.3     1  UNL1        0.1093
     18 H           7.2931   -4.3923   32.8865 H       1  UNL1        0.1233
     19 N           6.6728   -1.5617   24.8532 N.pl3   1  UNL1       -0.2820
     20 H           7.4261   -1.0148   24.5326 H       1  UNL1        0.1551
     21 C           5.2633   -1.0933   24.6435 C.ar    1  UNL1        0.1366
     22 C           4.5623   -1.3808   23.3489 C.ar    1  UNL1        0.0551
     23 C           3.1528   -0.9125   23.1392 C.ar    1  UNL1        0.1036
     24 N           2.4443   -0.1567   24.2240 N.ar    1  UNL1       -0.2223
     25 C           3.1454    0.1308   25.5186 C.ar    1  UNL1        0.2001
     26 N           4.5549   -0.3375   25.7283 N.ar    1  UNL1       -0.2089
     27 C           7.4508   -3.2303   22.2244 C.3     1  UNL1        0.1595
     28 C           7.3655   -3.6422   20.7846 C.3     1  UNL1        0.1688
     29 O           6.1288   -4.3168   20.2694 O.3     1  UNL1       -0.3435
     30 C           4.8455   -3.5481   20.1597 C.3     1  UNL1        0.2459
     31 C           3.6759   -4.1413   19.4316 C.3     1  UNL1        0.4248
     32 F           2.5063   -4.7345   18.7035 F       1  UNL1       -0.1674
     33 F           4.4574   -5.4009   19.2024 F       1  UNL1       -0.1674
     34 F           2.8944   -2.8816   19.6608 F       1  UNL1       -0.1674
@<TRIPOS>BOND
     1     1     2    1
     2     2     3   ar
     3     3     4   ar
     4     4    27    1
     5    27    28    1
     6    28    29    1
     7    29    30    1
     8    30    31    1
     9    31    32    1
    10    31    33    1
    11    31    34    1
    12     4     5   ar
    13     5     6   ar
    14     6    19    1
    15    19    21    1
    16    21    22   ar
    17    22    23   ar
    18    23    24   ar
    19    24    25   ar
    20    25    26   ar
    21     6     7   ar
    22     7     8   ar
    23     8    11    1
    24    11    12    1
    25    12    13    1
    26    13    14    1
    27    14    15    1
    28    15    16    1
    29    15    17    1
    30     8     9   ar
    31     9    10   ar
    32    10     2   ar
    33    10     5   ar
    34    26    21   ar
    35    17    11    1
    36    19    20    1
    37    14    18    1
@<TRIPOS>MOLECULE
*****
 34 37 0 0 0
SMALL
GASTEIGER

@<TRIPOS>ATOM
      1 C         -12.2243  -18.9097   24.9915 C.3     1  UNL1        0.0556
      2 C         -11.3394  -18.9485   23.7810 C.ar    1  UNL1        0.0981
      3 N         -11.6203  -19.6885   22.5068 N.ar    1  UNL1       -0.1719
      4 N         -10.4727  -19.4515   21.5705 N.ar    1  UNL1       -0.2444
      5 C          -9.4825  -18.5650   22.2661 C.ar    1  UNL1        0.1284
      6 C          -8.1622  -18.0007   21.8319 C.ar    1  UNL1        0.1550
      7 N          -7.3776  -17.1256   22.7638 N.ar    1  UNL1       -0.1970
      8 C          -7.9133  -16.8148   24.1300 C.ar    1  UNL1        0.2215
      9 N          -9.2335  -17.3791   24.5642 N.ar    1  UNL1       -0.2108
     10 C         -10.0181  -18.2542   23.6322 C.ar    1  UNL1        0.1193
     11 N          -7.1287  -15.9397   25.0620 N.pl3   1  UNL1       -0.2754
     12 C          -5.7054  -15.5899   24.7425 C.3     1  UNL1        0.1107
     13 C          -4.9209  -14.7148   25.6745 C.3     1  UNL1        0.0904
     14 N          -5.5595  -14.1894   26.9260 N.3     1  UNL1       -0.2957
     15 C          -6.9828  -14.5392   27.2454 C.3     1  UNL1        0.0742
     16 C          -7.6214  -14.0138   28.4968 C.3     1  UNL1        0.0189
     17 C          -7.7673  -15.4143   26.3134 C.3     1  UNL1        0.1093
     18 H          -5.5103  -13.1718   26.8768 H       1  UNL1        0.1233
     19 N          -7.6266  -18.3116   20.4656 N.pl3   1  UNL1       -0.2820
     20 H          -8.0880  -17.9689   19.6663 H       1  UNL1        0.1551
     21 C          -6.3879  -19.1445   20.3173 C.ar    1  UNL1        0.1366
     22 C          -6.4806  -20.6410   20.3621 C.ar    1  UNL1        0.0551
     23 C          -5.2420  -21.4739   20.2138 C.ar    1  UNL1        0.1036
     24 N          -3.9107  -20.8105   20.0207 N.ar    1  UNL1       -0.2223
     25 C          -3.8179  -19.3140   19.9759 C.ar    1  UNL1        0.2001
     26 N          -5.0566  -18.4810   20.1242 N.ar    1  UNL1       -0.2089
     27 C         -10.3387  -20.0039   20.1824 C.3     1  UNL1        0.1595
     28 C         -10.4461  -19.0899   18.9979 C.3     1  UNL1        0.1688
     29 O         -10.3847  -17.6035   19.1895 O.3     1  UNL1       -0.3435
     30 C         -11.6269  -16.8410   19.5439 C.3     1  UNL1        0.2459
     31 C         -11.7916  -16.2752   20.9233 C.3     1  UNL1        0.4248
     32 F         -11.9563  -15.7093   22.3026 F       1  UNL1       -0.1674
     33 F         -10.5513  -15.4530   20.7342 F       1  UNL1       -0.1674
     34 F         -13.0319  -17.0973   21.1124 F       1  UNL1       -0.1674
@<TRIPOS>BOND
     1     1     2    1
     2     2     3   ar
     3     3     4   ar
     4     4    27    1
     5    27    28    1
     6    28    29    1
     7    29    30    1
     8    30    31    1
     9    31    32    1
    10    31    33    1
    11    31    34    1
    12     4     5   ar
    13     5     6   ar
    14     6    19    1
    15    19    21    1
    16    21    22   ar
    17    22    23   ar
    18    23    24   ar
    19    24    25   ar
    20    25    26   ar
    21     6     7   ar
    22     7     8   ar
    23     8    11    1
    24    11    12    1
    25    12    13    1
    26    13    14    1
    27    14    15    1
    28    15    16    1
    29    15    17    1
    30     8     9   ar
    31     9    10   ar
    32    10     2   ar
    33    10     5   ar
    34    26    21   ar
    35    17    11    1
    36    19    20    1
    37    14    18    1
@<TRIPOS>MOLECULE
*****
 34 37 0 0 0
SMALL
GASTEIGER

@<TRIPOS>ATOM
      1 C           2.4653    0.2040   27.3722 C.3     1  UNL1        0.0556
      2 C           3.7026   -0.6418   27.3110 C.ar    1  UNL1        0.0981
      3 N           4.6190   -0.9478   28.4585 N.ar    1  UNL1       -0.1719
      4 N           5.7235   -1.8252   27.9483 N.ar    1  UNL1       -0.2444
      5 C           5.4897   -2.0613   26.4855 C.ar    1  UNL1        0.1284
      6 C           6.2528   -2.8479   25.4613 C.ar    1  UNL1        0.1550
      7 N           5.7669   -2.9031   24.0433 N.ar    1  UNL1       -0.1970
      8 C           4.5179   -2.1717   23.6495 C.ar    1  UNL1        0.2215
      9 N           3.7548   -1.3852   24.6737 N.ar    1  UNL1       -0.2108
     10 C           4.2407   -1.3300   26.0917 C.ar    1  UNL1        0.1193
     11 N           4.0320   -2.2269   22.2314 N.pl3   1  UNL1       -0.2754
     12 C           3.1180   -1.1580   21.7097 C.3     1  UNL1        0.1107
     13 C           2.6321   -1.2131   20.2917 C.3     1  UNL1        0.0904
     14 N           3.0601   -2.3372   19.3953 N.3     1  UNL1       -0.2957
     15 C           3.9741   -3.4061   19.9170 C.3     1  UNL1        0.0742
     16 C           4.4021   -4.5301   19.0207 C.3     1  UNL1        0.0189
     17 C           4.4600   -3.3509   21.3351 C.3     1  UNL1        0.1093
     18 H           3.5294   -1.9133   18.5950 H       1  UNL1        0.1233
     19 N           7.5018   -3.5793   25.8552 N.pl3   1  UNL1       -0.2820
     20 H           8.2530   -3.0881   26.2597 H       1  UNL1        0.1551
     21 C           7.6061   -5.0590   25.6327 C.ar    1  UNL1        0.1366
     22 C           8.2698   -5.5865   24.3952 C.ar    1  UNL1        0.0551
     23 C           8.3741   -7.0662   24.1728 C.ar    1  UNL1        0.1036
     24 N           7.8149   -8.0185   25.1878 N.ar    1  UNL1       -0.2223
     25 C           7.1512   -7.4911   26.4254 C.ar    1  UNL1        0.2001
     26 N           7.0468   -6.0114   26.6478 N.ar    1  UNL1       -0.2089
     27 C           6.8619   -2.3706   28.7585 C.3     1  UNL1        0.1595
     28 C           6.7381   -3.7123   29.4176 C.3     1  UNL1        0.1688
     29 O           7.7414   -4.1369   30.4487 O.3     1  UNL1       -0.3435
     30 C           7.6756   -3.5717   31.8366 C.3     1  UNL1        0.2459
     31 C           6.3451   -3.2884   32.4687 C.3     1  UNL1        0.4248
     32 F           5.0146   -3.0050   33.1008 F       1  UNL1       -0.1674
     33 F           6.5169   -1.8274   32.1756 F       1  UNL1       -0.1674
     34 F           6.1732   -4.7494   32.7618 F       1  UNL1       -0.1674
@<TRIPOS>BOND
     1     1     2    1
     2     2     3   ar
     3     3     4   ar
     4     4    27    1
     5    27    28    1
     6    28    29    1
     7    29    30    1
     8    30    31    1
     9    31    32    1
    10    31    33    1
    11    31    34    1
    12     4     5   ar
    13     5     6   ar
    14     6    19    1
    15    19    21    1
    16    21    22   ar
    17    22    23   ar
    18    23    24   ar
    19    24    25   ar
    20    25    26   ar
    21     6     7   ar
    22     7     8   ar
    23     8    11    1
    24    11    12    1
    25    12    13    1
    26    13    14    1
    27    14    15    1
    28    15    16    1
    29    15    17    1
    30     8     9   ar
    31     9    10   ar
    32    10     2   ar
    33    10     5   ar
    34    26    21   ar
    35    17    11    1
    36    19    20    1
    37    14    18    1
@<TRIPOS>MOLECULE
*****
 34 37 0 0 0
SMALL
GASTEIGER

@<TRIPOS>ATOM
      1 C           0.2056    1.4682   25.0348 C.3     1  UNL1        0.0556
      2 C           0.9375    1.1332   23.7691 C.ar    1  UNL1        0.0981
      3 N           2.2105    0.3463   23.6686 N.ar    1  UNL1       -0.1719
      4 N           2.5846    0.2530   22.2190 N.ar    1  UNL1       -0.2444
      5 C           1.5426    0.9823   21.4236 C.ar    1  UNL1        0.1284
      6 C           1.3892    1.2212   19.9507 C.ar    1  UNL1        0.1550
      7 N           0.2180    2.0042   19.4358 N.ar    1  UNL1       -0.1970
      8 C          -0.8000    2.5481   20.3939 C.ar    1  UNL1        0.2215
      9 N          -0.6466    2.3091   21.8668 N.ar    1  UNL1       -0.2108
     10 C           0.5246    1.5262   22.3816 C.ar    1  UNL1        0.1193
     11 N          -1.9713    3.3311   19.8791 N.pl3   1  UNL1       -0.2754
     12 C          -1.8280    4.1702   18.6440 C.3     1  UNL1        0.1107
     13 C          -2.9993    4.9532   18.1292 C.3     1  UNL1        0.0904
     14 N          -4.3139    4.8970   18.8494 N.3     1  UNL1       -0.2957
     15 C          -4.4572    4.0579   20.0844 C.3     1  UNL1        0.0742
     16 C          -5.7718    4.0017   20.8047 C.3     1  UNL1        0.0189
     17 C          -3.2859    3.2749   20.5993 C.3     1  UNL1        0.1093
     18 H          -5.0024    4.5546   18.1792 H       1  UNL1        0.1233
     19 N           2.4073    0.6772   18.9926 N.pl3   1  UNL1       -0.2820
     20 H           2.3648   -0.2655   18.7121 H       1  UNL1        0.1551
     21 C           3.4899    1.5696   18.4621 C.ar    1  UNL1        0.1366
     22 C           4.7980    0.9818   18.0223 C.ar    1  UNL1        0.0551
     23 C           5.8807    1.8742   17.4918 C.ar    1  UNL1        0.1036
     24 N           5.6553    3.3544   17.4010 N.ar    1  UNL1       -0.2223
     25 C           4.3472    3.9422   17.8408 C.ar    1  UNL1        0.2001
     26 N           3.2645    3.0499   18.3714 N.ar    1  UNL1       -0.2089
     27 C           3.7890   -0.4467   21.6624 C.3     1  UNL1        0.1595
     28 C           3.6793   -1.8649   21.1865 C.3     1  UNL1        0.1688
     29 O           3.0335   -2.1653   19.8664 O.3     1  UNL1       -0.3435
     30 C           3.8665   -2.6498   18.7169 C.3     1  UNL1        0.2459
     31 C           4.3136   -4.0806   18.6654 C.3     1  UNL1        0.4248
     32 F           4.7606   -5.5115   18.6138 F       1  UNL1       -0.1674
     33 F           2.9049   -4.5299   18.9176 F       1  UNL1       -0.1674
     34 F           5.7223   -3.6314   18.4131 F       1  UNL1       -0.1674
@<TRIPOS>BOND
     1     1     2    1
     2     2     3   ar
     3     3     4   ar
     4     4    27    1
     5    27    28    1
     6    28    29    1
     7    29    30    1
     8    30    31    1
     9    31    32    1
    10    31    33    1
    11    31    34    1
    12     4     5   ar
    13     5     6   ar
    14     6    19    1
    15    19    21    1
    16    21    22   ar
    17    22    23   ar
    18    23    24   ar
    19    24    25   ar
    20    25    26   ar
    21     6     7   ar
    22     7     8   ar
    23     8    11    1
    24    11    12    1
    25    12    13    1
    26    13    14    1
    27    14    15    1
    28    15    16    1
    29    15    17    1
    30     8     9   ar
    31     9    10   ar
    32    10     2   ar
    33    10     5   ar
    34    26    21   ar
    35    17    11    1
    36    19    20    1
    37    14    18    1
@<TRIPOS>MOLECULE
*****
 34 37 0 0 0
SMALL
GASTEIGER

@<TRIPOS>ATOM
      1 C           7.8926   -4.8680   24.1672 C.3     1  UNL1        0.0556
      2 C           6.9429   -4.2822   23.1647 C.ar    1  UNL1        0.0981
      3 N           6.9088   -4.5912   21.6973 N.ar    1  UNL1       -0.1719
      4 N           5.8054   -3.7845   21.0793 N.ar    1  UNL1       -0.2444
      5 C           5.1577   -2.9770   22.1649 C.ar    1  UNL1        0.1284
      6 C           4.0185   -2.0013   22.1463 C.ar    1  UNL1        0.1550
      7 N           3.5824   -1.3332   23.4165 N.ar    1  UNL1       -0.1970
      8 C           4.2855   -1.6408   24.7053 C.ar    1  UNL1        0.2215
      9 N           5.4246   -2.6165   24.7239 N.ar    1  UNL1       -0.2108
     10 C           5.8607   -3.2846   23.4537 C.ar    1  UNL1        0.1193
     11 N           3.8493   -0.9727   25.9756 N.pl3   1  UNL1       -0.2754
     12 C           4.2691   -1.5354   27.3012 C.3     1  UNL1        0.1107
     13 C           3.8330   -0.8673   28.5714 C.3     1  UNL1        0.0904
     14 N           2.9772    0.3634   28.5161 N.3     1  UNL1       -0.2957
     15 C           2.5574    0.9260   27.1904 C.3     1  UNL1        0.0742
     16 C           1.7017    2.1566   27.1351 C.3     1  UNL1        0.0189
     17 C           2.9936    0.2579   25.9202 C.3     1  UNL1        0.1093
     18 H           3.4899    1.1006   28.9998 H       1  UNL1        0.1233
     19 N           3.3155   -1.6937   20.8574 N.pl3   1  UNL1       -0.2820
     20 H           3.3984   -2.3081   20.0926 H       1  UNL1        0.1551
     21 C           2.4862   -0.4499   20.7337 C.ar    1  UNL1        0.1366
     22 C           1.0462   -0.5462   20.3248 C.ar    1  UNL1        0.0551
     23 C           0.2169    0.6976   20.2012 C.ar    1  UNL1        0.1036
     24 N           0.8275    2.0376   20.4864 N.ar    1  UNL1       -0.2223
     25 C           2.2676    2.1339   20.8953 C.ar    1  UNL1        0.2001
     26 N           3.0969    0.8901   21.0190 N.ar    1  UNL1       -0.2089
     27 C           5.4178   -3.7852   19.6303 C.3     1  UNL1        0.1595
     28 C           5.9940   -2.7599   18.6993 C.3     1  UNL1        0.1688
     29 O           5.7022   -1.3042   18.9135 O.3     1  UNL1       -0.3435
     30 C           5.3189   -0.4371   17.7511 C.3     1  UNL1        0.2459
     31 C           3.9586    0.1932   17.7021 C.3     1  UNL1        0.4248
     32 F           2.5984    0.8235   17.6531 F       1  UNL1       -0.1674
     33 F           4.5468    1.4976   18.1521 F       1  UNL1       -0.1674
     34 F           3.3705   -1.1112   17.2520 F       1  UNL1       -0.1674
@<TRIPOS>BOND
     1     1     2    1
     2     2     3   ar
     3     3     4   ar
     4     4    27    1
     5    27    28    1
     6    28    29    1
     7    29    30    1
     8    30    31    1
     9    31    32    1
    10    31    33    1
    11    31    34    1
    12     4     5   ar
    13     5     6   ar
    14     6    19    1
    15    19    21    1
    16    21    22   ar
    17    22    23   ar
    18    23    24   ar
    19    24    25   ar
    20    25    26   ar
    21     6     7   ar
    22     7     8   ar
    23     8    11    1
    24    11    12    1
    25    12    13    1
    26    13    14    1
    27    14    15    1
    28    15    16    1
    29    15    17    1
    30     8     9   ar
    31     9    10   ar
    32    10     2   ar
    33    10     5   ar
    34    26    21   ar
    35    17    11    1
    36    19    20    1
    37    14    18    1
