@<TRIPOS>MOLECULE
*****
 57 63 0 0 0
SMALL
GASTEIGER

@<TRIPOS>ATOM
      1 C           3.5215   -2.0540   21.0877 C.3     1  UNL1        0.1698
      2 C           4.4966   -3.1708   20.8599 C.3     1  UNL1        0.0651
      3 C           5.3395   -3.6734   21.9943 C.3     1  UNL1        0.0991
      4 N           5.2073   -3.0594   23.3564 N.am    1  UNL1       -0.2570
      5 C           6.2638   -4.0377   23.7766 C.2     1  UNL1        0.3075
      6 O           6.5511   -4.7843   22.5077 O.2     1  UNL1       -0.2523
      7 N           7.1926   -4.6837   24.7615 N.am    1  UNL1       -0.2623
      8 C           7.8932   -5.7178   23.9309 C.3     1  UNL1        0.1164
      9 C           7.8096   -4.8695   26.1161 C.3     1  UNL1        0.0950
     10 C           7.9927   -4.5583   27.5720 C.3     1  UNL1        0.0219
     11 C           7.7055   -3.8117   28.8409 C.3     1  UNL1        0.0064
     12 C           7.0049   -2.7776   29.6715 C.3     1  UNL1        0.0258
     13 C           6.0297   -1.6608   29.8992 C.2     1  UNL1       -0.0306
     14 C           4.9731   -0.6825   29.4791 C.2     1  UNL1       -0.0289
     15 C           4.0444   -0.0365   28.4941 C.3     1  UNL1        0.0487
     16 C           2.9916    1.0117   28.2869 C.3     1  UNL1        0.0337
     17 C           3.4274    0.1493   27.1396 C.3     1  UNL1        0.1311
     18 N           3.2443   -0.1619   25.6836 N.am    1  UNL1       -0.2983
     19 C           3.5316   -0.9085   24.4147 C.2     1  UNL1        0.2410
     20 O           2.6028   -0.2625   23.4299 O.2     1  UNL1       -0.2733
     21 C           4.2321   -1.9426   23.5841 C.3     1  UNL1        0.1566
     22 C           3.3892   -1.4399   22.4498 C.3     1  UNL1        0.0728
     23 H           2.5508    0.4802   25.4078 H       1  UNL1        0.1498
     24 C           2.3777    1.0843   26.6161 C.2     1  UNL1        0.2567
     25 O           2.7803    2.3666   25.9499 O.2     1  UNL1       -0.2718
     26 N           0.9255    0.7370   26.7589 N.am    1  UNL1       -0.1876
     27 H           0.6613   -0.1046   27.1961 H       1  UNL1        0.1762
     28 S          -0.1242    1.6721   26.2354 S.O2    1  UNL1        0.0527
     29 O          -0.0402    1.0133   24.8903 O.2     1  UNL1       -0.1545
     30 O          -0.2082    2.3308   27.5804 O.2     1  UNL1       -0.1545
     31 C          -1.1738    2.6071   25.7120 C.3     1  UNL1        0.1288
     32 C          -0.7364    2.7152   24.2812 C.3     1  UNL1        0.0255
     33 C          -2.3754    3.5046   25.6854 C.3     1  UNL1        0.0255
     34 C          -1.9759    2.8238   26.9609 C.3     1  UNL1        0.0255
     35 O           2.6786   -1.5513   19.9532 O.3     1  UNL1       -0.4789
     36 C           5.8862    2.1227   17.6160 C.ar    1  UNL1        0.1361
     37 C           6.0039    0.6486   17.8671 C.ar    1  UNL1        0.0368
     38 C           4.8955   -0.0847   18.5624 C.ar    1  UNL1        0.0076
     39 C           3.6692    0.6561   19.0068 C.ar    1  UNL1        0.0515
     40 C           2.5608   -0.0772   19.7022 C.ar    1  UNL1        0.1413
     41 C           1.3346    0.6637   20.1466 C.ar    1  UNL1        0.0581
     42 C           1.2167    2.1378   19.8956 C.ar    1  UNL1        0.1080
     43 N           2.3253    2.8711   19.2002 N.ar    1  UNL1       -0.2433
     44 C           3.5514    2.1303   18.7558 C.ar    1  UNL1        0.0832
     45 C           4.6599    2.8635   18.0604 C.ar    1  UNL1        0.0298
     46 C           4.5421    4.3377   17.8094 C.3     1  UNL1        0.0358
     47 C          -0.0095    2.8787   20.3400 C.ar    1  UNL1        0.1284
     48 N          -1.3927    2.3089   20.4495 N.ar    1  UNL1       -0.2328
     49 C          -2.3058    3.3977   20.9301 C.ar    1  UNL1        0.1597
     50 C          -1.4868    4.6403   21.1176 C.ar    1  UNL1        0.0600
     51 S          -0.0676    4.3196   20.7529 S.2     1  UNL1       -0.0645
     52 C          -3.7791    3.2667   21.1793 C.3     1  UNL1        0.4354
     53 F          -5.2524    3.1356   21.4287 F       1  UNL1       -0.1644
     54 F          -3.5367    3.3531   22.6571 F       1  UNL1       -0.1644
     55 F          -4.0214    3.1802   19.7016 F       1  UNL1       -0.1644
     56 C           8.1008    2.0897   16.2578 C.3     1  UNL1        0.2525
     57 O           6.9946    2.8560   16.9206 O.3     1  UNL1       -0.4717
@<TRIPOS>BOND
     1    56    57    1
     2    57    36    1
     3    36    37   ar
     4    37    38   ar
     5    38    39   ar
     6    39    40   ar
     7    40    35    1
     8     1    35    1
     9     1     2    1
    10     2     3    1
    11     3     4    1
    12     4     5   am
    13     5     6    2
    14     5     7   am
    15     7     8    1
    16     7     9    1
    17     9    10    1
    18    10    11    1
    19    11    12    1
    20    12    13    1
    21    13    14    2
    22    14    15    1
    23    15    16    1
    24    16    17    1
    25    17    24    1
    26    24    25    2
    27    24    26   am
    28    26    28    1
    29    28    29    2
    30    28    30    2
    31    28    31    1
    32    31    32    1
    33    31    33    1
    34    33    34    1
    35    17    18    1
    36    18    19   am
    37    19    20    2
    38    19    21    1
    39    21    22    1
    40    40    41   ar
    41    41    42   ar
    42    42    47    1
    43    47    48   ar
    44    48    49   ar
    45    49    52    1
    46    52    53    1
    47    52    54    1
    48    52    55    1
    49    49    50   ar
    50    50    51   ar
    51    42    43   ar
    52    43    44   ar
    53    44    45   ar
    54    45    46    1
    55    45    36   ar
    56    44    39   ar
    57    22     1    1
    58    51    47   ar
    59    21     4    1
    60    17    15    1
    61    34    31    1
    62    26    27    1
    63    18    23    1
@<TRIPOS>MOLECULE
*****
 57 63 0 0 0
SMALL
GASTEIGER

@<TRIPOS>ATOM
      1 C           5.0354   -0.6596   26.8397 C.3     1  UNL1        0.1698
      2 C           4.2651   -0.6103   28.1258 C.3     1  UNL1        0.0651
      3 C           2.9143    0.0404   28.1665 C.3     1  UNL1        0.0991
      4 N           2.3336    0.6419   26.9211 N.am    1  UNL1       -0.2570
      5 C           1.1558    0.9999   27.7781 C.2     1  UNL1        0.3075
      6 O           1.5474    0.4654   29.1238 O.2     1  UNL1       -0.2523
      7 N          -0.1963    1.5959   28.0361 N.am    1  UNL1       -0.2623
      8 C          -0.4065    1.3266   29.4967 C.3     1  UNL1        0.1164
      9 C          -1.4549    2.3117   27.6442 C.3     1  UNL1        0.0950
     10 C          -2.3707    3.0056   26.6799 C.3     1  UNL1        0.0219
     11 C          -2.7623    3.5401   25.3343 C.3     1  UNL1        0.0064
     12 C          -2.5521    3.8094   23.8737 C.3     1  UNL1        0.0258
     13 C          -1.7818    3.7602   22.5875 C.2     1  UNL1       -0.0306
     14 C          -0.6039    3.4021   21.7304 C.2     1  UNL1       -0.0289
     15 C           0.7482    2.8062   21.4724 C.3     1  UNL1        0.0487
     16 C           1.8130    2.5460   20.4484 C.3     1  UNL1        0.0337
     17 C           2.0068    2.0904   21.8643 C.3     1  UNL1        0.1311
     18 N           2.9226    1.3964   22.8286 N.am    1  UNL1       -0.2983
     19 C           3.3141    0.8619   24.1744 C.2     1  UNL1        0.2410
     20 O           4.6662    0.2660   23.9163 O.2     1  UNL1       -0.2733
     21 C           3.1040    0.5926   25.6349 C.3     1  UNL1        0.1566
     22 C           4.4548   -0.0581   25.5942 C.3     1  UNL1        0.0728
     23 H           3.6957    1.1614   22.2661 H       1  UNL1        0.1498
     24 C           3.2315    1.6862   21.0982 C.2     1  UNL1        0.2567
     25 O           4.4619    2.5429   21.1446 O.2     1  UNL1       -0.2718
     26 N           3.2257    0.4253   20.2858 N.am    1  UNL1       -0.1876
     27 H           2.4182   -0.1370   20.2553 H       1  UNL1        0.1762
     28 S           4.4504    0.0212   19.5197 S.O2    1  UNL1        0.0527
     29 O           4.9906   -0.6595   20.7424 O.2     1  UNL1       -0.1545
     30 O           3.9102    0.7018   18.2970 O.2     1  UNL1       -0.1545
     31 C           5.6750   -0.3829   18.7536 C.3     1  UNL1        0.1288
     32 C           6.7356   -0.0361   19.7561 C.3     1  UNL1        0.0255
     33 C           6.5314   -0.9075   17.6394 C.3     1  UNL1        0.0255
     34 C           5.0398   -0.8701   17.4851 C.3     1  UNL1        0.0255
     35 O           6.3863   -1.3104   26.7990 O.3     1  UNL1       -0.4789
     36 C           8.3532   -6.2001   28.0121 C.ar    1  UNL1        0.1361
     37 C           8.1527   -4.9362   28.7946 C.ar    1  UNL1        0.0368
     38 C           7.5640   -3.7276   28.1294 C.ar    1  UNL1        0.0076
     39 C           7.1756   -3.7828   26.6816 C.ar    1  UNL1        0.0515
     40 C           6.5867   -2.5741   26.0164 C.ar    1  UNL1        0.1413
     41 C           6.1984   -2.6295   24.5687 C.ar    1  UNL1        0.0581
     42 C           6.3988   -3.8933   23.7860 C.ar    1  UNL1        0.1080
     43 N           6.9876   -5.1019   24.4513 N.ar    1  UNL1       -0.2433
     44 C           7.3760   -5.0467   25.8990 C.ar    1  UNL1        0.0832
     45 C           7.9648   -6.2553   26.5643 C.ar    1  UNL1        0.0298
     46 C           8.1652   -7.5192   25.7816 C.3     1  UNL1        0.0358
     47 C           6.0104   -3.9486   22.3382 C.ar    1  UNL1        0.1284
     48 N           4.6401   -4.2422   21.8035 N.ar    1  UNL1       -0.2328
     49 C           4.7071   -4.1951   20.3057 C.ar    1  UNL1        0.1597
     50 C           6.1188   -3.8723   19.9148 C.ar    1  UNL1        0.0600
     51 S           6.9243   -3.7200   21.1710 S.2     1  UNL1       -0.0645
     52 C           3.5631   -4.4295   19.3643 C.3     1  UNL1        0.4354
     53 F           2.4192   -4.6642   18.4228 F       1  UNL1       -0.1644
     54 F           3.8901   -5.8931   19.3315 F       1  UNL1       -0.1644
     55 F           3.2361   -2.9661   19.3970 F       1  UNL1       -0.1644
     56 C           9.5360   -7.2948   30.0499 C.3     1  UNL1        0.2525
     57 O           8.9420   -7.4087   28.6772 O.3     1  UNL1       -0.4717
@<TRIPOS>BOND
     1    56    57    1
     2    57    36    1
     3    36    37   ar
     4    37    38   ar
     5    38    39   ar
     6    39    40   ar
     7    40    35    1
     8     1    35    1
     9     1     2    1
    10     2     3    1
    11     3     4    1
    12     4     5   am
    13     5     6    2
    14     5     7   am
    15     7     8    1
    16     7     9    1
    17     9    10    1
    18    10    11    1
    19    11    12    1
    20    12    13    1
    21    13    14    2
    22    14    15    1
    23    15    16    1
    24    16    17    1
    25    17    24    1
    26    24    25    2
    27    24    26   am
    28    26    28    1
    29    28    29    2
    30    28    30    2
    31    28    31    1
    32    31    32    1
    33    31    33    1
    34    33    34    1
    35    17    18    1
    36    18    19   am
    37    19    20    2
    38    19    21    1
    39    21    22    1
    40    40    41   ar
    41    41    42   ar
    42    42    47    1
    43    47    48   ar
    44    48    49   ar
    45    49    52    1
    46    52    53    1
    47    52    54    1
    48    52    55    1
    49    49    50   ar
    50    50    51   ar
    51    42    43   ar
    52    43    44   ar
    53    44    45   ar
    54    45    46    1
    55    45    36   ar
    56    44    39   ar
    57    22     1    1
    58    51    47   ar
    59    21     4    1
    60    17    15    1
    61    34    31    1
    62    26    27    1
    63    18    23    1
@<TRIPOS>MOLECULE
*****
 57 63 0 0 0
SMALL
GASTEIGER

@<TRIPOS>ATOM
      1 C           3.9379    2.0854   26.5698 C.3     1  UNL1        0.1698
      2 C           3.7773    2.4035   28.0268 C.3     1  UNL1        0.0651
      3 C           4.1993    1.4048   29.0634 C.3     1  UNL1        0.0991
      4 N           4.7820    0.0881   28.6430 N.am    1  UNL1       -0.2570
      5 C           4.8890   -0.2053   30.1100 C.2     1  UNL1        0.3075
      6 O           4.3353    1.0381   30.7405 O.2     1  UNL1       -0.2523
      7 N           5.2424   -1.0522   31.2966 N.am    1  UNL1       -0.2623
      8 C           4.8460   -0.1856   32.4551 C.3     1  UNL1        0.1164
      9 C           5.7722   -2.2847   31.9677 C.3     1  UNL1        0.0950
     10 C           6.3735   -3.6587   31.9903 C.3     1  UNL1        0.0219
     11 C           6.9272   -4.9021   31.3599 C.3     1  UNL1        0.0064
     12 C           7.3235   -5.7687   30.2015 C.3     1  UNL1        0.0258
     13 C           7.4841   -6.0867   28.7444 C.2     1  UNL1       -0.0306
     14 C           7.3771   -5.7933   27.2773 C.2     1  UNL1       -0.0289
     15 C           7.0237   -4.9464   26.0907 C.3     1  UNL1        0.0487
     16 C           7.0062   -4.8563   24.5935 C.3     1  UNL1        0.0337
     17 C           6.4939   -3.7140   25.4197 C.3     1  UNL1        0.1311
     18 N           5.8926   -2.3399   25.3970 N.am    1  UNL1       -0.2983
     19 C           5.3390   -1.0965   26.0275 C.2     1  UNL1        0.2410
     20 O           4.9856   -0.2497   24.8409 O.2     1  UNL1       -0.2733
     21 C           4.9426   -0.2299   27.1859 C.3     1  UNL1        0.1566
     22 C           4.5205    0.7687   26.1493 C.3     1  UNL1        0.0728
     23 H           5.8224   -2.1473   24.4341 H       1  UNL1        0.1498
     24 C           6.3429   -3.3210   23.9799 C.2     1  UNL1        0.2567
     25 O           7.4599   -2.6094   23.2756 O.2     1  UNL1       -0.2718
     26 N           5.0750   -3.6397   23.2446 N.am    1  UNL1       -0.1876
     27 H           4.3419   -4.1067   23.7069 H       1  UNL1        0.1762
     28 S           4.9240   -3.2467   21.8048 S.O2    1  UNL1        0.0527
     29 O           5.7703   -4.4161   21.3969 O.2     1  UNL1       -0.1545
     30 O           4.0778   -2.0773   22.2127 O.2     1  UNL1       -0.1545
     31 C           4.7730   -2.8537   20.3651 C.3     1  UNL1        0.1288
     32 C           5.6497   -1.6369   20.3340 C.3     1  UNL1        0.0255
     33 C           4.3176   -2.8832   18.9362 C.3     1  UNL1        0.0255
     34 C           3.8439   -3.9339   19.8963 C.3     1  UNL1        0.0255
     35 O           3.5158    3.0841   25.5332 O.3     1  UNL1       -0.4789
     36 C           2.6288    1.1467   20.5623 C.ar    1  UNL1        0.1361
     37 C           3.8633    1.3896   21.3790 C.ar    1  UNL1        0.0368
     38 C           3.7475    1.9544   22.7637 C.ar    1  UNL1        0.0076
     39 C           2.3971    2.2764   23.3318 C.ar    1  UNL1        0.0515
     40 C           2.2813    2.8413   24.7166 C.ar    1  UNL1        0.1413
     41 C           0.9309    3.1632   25.2846 C.ar    1  UNL1        0.0581
     42 C          -0.3037    2.9204   24.4681 C.ar    1  UNL1        0.1080
     43 N          -0.1878    2.3555   23.0833 N.ar    1  UNL1       -0.2433
     44 C           1.1625    2.0335   22.5152 C.ar    1  UNL1        0.0832
     45 C           1.2784    1.4687   21.1305 C.ar    1  UNL1        0.0298
     46 C           0.0438    1.2258   20.3138 C.3     1  UNL1        0.0358
     47 C          -1.6541    3.2424   25.0361 C.ar    1  UNL1        0.1284
     48 N          -2.9200    3.4238   24.2521 N.ar    1  UNL1       -0.2328
     49 C          -4.0240    3.7330   25.2195 C.ar    1  UNL1        0.1597
     50 C          -3.4404    3.7427   26.6013 C.ar    1  UNL1        0.0600
     51 S          -1.9757    3.4395   26.4879 S.2     1  UNL1       -0.0645
     52 C          -5.4595    3.9878   24.8668 C.3     1  UNL1        0.4354
     53 F          -6.8950    4.2426   24.5143 F       1  UNL1       -0.1644
     54 F          -5.6140    4.8257   26.1013 F       1  UNL1       -0.1644
     55 F          -5.3050    3.1499   23.6324 F       1  UNL1       -0.1644
     56 C           3.8751    1.0050   18.2870 C.3     1  UNL1        0.2525
     57 O           2.7446    0.5818   19.1776 O.3     1  UNL1       -0.4717
@<TRIPOS>BOND
     1    56    57    1
     2    57    36    1
     3    36    37   ar
     4    37    38   ar
     5    38    39   ar
     6    39    40   ar
     7    40    35    1
     8     1    35    1
     9     1     2    1
    10     2     3    1
    11     3     4    1
    12     4     5   am
    13     5     6    2
    14     5     7   am
    15     7     8    1
    16     7     9    1
    17     9    10    1
    18    10    11    1
    19    11    12    1
    20    12    13    1
    21    13    14    2
    22    14    15    1
    23    15    16    1
    24    16    17    1
    25    17    24    1
    26    24    25    2
    27    24    26   am
    28    26    28    1
    29    28    29    2
    30    28    30    2
    31    28    31    1
    32    31    32    1
    33    31    33    1
    34    33    34    1
    35    17    18    1
    36    18    19   am
    37    19    20    2
    38    19    21    1
    39    21    22    1
    40    40    41   ar
    41    41    42   ar
    42    42    47    1
    43    47    48   ar
    44    48    49   ar
    45    49    52    1
    46    52    53    1
    47    52    54    1
    48    52    55    1
    49    49    50   ar
    50    50    51   ar
    51    42    43   ar
    52    43    44   ar
    53    44    45   ar
    54    45    46    1
    55    45    36   ar
    56    44    39   ar
    57    22     1    1
    58    51    47   ar
    59    21     4    1
    60    17    15    1
    61    34    31    1
    62    26    27    1
    63    18    23    1
@<TRIPOS>MOLECULE
*****
 57 63 0 0 0
SMALL
GASTEIGER

@<TRIPOS>ATOM
      1 C           3.8931    2.2154   26.9656 C.3     1  UNL1        0.1698
      2 C           3.7559    2.4806   28.4356 C.3     1  UNL1        0.0651
      3 C           4.1873    1.4424   29.4285 C.3     1  UNL1        0.0991
      4 N           4.7560    0.1390   28.9516 N.am    1  UNL1       -0.2570
      5 C           4.8828   -0.2086   30.4052 C.2     1  UNL1        0.3075
      6 O           4.3458    1.0138   31.0888 O.2     1  UNL1       -0.2523
      7 N           5.2487   -1.1003   31.5546 N.am    1  UNL1       -0.2623
      8 C           4.8745   -0.2747   32.7497 C.3     1  UNL1        0.1164
      9 C           5.7811   -2.3594   32.1721 C.3     1  UNL1        0.0950
     10 C           6.3746   -3.7365   32.1354 C.3     1  UNL1        0.0219
     11 C           6.9116   -4.9589   31.4519 C.3     1  UNL1        0.0064
     12 C           7.2858   -5.7845   30.2567 C.3     1  UNL1        0.0258
     13 C           7.4231   -6.0497   28.7867 C.2     1  UNL1       -0.0306
     14 C           7.2962   -5.7022   27.3331 C.2     1  UNL1       -0.0289
     15 C           6.9304   -4.8105   26.1837 C.3     1  UNL1        0.0487
     16 C           6.8913   -4.6655   24.6912 C.3     1  UNL1        0.0337
     17 C           6.3980   -3.5514   25.5661 C.3     1  UNL1        0.1311
     18 N           5.8045   -2.1743   25.6028 N.am    1  UNL1       -0.2983
     19 C           5.2674   -0.9519   26.2865 C.2     1  UNL1        0.2410
     20 O           4.9016   -0.0603   25.1371 O.2     1  UNL1       -0.2733
     21 C           4.8932   -0.1263   27.4816 C.3     1  UNL1        0.1566
     22 C           4.4618    0.9119   26.4886 C.3     1  UNL1        0.0728
     23 H           5.7212   -1.9461   24.6487 H       1  UNL1        0.1498
     24 C           6.2281   -3.1051   24.1441 C.2     1  UNL1        0.2567
     25 O           7.2454   -2.1995   23.5157 O.2     1  UNL1       -0.2718
     26 N           5.0409   -3.5645   23.3507 N.am    1  UNL1       -0.1876
     27 H           4.3733   -4.1589   23.7632 H       1  UNL1        0.1762
     28 S           4.8711   -3.1182   21.9287 S.O2    1  UNL1        0.0527
     29 O           4.0738   -1.9362   22.3949 O.2     1  UNL1       -0.1545
     30 O           5.6683   -4.3002   21.4625 O.2     1  UNL1       -0.1545
     31 C           4.7013   -2.6720   20.5067 C.3     1  UNL1        0.1288
     32 C           5.3914   -1.3415   20.5671 C.3     1  UNL1        0.0255
     33 C           4.2919   -2.6877   19.0638 C.3     1  UNL1        0.0255
     34 C           3.9522   -3.8475   19.9525 C.3     1  UNL1        0.0255
     35 O           3.4617    3.2536   25.9727 O.3     1  UNL1       -0.4789
     36 C          -1.8536    4.1144   26.4793 C.ar    1  UNL1        0.1361
     37 C          -0.6697    4.3693   27.3644 C.ar    1  UNL1        0.0368
     38 C           0.7074    3.9974   26.9005 C.ar    1  UNL1        0.0076
     39 C           0.9007    3.3707   25.5515 C.ar    1  UNL1        0.0515
     40 C           2.2779    2.9988   25.0876 C.ar    1  UNL1        0.1413
     41 C           2.4710    2.3721   23.7386 C.ar    1  UNL1        0.0581
     42 C           1.2872    2.1172   22.8534 C.ar    1  UNL1        0.1080
     43 N          -0.0900    2.4891   23.3174 N.ar    1  UNL1       -0.2433
     44 C          -0.2832    3.1158   24.6663 C.ar    1  UNL1        0.0832
     45 C          -1.6603    3.4877   25.1303 C.ar    1  UNL1        0.0298
     46 C          -2.8442    3.2328   24.2451 C.3     1  UNL1        0.0358
     47 C           1.4804    1.4904   21.5044 C.ar    1  UNL1        0.1284
     48 N           2.7074    1.6003   20.6486 N.ar    1  UNL1       -0.2328
     49 C           2.4656    0.8215   19.3896 C.ar    1  UNL1        0.1597
     50 C           1.0892    0.2303   19.4673 C.ar    1  UNL1        0.0600
     51 S           0.4803    0.6438   20.7743 S.2     1  UNL1       -0.0645
     52 C           3.4309    0.6620   18.2526 C.3     1  UNL1        0.4354
     53 F           4.3963    0.5026   17.1157 F       1  UNL1       -0.1644
     54 F           4.4398    1.4888   18.9933 F       1  UNL1       -0.1644
     55 F           2.4221   -0.1647   17.5120 F       1  UNL1       -0.1644
     56 C          -3.5512    5.9142   27.2725 C.3     1  UNL1        0.2525
     57 O          -3.2307    4.4863   26.9432 O.3     1  UNL1       -0.4717
@<TRIPOS>BOND
     1    56    57    1
     2    57    36    1
     3    36    37   ar
     4    37    38   ar
     5    38    39   ar
     6    39    40   ar
     7    40    35    1
     8     1    35    1
     9     1     2    1
    10     2     3    1
    11     3     4    1
    12     4     5   am
    13     5     6    2
    14     5     7   am
    15     7     8    1
    16     7     9    1
    17     9    10    1
    18    10    11    1
    19    11    12    1
    20    12    13    1
    21    13    14    2
    22    14    15    1
    23    15    16    1
    24    16    17    1
    25    17    24    1
    26    24    25    2
    27    24    26   am
    28    26    28    1
    29    28    29    2
    30    28    30    2
    31    28    31    1
    32    31    32    1
    33    31    33    1
    34    33    34    1
    35    17    18    1
    36    18    19   am
    37    19    20    2
    38    19    21    1
    39    21    22    1
    40    40    41   ar
    41    41    42   ar
    42    42    47    1
    43    47    48   ar
    44    48    49   ar
    45    49    52    1
    46    52    53    1
    47    52    54    1
    48    52    55    1
    49    49    50   ar
    50    50    51   ar
    51    42    43   ar
    52    43    44   ar
    53    44    45   ar
    54    45    46    1
    55    45    36   ar
    56    44    39   ar
    57    22     1    1
    58    51    47   ar
    59    21     4    1
    60    17    15    1
    61    34    31    1
    62    26    27    1
    63    18    23    1
@<TRIPOS>MOLECULE
*****
 57 63 0 0 0
SMALL
GASTEIGER

@<TRIPOS>ATOM
      1 C           4.0247    0.3018   26.2213 C.3     1  UNL1        0.1698
      2 C           2.9998    0.5734   27.2824 C.3     1  UNL1        0.0651
      3 C           1.6819    1.1869   26.9125 C.3     1  UNL1        0.0991
      4 N           1.3889    1.5288   25.4818 N.am    1  UNL1       -0.2570
      5 C           0.0620    2.0129   25.9866 C.2     1  UNL1        0.3075
      6 O           0.1501    1.7510   27.4610 O.2     1  UNL1       -0.2523
      7 N          -1.3041    2.6135   25.8353 N.am    1  UNL1       -0.2623
      8 C          -1.8240    2.6189   27.2423 C.3     1  UNL1        0.1164
      9 C          -2.4389    3.2117   25.0579 C.3     1  UNL1        0.0950
     10 C          -3.1176    3.6891   23.8082 C.3     1  UNL1        0.0219
     11 C          -3.2057    3.9510   22.3339 C.3     1  UNL1        0.0064
     12 C          -2.6858    3.9456   20.9269 C.3     1  UNL1        0.0258
     13 C          -1.6609    3.6739   19.8659 C.2     1  UNL1       -0.0306
     14 C          -0.3339    3.1899   19.3610 C.2     1  UNL1       -0.0289
     15 C           1.0322    2.5892   19.5123 C.3     1  UNL1        0.0487
     16 C           2.2857    2.1671   18.8049 C.3     1  UNL1        0.0337
     17 C           2.1670    1.9910   20.2897 C.3     1  UNL1        0.1311
     18 N           2.8457    1.5137   21.5394 N.am    1  UNL1       -0.2983
     19 C           2.9338    1.2518   23.0137 C.2     1  UNL1        0.2410
     20 O           4.2999    0.6512   23.1650 O.2     1  UNL1       -0.2733
     21 C           2.4139    1.2572   24.4207 C.3     1  UNL1        0.1566
     22 C           3.7317    0.6437   24.7905 C.3     1  UNL1        0.0728
     23 H           3.7166    1.1960   21.2080 H       1  UNL1        0.1498
     24 C           3.5197    1.4800   19.8907 C.2     1  UNL1        0.2567
     25 O           4.6959    2.4106   19.8664 O.2     1  UNL1       -0.2718
     26 N           3.6960    0.0383   19.5158 N.am    1  UNL1       -0.1876
     27 H           2.9241   -0.5724   19.5318 H       1  UNL1        0.1762
     28 S           5.0487   -0.4727   19.1168 S.O2    1  UNL1        0.0527
     29 O           4.6832   -0.3112   17.6710 O.2     1  UNL1       -0.1545
     30 O           5.4142   -0.6342   20.5626 O.2     1  UNL1       -0.1545
     31 C           6.4013   -0.9838   18.7178 C.3     1  UNL1        0.1288
     32 C           6.0213   -1.8387   17.5453 C.3     1  UNL1        0.0255
     33 C           7.8859   -1.1980   18.7259 C.3     1  UNL1        0.0255
     34 C           7.2511   -0.3063   19.7517 C.3     1  UNL1        0.0255
     35 O           5.3426   -0.3117   26.5912 O.3     1  UNL1       -0.4789
     36 C           7.1301   -4.8330   28.9602 C.ar    1  UNL1        0.1361
     37 C           6.7710   -3.4667   29.4644 C.ar    1  UNL1        0.0368
     38 C           6.2949   -2.4151   28.5067 C.ar    1  UNL1        0.0076
     39 C           6.1779   -2.7297   27.0447 C.ar    1  UNL1        0.0515
     40 C           5.7017   -1.6779   26.0870 C.ar    1  UNL1        0.1413
     41 C           5.5847   -1.9926   24.6251 C.ar    1  UNL1        0.0581
     42 C           5.9438   -3.3589   24.1208 C.ar    1  UNL1        0.1080
     43 N           6.4200   -4.4106   25.0786 N.ar    1  UNL1       -0.2433
     44 C           6.5370   -4.0960   26.5405 C.ar    1  UNL1        0.0832
     45 C           7.0131   -5.1476   27.4983 C.ar    1  UNL1        0.0298
     46 C           7.3723   -6.5140   26.9940 C.3     1  UNL1        0.0358
     47 C           5.8269   -3.6736   22.6588 C.ar    1  UNL1        0.1284
     48 N           4.5485   -3.8574   21.8960 N.ar    1  UNL1       -0.2328
     49 C           4.8994   -4.1571   20.4687 C.ar    1  UNL1        0.1597
     50 C           6.3947   -4.1586   20.3495 C.ar    1  UNL1        0.0600
     51 S           6.9679   -3.8597   21.7031 S.2     1  UNL1       -0.0645
     52 C           3.9259   -4.4109   19.3562 C.3     1  UNL1        0.4354
     53 F           2.9523   -4.6645   18.2436 F       1  UNL1       -0.1644
     54 F           3.1594   -3.1820   19.7467 F       1  UNL1       -0.1644
     55 F           4.6924   -5.6396   18.9656 F       1  UNL1       -0.1644
     56 C           7.2873   -5.7684   31.3790 C.3     1  UNL1        0.2525
     57 O           7.6063   -5.8847   29.9179 O.3     1  UNL1       -0.4717
@<TRIPOS>BOND
     1    56    57    1
     2    57    36    1
     3    36    37   ar
     4    37    38   ar
     5    38    39   ar
     6    39    40   ar
     7    40    35    1
     8     1    35    1
     9     1     2    1
    10     2     3    1
    11     3     4    1
    12     4     5   am
    13     5     6    2
    14     5     7   am
    15     7     8    1
    16     7     9    1
    17     9    10    1
    18    10    11    1
    19    11    12    1
    20    12    13    1
    21    13    14    2
    22    14    15    1
    23    15    16    1
    24    16    17    1
    25    17    24    1
    26    24    25    2
    27    24    26   am
    28    26    28    1
    29    28    29    2
    30    28    30    2
    31    28    31    1
    32    31    32    1
    33    31    33    1
    34    33    34    1
    35    17    18    1
    36    18    19   am
    37    19    20    2
    38    19    21    1
    39    21    22    1
    40    40    41   ar
    41    41    42   ar
    42    42    47    1
    43    47    48   ar
    44    48    49   ar
    45    49    52    1
    46    52    53    1
    47    52    54    1
    48    52    55    1
    49    49    50   ar
    50    50    51   ar
    51    42    43   ar
    52    43    44   ar
    53    44    45   ar
    54    45    46    1
    55    45    36   ar
    56    44    39   ar
    57    22     1    1
    58    51    47   ar
    59    21     4    1
    60    17    15    1
    61    34    31    1
    62    26    27    1
    63    18    23    1
@<TRIPOS>MOLECULE
*****
 57 63 0 0 0
SMALL
GASTEIGER

@<TRIPOS>ATOM
      1 C           2.8005   -0.3100   23.9909 C.3     1  UNL1        0.1698
      2 C           1.7743    0.6824   24.4513 C.3     1  UNL1        0.0651
      3 C           1.6459    1.0064   25.9102 C.3     1  UNL1        0.0991
      4 N           2.5437    0.3380   26.9088 N.am    1  UNL1       -0.2570
      5 C           1.8119    1.1458   27.9392 C.2     1  UNL1        0.3075
      6 O           0.8247    1.9201   27.1170 O.2     1  UNL1       -0.2523
      7 N           1.5194    1.6091   29.3356 N.am    1  UNL1       -0.2623
      8 C           0.4021    2.5896   29.1348 C.3     1  UNL1        0.1164
      9 C           1.7241    1.6361   30.8213 C.3     1  UNL1        0.0950
     10 C           2.3855    1.2214   32.1022 C.3     1  UNL1        0.0219
     11 C           3.3726    0.4471   32.9244 C.3     1  UNL1        0.0064
     12 C           4.4899   -0.5333   33.1252 C.3     1  UNL1        0.0258
     13 C           5.5161   -1.5258   32.6648 C.2     1  UNL1       -0.0306
     14 C           6.2480   -2.3337   31.6344 C.2     1  UNL1       -0.0289
     15 C           6.5405   -2.7970   30.2380 C.3     1  UNL1        0.0487
     16 C           7.3901   -3.6867   29.3799 C.3     1  UNL1        0.0337
     17 C           6.3358   -2.8240   28.7523 C.3     1  UNL1        0.1311
     18 N           5.6743   -2.4092   27.4715 N.am    1  UNL1       -0.2983
     19 C           4.6872   -1.6349   26.6492 C.2     1  UNL1        0.2410
     20 O           4.9797   -2.0982   25.2530 O.2     1  UNL1       -0.2733
     21 C           3.5699   -0.6545   26.4484 C.3     1  UNL1        0.1566
     22 C           3.6983   -0.9785   24.9895 C.3     1  UNL1        0.0728
     23 H           6.1547   -2.9395   26.7952 H       1  UNL1        0.1498
     24 C           7.0024   -3.5840   27.6442 C.2     1  UNL1        0.2567
     25 O           8.2833   -3.0763   27.0512 O.2     1  UNL1       -0.2718
     26 N           6.3880   -4.8517   27.1290 N.am    1  UNL1       -0.1876
     27 H           5.5473   -5.1849   27.5182 H       1  UNL1        0.1762
     28 S           7.0546   -5.6118   26.0208 S.O2    1  UNL1        0.0527
     29 O           6.5385   -4.6145   25.0263 O.2     1  UNL1       -0.1545
     30 O           7.5708   -6.6091   27.0153 O.2     1  UNL1       -0.1545
     31 C           7.7212   -6.3719   24.9127 C.3     1  UNL1        0.1288
     32 C           7.7267   -5.3208   23.8425 C.3     1  UNL1        0.0255
     33 C           8.3859   -7.4969   24.1762 C.3     1  UNL1        0.0255
     34 C           7.9472   -7.6869   25.5981 C.3     1  UNL1        0.0255
     35 O           2.9289   -0.6340   22.5319 O.3     1  UNL1       -0.4789
     36 C           6.2329    1.8939   19.0761 C.ar    1  UNL1        0.1361
     37 C           6.4277    0.8183   20.1032 C.ar    1  UNL1        0.0368
     38 C           5.2615    0.3342   20.9128 C.ar    1  UNL1        0.0076
     39 C           3.9003    0.9257   20.6953 C.ar    1  UNL1        0.0515
     40 C           2.7340    0.4416   21.5049 C.ar    1  UNL1        0.1413
     41 C           1.3729    1.0332   21.2873 C.ar    1  UNL1        0.0581
     42 C           1.1779    2.1088   20.2602 C.ar    1  UNL1        0.1080
     43 N           2.3443    2.5929   19.4506 N.ar    1  UNL1       -0.2433
     44 C           3.7054    2.0014   19.6681 C.ar    1  UNL1        0.0832
     45 C           4.8717    2.4854   18.8586 C.ar    1  UNL1        0.0298
     46 C           4.6768    3.5611   17.8314 C.3     1  UNL1        0.0358
     47 C          -0.1832    2.7004   20.0426 C.ar    1  UNL1        0.1284
     48 N          -1.4050    2.4289   20.8692 N.ar    1  UNL1       -0.2328
     49 C          -2.5384    3.2282   20.2976 C.ar    1  UNL1        0.1597
     50 C          -2.0170    3.9936   19.1176 C.ar    1  UNL1        0.0600
     51 S          -0.5613    3.6674   18.9601 S.2     1  UNL1       -0.0645
     52 C          -3.9460    3.2568   20.8150 C.3     1  UNL1        0.4354
     53 F          -5.3536    3.2855   21.3324 F       1  UNL1       -0.1644
     54 F          -4.4632    3.2752   19.4071 F       1  UNL1       -0.1644
     55 F          -3.4288    3.2385   22.2229 F       1  UNL1       -0.1644
     56 C           7.9067    1.5580   17.1176 C.3     1  UNL1        0.2525
     57 O           7.3992    2.3780   18.2665 O.3     1  UNL1       -0.4717
@<TRIPOS>BOND
     1    56    57    1
     2    57    36    1
     3    36    37   ar
     4    37    38   ar
     5    38    39   ar
     6    39    40   ar
     7    40    35    1
     8     1    35    1
     9     1     2    1
    10     2     3    1
    11     3     4    1
    12     4     5   am
    13     5     6    2
    14     5     7   am
    15     7     8    1
    16     7     9    1
    17     9    10    1
    18    10    11    1
    19    11    12    1
    20    12    13    1
    21    13    14    2
    22    14    15    1
    23    15    16    1
    24    16    17    1
    25    17    24    1
    26    24    25    2
    27    24    26   am
    28    26    28    1
    29    28    29    2
    30    28    30    2
    31    28    31    1
    32    31    32    1
    33    31    33    1
    34    33    34    1
    35    17    18    1
    36    18    19   am
    37    19    20    2
    38    19    21    1
    39    21    22    1
    40    40    41   ar
    41    41    42   ar
    42    42    47    1
    43    47    48   ar
    44    48    49   ar
    45    49    52    1
    46    52    53    1
    47    52    54    1
    48    52    55    1
    49    49    50   ar
    50    50    51   ar
    51    42    43   ar
    52    43    44   ar
    53    44    45   ar
    54    45    46    1
    55    45    36   ar
    56    44    39   ar
    57    22     1    1
    58    51    47   ar
    59    21     4    1
    60    17    15    1
    61    34    31    1
    62    26    27    1
    63    18    23    1
@<TRIPOS>MOLECULE
*****
 57 63 0 0 0
SMALL
GASTEIGER

@<TRIPOS>ATOM
      1 C           0.8606    1.3379   25.1513 C.3     1  UNL1        0.1698
      2 C           0.0469    1.9624   26.2457 C.3     1  UNL1        0.0651
      3 C           0.4790    1.8218   27.6752 C.3     1  UNL1        0.0991
      4 N           1.7248    1.0567   28.0103 N.am    1  UNL1       -0.2570
      5 C           1.4120    1.3924   29.4383 C.2     1  UNL1        0.3075
      6 O           0.1472    2.1907   29.3242 O.2     1  UNL1       -0.2523
      7 N           1.6621    1.3729   30.9172 N.am    1  UNL1       -0.2623
      8 C           0.5086    2.1626   31.4612 C.3     1  UNL1        0.1164
      9 C           2.4256    1.0021   32.1540 C.3     1  UNL1        0.0950
     10 C           3.5512    0.3532   32.9038 C.3     1  UNL1        0.0219
     11 C           4.8159   -0.4450   33.0180 C.3     1  UNL1        0.0064
     12 C           5.9695   -1.2346   32.4740 C.3     1  UNL1        0.0258
     13 C           6.7832   -1.8592   31.3795 C.2     1  UNL1       -0.0306
     14 C           7.0961   -2.1950   29.9515 C.2     1  UNL1       -0.0289
     15 C           6.8460   -2.1755   28.4726 C.3     1  UNL1        0.0487
     16 C           7.3380   -2.6181   27.1265 C.3     1  UNL1        0.0337
     17 C           6.0825   -1.8046   27.2358 C.3     1  UNL1        0.1311
     18 N           4.9570   -1.1558   26.4860 N.am    1  UNL1       -0.2983
     19 C           3.6921   -0.3575   26.3719 C.2     1  UNL1        0.2410
     20 O           3.4421   -0.3380   24.8931 O.2     1  UNL1       -0.2733
     21 C           2.5386    0.4321   26.9159 C.3     1  UNL1        0.1566
     22 C           2.1066    0.5727   25.4864 C.3     1  UNL1        0.0728
     23 H           5.1623   -1.3762   25.5487 H       1  UNL1        0.1498
     24 C           6.3029   -2.0840   25.7786 C.2     1  UNL1        0.2567
     25 O           7.0387   -1.0919   24.9276 O.2     1  UNL1       -0.2718
     26 N           5.7873   -3.3555   25.1725 N.am    1  UNL1       -0.1876
     27 H           5.3044   -4.0067   25.7310 H       1  UNL1        0.1762
     28 S           6.0077   -3.6349   23.7152 S.O2    1  UNL1        0.0527
     29 O           4.6928   -2.9890   23.3926 O.2     1  UNL1       -0.1545
     30 O           7.3225   -4.2809   24.0379 O.2     1  UNL1       -0.1545
     31 C           6.2281   -3.9143   22.2581 C.3     1  UNL1        0.1288
     32 C           4.8073   -3.9240   21.7769 C.3     1  UNL1        0.0255
     33 C           6.9418   -4.1904   20.9680 C.3     1  UNL1        0.0255
     34 C           7.7253   -4.0017   22.2331 C.3     1  UNL1        0.0255
     35 O           0.4285    1.4785   23.7218 O.3     1  UNL1       -0.4789
     36 C           3.2498    5.9186   22.4667 C.ar    1  UNL1        0.1361
     37 C           2.2399    5.5931   23.5269 C.ar    1  UNL1        0.0368
     38 C           1.6361    4.2216   23.5919 C.ar    1  UNL1        0.0076
     39 C           2.0422    3.1755   22.5965 C.ar    1  UNL1        0.0515
     40 C           1.4383    1.8039   22.6615 C.ar    1  UNL1        0.1413
     41 C           1.8444    0.7578   21.6662 C.ar    1  UNL1        0.0581
     42 C           2.8542    1.0832   20.6058 C.ar    1  UNL1        0.1080
     43 N           3.4581    2.4548   20.5409 N.ar    1  UNL1       -0.2433
     44 C           3.0521    3.5009   21.5362 C.ar    1  UNL1        0.0832
     45 C           3.6559    4.8724   21.4713 C.ar    1  UNL1        0.0298
     46 C           4.6658    5.1978   20.4110 C.3     1  UNL1        0.0358
     47 C           3.2603    0.0371   19.6105 C.ar    1  UNL1        0.1284
     48 N           3.5552   -1.4019   19.9143 N.ar    1  UNL1       -0.2328
     49 C           3.9200   -2.0819   18.6280 C.ar    1  UNL1        0.1597
     50 C           3.8505   -1.0632   17.5292 C.ar    1  UNL1        0.0600
     51 S           3.4428    0.2464   18.1364 S.2     1  UNL1       -0.0645
     52 C           4.2893   -3.5269   18.4686 C.3     1  UNL1        0.4354
     53 F           4.6585   -4.9720   18.3093 F       1  UNL1       -0.1644
     54 F           2.9374   -3.9288   18.9796 F       1  UNL1       -0.1644
     55 F           5.6411   -3.1252   17.9577 F       1  UNL1       -0.1644
     56 C           5.0511    7.6231   23.2417 C.3     1  UNL1        0.2525
     57 O           3.8537    7.2902   22.4017 O.3     1  UNL1       -0.4717
@<TRIPOS>BOND
     1    56    57    1
     2    57    36    1
     3    36    37   ar
     4    37    38   ar
     5    38    39   ar
     6    39    40   ar
     7    40    35    1
     8     1    35    1
     9     1     2    1
    10     2     3    1
    11     3     4    1
    12     4     5   am
    13     5     6    2
    14     5     7   am
    15     7     8    1
    16     7     9    1
    17     9    10    1
    18    10    11    1
    19    11    12    1
    20    12    13    1
    21    13    14    2
    22    14    15    1
    23    15    16    1
    24    16    17    1
    25    17    24    1
    26    24    25    2
    27    24    26   am
    28    26    28    1
    29    28    29    2
    30    28    30    2
    31    28    31    1
    32    31    32    1
    33    31    33    1
    34    33    34    1
    35    17    18    1
    36    18    19   am
    37    19    20    2
    38    19    21    1
    39    21    22    1
    40    40    41   ar
    41    41    42   ar
    42    42    47    1
    43    47    48   ar
    44    48    49   ar
    45    49    52    1
    46    52    53    1
    47    52    54    1
    48    52    55    1
    49    49    50   ar
    50    50    51   ar
    51    42    43   ar
    52    43    44   ar
    53    44    45   ar
    54    45    46    1
    55    45    36   ar
    56    44    39   ar
    57    22     1    1
    58    51    47   ar
    59    21     4    1
    60    17    15    1
    61    34    31    1
    62    26    27    1
    63    18    23    1
@<TRIPOS>MOLECULE
*****
 57 63 0 0 0
SMALL
GASTEIGER

@<TRIPOS>ATOM
      1 C           2.2987    0.4985   26.2842 C.3     1  UNL1        0.1698
      2 C           3.2543   -0.5760   26.7112 C.3     1  UNL1        0.0651
      3 C           4.0094   -1.3612   25.6800 C.3     1  UNL1        0.0991
      4 N           3.8089   -1.0718   24.2219 N.am    1  UNL1       -0.2570
      5 C           4.8088   -2.1641   23.9830 C.2     1  UNL1        0.3075
      6 O           5.1542   -2.6103   25.3728 O.2     1  UNL1       -0.2523
      7 N           5.6549   -3.0579   23.1255 N.am    1  UNL1       -0.2623
      8 C           6.3769   -3.9018   24.1337 C.3     1  UNL1        0.1164
      9 C           6.1797   -3.5760   21.8193 C.3     1  UNL1        0.0950
     10 C           6.2793   -3.6160   20.3231 C.3     1  UNL1        0.0219
     11 C           5.9339   -3.1698   18.9333 C.3     1  UNL1        0.0064
     12 C           5.2120   -2.3259   17.9251 C.3     1  UNL1        0.0258
     13 C           4.2564   -1.2513   17.4982 C.2     1  UNL1       -0.0306
     14 C           3.2565   -0.1590   17.7371 C.2     1  UNL1       -0.0289
     15 C           2.4104    0.7348   18.5946 C.3     1  UNL1        0.0487
     16 C           1.4029    1.8459   18.6103 C.3     1  UNL1        0.0337
     17 C           1.8855    1.2530   19.9008 C.3     1  UNL1        0.1311
     18 N           1.7859    1.2929   21.3969 N.am    1  UNL1       -0.2983
     19 C           2.1314    0.8467   22.7868 C.2     1  UNL1        0.2410
     20 O           1.2853    1.7404   23.6442 O.2     1  UNL1       -0.2733
     21 C           2.8534    0.0028   23.7950 C.3     1  UNL1        0.1566
     22 C           2.0983    0.7879   24.8261 C.3     1  UNL1        0.0728
     23 H           1.1297    2.0099   21.5538 H       1  UNL1        0.1498
     24 C           0.8979    2.3267   20.2497 C.2     1  UNL1        0.2567
     25 O           1.3814    3.6653   20.7233 O.2     1  UNL1       -0.2718
     26 N          -0.5732    2.0617   20.1249 N.am    1  UNL1       -0.1876
     27 H          -0.8905    1.1831   19.8140 H       1  UNL1        0.1762
     28 S          -1.5609    3.1354   20.4738 S.O2    1  UNL1        0.0527
     29 O          -1.5291    2.6985   21.9084 O.2     1  UNL1       -0.1545
     30 O          -1.5927    3.5724   19.0391 O.2     1  UNL1       -0.1545
     31 C          -2.5485    4.2091   20.8226 C.3     1  UNL1        0.1288
     32 C          -1.6344    5.2004   21.4797 C.3     1  UNL1        0.0255
     33 C          -3.8536    4.9387   20.9432 C.3     1  UNL1        0.0255
     34 C          -3.8057    3.5908   20.2866 C.3     1  UNL1        0.0255
     35 O           1.5436    1.2837   27.3155 O.3     1  UNL1       -0.4789
     36 C           3.3880    6.3462   26.8478 C.ar    1  UNL1        0.1361
     37 C           4.0224    5.0381   27.2172 C.ar    1  UNL1        0.0368
     38 C           3.1962    3.7867   27.2500 C.ar    1  UNL1        0.0076
     39 C           1.7355    3.8432   26.9133 C.ar    1  UNL1        0.0515
     40 C           0.9093    2.5917   26.9461 C.ar    1  UNL1        0.1413
     41 C          -0.5513    2.6483   26.6093 C.ar    1  UNL1        0.0581
     42 C          -1.1858    3.9563   26.2399 C.ar    1  UNL1        0.1080
     43 N          -0.3594    5.2079   26.2072 N.ar    1  UNL1       -0.2433
     44 C           1.1011    5.1513   26.5438 C.ar    1  UNL1        0.0832
     45 C           1.9274    6.4027   26.5111 C.ar    1  UNL1        0.0298
     46 C           1.2930    7.7109   26.1416 C.3     1  UNL1        0.0358
     47 C          -2.6464    4.0130   25.9032 C.ar    1  UNL1        0.1284
     48 N          -3.2508    3.7577   24.5543 N.ar    1  UNL1       -0.2328
     49 C          -4.7371    3.9219   24.6738 C.ar    1  UNL1        0.1597
     50 C          -5.0511    4.2786   26.0966 C.ar    1  UNL1        0.0600
     51 S          -3.7590    4.3349   26.8563 S.2     1  UNL1       -0.0645
     52 C          -5.7341    3.7580   23.5652 C.3     1  UNL1        0.4354
     53 F          -6.7310    3.5941   22.4565 F       1  UNL1       -0.1644
     54 F          -5.0861    2.4629   23.1740 F       1  UNL1       -0.1644
     55 F          -6.3819    5.0530   23.9564 F       1  UNL1       -0.1644
     56 C           5.5515    7.6317   27.4939 C.3     1  UNL1        0.2525
     57 O           4.2143    7.5977   26.8150 O.3     1  UNL1       -0.4717
@<TRIPOS>BOND
     1    56    57    1
     2    57    36    1
     3    36    37   ar
     4    37    38   ar
     5    38    39   ar
     6    39    40   ar
     7    40    35    1
     8     1    35    1
     9     1     2    1
    10     2     3    1
    11     3     4    1
    12     4     5   am
    13     5     6    2
    14     5     7   am
    15     7     8    1
    16     7     9    1
    17     9    10    1
    18    10    11    1
    19    11    12    1
    20    12    13    1
    21    13    14    2
    22    14    15    1
    23    15    16    1
    24    16    17    1
    25    17    24    1
    26    24    25    2
    27    24    26   am
    28    26    28    1
    29    28    29    2
    30    28    30    2
    31    28    31    1
    32    31    32    1
    33    31    33    1
    34    33    34    1
    35    17    18    1
    36    18    19   am
    37    19    20    2
    38    19    21    1
    39    21    22    1
    40    40    41   ar
    41    41    42   ar
    42    42    47    1
    43    47    48   ar
    44    48    49   ar
    45    49    52    1
    46    52    53    1
    47    52    54    1
    48    52    55    1
    49    49    50   ar
    50    50    51   ar
    51    42    43   ar
    52    43    44   ar
    53    44    45   ar
    54    45    46    1
    55    45    36   ar
    56    44    39   ar
    57    22     1    1
    58    51    47   ar
    59    21     4    1
    60    17    15    1
    61    34    31    1
    62    26    27    1
    63    18    23    1
@<TRIPOS>MOLECULE
*****
 57 63 0 0 0
SMALL
GASTEIGER

@<TRIPOS>ATOM
      1 C           2.1550    2.1622   25.1742 C.3     1  UNL1        0.1698
      2 C           1.1534    2.3274   26.2785 C.3     1  UNL1        0.0651
      3 C          -0.2617    2.7066   25.9570 C.3     1  UNL1        0.0991
      4 N          -0.6754    2.9207   24.5312 N.am    1  UNL1       -0.2570
      5 C          -2.0359    3.2181   25.0885 C.2     1  UNL1        0.3075
      6 O          -1.8349    3.0533   26.5658 O.2     1  UNL1       -0.2523
      7 N          -3.4859    3.5890   24.9882 N.am    1  UNL1       -0.2623
      8 C          -3.9301    3.5891   26.4209 C.3     1  UNL1        0.1164
      9 C          -4.7382    3.9597   24.2504 C.3     1  UNL1        0.0950
     10 C          -5.5448    4.2569   23.0211 C.3     1  UNL1        0.0219
     11 C          -5.7458    4.4217   21.5439 C.3     1  UNL1        0.0064
     12 C          -5.3016    4.4216   20.1112 C.3     1  UNL1        0.0258
     13 C          -4.3000    4.2564   19.0068 C.2     1  UNL1       -0.0306
     14 C          -2.9395    3.9590   18.4495 C.2     1  UNL1       -0.0289
     15 C          -1.4895    3.5882   18.5497 C.3     1  UNL1        0.0487
     16 C          -0.2212    3.3294   17.7918 C.3     1  UNL1        0.0337
     17 C          -0.2372    3.2175   19.2875 C.3     1  UNL1        0.1311
     18 N           0.5694    2.9202   20.5168 N.am    1  UNL1       -0.2983
     19 C           0.7704    2.7554   21.9942 C.2     1  UNL1        0.2410
     20 O           2.2203    2.3846   22.0943 O.2     1  UNL1       -0.2733
     21 C           0.3262    2.7556   23.4269 C.3     1  UNL1        0.1566
     22 C           1.7414    2.3763   23.7483 C.3     1  UNL1        0.0728
     23 H           1.4624    2.7250   20.1511 H       1  UNL1        0.1498
     24 C           1.1582    2.9031   18.8356 C.2     1  UNL1        0.2567
     25 O           2.0175    3.9833   18.2483 O.2     1  UNL1       -0.2718
     26 N           1.6940    1.5087   18.9709 N.am    1  UNL1       -0.1876
     27 H           1.1300    0.7998   19.3563 H       1  UNL1        0.1762
     28 S           3.0894    1.1944   18.5189 S.O2    1  UNL1        0.0527
     29 O           3.6341    2.1618   19.5277 O.2     1  UNL1       -0.1545
     30 O           2.5448    0.2270   17.5101 O.2     1  UNL1       -0.1545
     31 C           4.4847    0.8800   18.0669 C.3     1  UNL1        0.1288
     32 C           5.2519    1.8893   18.8688 C.3     1  UNL1        0.0255
     33 C           5.6136    0.2153   17.3364 C.3     1  UNL1        0.0255
     34 C           4.2022   -0.2383   17.1080 C.3     1  UNL1        0.0255
     35 O           3.5702    1.7830   25.4958 O.3     1  UNL1       -0.4789
     36 C           6.4643   -1.9695   28.1020 C.ar    1  UNL1        0.1361
     37 C           5.9493   -0.6103   28.4725 C.ar    1  UNL1        0.0368
     38 C           5.1563    0.1874   27.4803 C.ar    1  UNL1        0.0076
     39 C           4.8782   -0.3740   26.1174 C.ar    1  UNL1        0.0515
     40 C           4.0851    0.4239   25.1252 C.ar    1  UNL1        0.1413
     41 C           3.8071   -0.1376   23.7623 C.ar    1  UNL1        0.0581
     42 C           4.3220   -1.4968   23.3916 C.ar    1  UNL1        0.1080
     43 N           5.1150   -2.2946   24.3840 N.ar    1  UNL1       -0.2433
     44 C           5.3931   -1.7332   25.7468 C.ar    1  UNL1        0.0832
     45 C           6.1862   -2.5309   26.7391 C.ar    1  UNL1        0.0298
     46 C           6.7011   -3.8902   26.3684 C.3     1  UNL1        0.0358
     47 C           4.0439   -2.0583   22.0288 C.ar    1  UNL1        0.1284
     48 N           4.5977   -3.3362   21.4718 N.ar    1  UNL1       -0.2328
     49 C           4.0592   -3.5081   20.0823 C.ar    1  UNL1        0.1597
     50 C           3.1726   -2.3364   19.7806 C.ar    1  UNL1        0.0600
     51 S           3.1632   -1.4404   20.9836 S.2     1  UNL1       -0.0645
     52 C           4.3554   -4.6510   19.1572 C.3     1  UNL1        0.4354
     53 F           4.6517   -5.7938   18.2320 F       1  UNL1       -0.1644
     54 F           5.1307   -3.7276   18.2648 F       1  UNL1       -0.1644
     55 F           3.5802   -5.5743   20.0495 F       1  UNL1       -0.1644
     56 C           6.5517   -3.5684   30.1480 C.3     1  UNL1        0.2525
     57 O           7.2573   -2.7674   29.0943 O.3     1  UNL1       -0.4717
@<TRIPOS>BOND
     1    56    57    1
     2    57    36    1
     3    36    37   ar
     4    37    38   ar
     5    38    39   ar
     6    39    40   ar
     7    40    35    1
     8     1    35    1
     9     1     2    1
    10     2     3    1
    11     3     4    1
    12     4     5   am
    13     5     6    2
    14     5     7   am
    15     7     8    1
    16     7     9    1
    17     9    10    1
    18    10    11    1
    19    11    12    1
    20    12    13    1
    21    13    14    2
    22    14    15    1
    23    15    16    1
    24    16    17    1
    25    17    24    1
    26    24    25    2
    27    24    26   am
    28    26    28    1
    29    28    29    2
    30    28    30    2
    31    28    31    1
    32    31    32    1
    33    31    33    1
    34    33    34    1
    35    17    18    1
    36    18    19   am
    37    19    20    2
    38    19    21    1
    39    21    22    1
    40    40    41   ar
    41    41    42   ar
    42    42    47    1
    43    47    48   ar
    44    48    49   ar
    45    49    52    1
    46    52    53    1
    47    52    54    1
    48    52    55    1
    49    49    50   ar
    50    50    51   ar
    51    42    43   ar
    52    43    44   ar
    53    44    45   ar
    54    45    46    1
    55    45    36   ar
    56    44    39   ar
    57    22     1    1
    58    51    47   ar
    59    21     4    1
    60    17    15    1
    61    34    31    1
    62    26    27    1
    63    18    23    1
