@<TRIPOS>MOLECULE
*****
 20 22 0 0 0
SMALL
GASTEIGER

@<TRIPOS>ATOM
      1 O          -8.3412  -20.2448   18.7935 O.2     1  UNL1       -0.2866
      2 C          -7.8903  -19.5410   20.0391 C.2     1  UNL1        0.1956
      3 C          -8.8351  -19.3792   21.1929 C.ar    1  UNL1        0.0390
      4 C          -8.4401  -19.8577   22.5585 C.ar    1  UNL1        0.0032
      5 C          -9.3848  -19.6958   23.7123 C.ar    1  UNL1        0.0001
      6 C         -10.7247  -19.0555   23.5005 C.ar    1  UNL1        0.0000
      7 C         -11.6694  -18.8937   24.6542 C.ar    1  UNL1        0.0000
      8 C         -13.0092  -18.2533   24.4424 C.ar    1  UNL1        0.0000
      9 C         -13.4042  -17.7748   23.0767 C.ar    1  UNL1        0.0000
     10 C         -12.4595  -17.9367   21.9230 C.ar    1  UNL1        0.0000
     11 C         -11.1197  -18.5770   22.1348 C.ar    1  UNL1        0.0001
     12 C         -10.1749  -18.7388   20.9810 C.ar    1  UNL1        0.0032
     13 C          -6.4947  -18.9990   20.1309 C.2     1  UNL1        0.0421
     14 C          -5.3300  -19.9391   20.2291 C.2     1  UNL1        0.0048
     15 C          -3.9343  -19.3971   20.3209 C.ar    1  UNL1        0.0193
     16 C          -3.4115  -18.4864   19.2499 C.ar    1  UNL1        0.0031
     17 C          -2.0158  -17.9445   19.3417 C.ar    1  UNL1        0.0207
     18 C          -1.1430  -18.3132   20.5045 C.ar    1  UNL1        0.0989
     19 N          -1.6659  -19.2239   21.5756 N.ar    1  UNL1       -0.2423
     20 C          -3.0616  -19.7659   21.4838 C.ar    1  UNL1        0.0988
@<TRIPOS>BOND
     1     1     2    2
     2     2    13    1
     3    13    14    2
     4    14    15    1
     5    15    16   ar
     6    16    17   ar
     7    17    18   ar
     8    18    19   ar
     9    19    20   ar
    10     2     3    1
    11     3     4   ar
    12     4     5   ar
    13     5     6   ar
    14     6     7   ar
    15     7     8   ar
    16     8     9   ar
    17     9    10   ar
    18    10    11   ar
    19    11    12   ar
    20    20    15   ar
    21    12     3   ar
    22    11     6   ar
@<TRIPOS>MOLECULE
*****
 20 22 0 0 0
SMALL
GASTEIGER

@<TRIPOS>ATOM
      1 O          -8.6953  -20.7735   18.4097 O.2     1  UNL1       -0.2866
      2 C          -8.4703  -19.7784   19.5093 C.2     1  UNL1        0.1956
      3 C          -9.6350  -19.2527   20.2950 C.ar    1  UNL1        0.0390
      4 C         -10.6795  -18.4154   19.6184 C.ar    1  UNL1        0.0032
      5 C         -11.8442  -17.8898   20.4040 C.ar    1  UNL1        0.0001
      6 C         -11.9644  -18.2015   21.8664 C.ar    1  UNL1        0.0000
      7 C         -13.1290  -17.6759   22.6521 C.ar    1  UNL1        0.0000
      8 C         -13.2491  -17.9876   24.1143 C.ar    1  UNL1        0.0000
      9 C         -12.2046  -18.8250   24.7910 C.ar    1  UNL1        0.0000
     10 C         -11.0400  -19.3506   24.0053 C.ar    1  UNL1        0.0000
     11 C         -10.9198  -19.0389   22.5430 C.ar    1  UNL1        0.0001
     12 C          -9.7552  -19.5645   21.7573 C.ar    1  UNL1        0.0032
     13 C          -7.0807  -19.3088   19.8232 C.2     1  UNL1        0.0421
     14 C          -6.2611  -20.0274   20.8536 C.2     1  UNL1        0.0048
     15 C          -4.8715  -19.5579   21.1675 C.ar    1  UNL1        0.0193
     16 C          -4.5832  -18.8932   22.4808 C.ar    1  UNL1        0.0031
     17 C          -3.1936  -18.4236   22.7948 C.ar    1  UNL1        0.0207
     18 C          -2.0923  -18.6189   21.7953 C.ar    1  UNL1        0.0989
     19 N          -2.3806  -19.2836   20.4820 N.ar    1  UNL1       -0.2423
     20 C          -3.7702  -19.7531   20.1680 C.ar    1  UNL1        0.0988
@<TRIPOS>BOND
     1     1     2    2
     2     2    13    1
     3    13    14    2
     4    14    15    1
     5    15    16   ar
     6    16    17   ar
     7    17    18   ar
     8    18    19   ar
     9    19    20   ar
    10     2     3    1
    11     3     4   ar
    12     4     5   ar
    13     5     6   ar
    14     6     7   ar
    15     7     8   ar
    16     8     9   ar
    17     9    10   ar
    18    10    11   ar
    19    11    12   ar
    20    20    15   ar
    21    12     3   ar
    22    11     6   ar
@<TRIPOS>MOLECULE
*****
 20 22 0 0 0
SMALL
GASTEIGER

@<TRIPOS>ATOM
      1 O          -5.1859  -14.8006   25.4906 O.2     1  UNL1       -0.2866
      2 C          -5.5300  -15.5892   24.2620 C.2     1  UNL1        0.1956
      3 C          -6.9308  -16.0849   24.0568 C.ar    1  UNL1        0.0390
      4 C          -8.0620  -15.4793   24.8338 C.ar    1  UNL1        0.0032
      5 C          -9.4628  -15.9749   24.6286 C.ar    1  UNL1        0.0001
      6 C          -9.7324  -17.0762   23.6464 C.ar    1  UNL1        0.0000
      7 C         -11.1332  -17.5718   23.4413 C.ar    1  UNL1        0.0000
      8 C         -11.4028  -18.6730   22.4591 C.ar    1  UNL1        0.0000
      9 C         -10.2717  -19.2785   21.6821 C.ar    1  UNL1        0.0000
     10 C          -8.8709  -18.7829   21.8873 C.ar    1  UNL1        0.0000
     11 C          -8.6013  -17.6818   22.8694 C.ar    1  UNL1        0.0001
     12 C          -7.2004  -17.1861   23.0746 C.ar    1  UNL1        0.0032
     13 C          -4.4733  -15.8823   23.2385 C.2     1  UNL1        0.0421
     14 C          -3.7776  -17.2112   23.2380 C.2     1  UNL1        0.0048
     15 C          -2.7209  -17.5043   22.2146 C.ar    1  UNL1        0.0193
     16 C          -2.0068  -16.3769   21.5298 C.ar    1  UNL1        0.0031
     17 C          -0.9501  -16.6700   20.5063 C.ar    1  UNL1        0.0207
     18 C          -0.6075  -18.0905   20.1676 C.ar    1  UNL1        0.0989
     19 N          -1.3216  -19.2179   20.8524 N.ar    1  UNL1       -0.2423
     20 C          -2.3783  -18.9248   21.8759 C.ar    1  UNL1        0.0988
@<TRIPOS>BOND
     1     1     2    2
     2     2    13    1
     3    13    14    2
     4    14    15    1
     5    15    16   ar
     6    16    17   ar
     7    17    18   ar
     8    18    19   ar
     9    19    20   ar
    10     2     3    1
    11     3     4   ar
    12     4     5   ar
    13     5     6   ar
    14     6     7   ar
    15     7     8   ar
    16     8     9   ar
    17     9    10   ar
    18    10    11   ar
    19    11    12   ar
    20    20    15   ar
    21    12     3   ar
    22    11     6   ar
@<TRIPOS>MOLECULE
*****
 20 22 0 0 0
SMALL
GASTEIGER

@<TRIPOS>ATOM
      1 O          -6.7400  -15.0420   24.9448 O.2     1  UNL1       -0.2866
      2 C          -7.0413  -16.2118   24.0555 C.2     1  UNL1        0.1956
      3 C          -5.9206  -16.9706   23.4087 C.ar    1  UNL1        0.0390
      4 C          -4.4976  -16.6478   23.7565 C.ar    1  UNL1        0.0032
      5 C          -3.3769  -17.4065   23.1098 C.ar    1  UNL1        0.0001
      6 C          -3.6791  -18.4881   22.1153 C.ar    1  UNL1        0.0000
      7 C          -2.5583  -19.2468   21.4686 C.ar    1  UNL1        0.0000
      8 C          -2.8606  -20.3282   20.4741 C.ar    1  UNL1        0.0000
      9 C          -4.2836  -20.6510   20.1264 C.ar    1  UNL1        0.0000
     10 C          -5.4043  -19.8923   20.7730 C.ar    1  UNL1        0.0000
     11 C          -5.1021  -18.8108   21.7675 C.ar    1  UNL1        0.0001
     12 C          -6.2228  -18.0520   22.4143 C.ar    1  UNL1        0.0032
     13 C          -8.4634  -16.6228   23.8129 C.2     1  UNL1        0.0421
     14 C          -9.1119  -16.3359   22.4912 C.2     1  UNL1        0.0048
     15 C         -10.5340  -16.7469   22.2486 C.ar    1  UNL1        0.0193
     16 C         -11.2943  -17.4816   23.3126 C.ar    1  UNL1        0.0031
     17 C         -12.7163  -17.8926   23.0700 C.ar    1  UNL1        0.0207
     18 C         -13.3781  -17.5690   21.7634 C.ar    1  UNL1        0.0989
     19 N         -12.6178  -16.8344   20.6993 N.ar    1  UNL1       -0.2423
     20 C         -11.1957  -16.4233   20.9419 C.ar    1  UNL1        0.0988
@<TRIPOS>BOND
     1     1     2    2
     2     2    13    1
     3    13    14    2
     4    14    15    1
     5    15    16   ar
     6    16    17   ar
     7    17    18   ar
     8    18    19   ar
     9    19    20   ar
    10     2     3    1
    11     3     4   ar
    12     4     5   ar
    13     5     6   ar
    14     6     7   ar
    15     7     8   ar
    16     8     9   ar
    17     9    10   ar
    18    10    11   ar
    19    11    12   ar
    20    20    15   ar
    21    12     3   ar
    22    11     6   ar
@<TRIPOS>MOLECULE
*****
 20 22 0 0 0
SMALL
GASTEIGER

@<TRIPOS>ATOM
      1 O          -5.2512  -14.8823   24.9365 O.2     1  UNL1       -0.2866
      2 C          -5.7578  -16.0159   24.0949 C.2     1  UNL1        0.1956
      3 C          -4.8043  -16.8058   23.2480 C.ar    1  UNL1        0.0390
      4 C          -5.0534  -18.2638   22.9991 C.ar    1  UNL1        0.0032
      5 C          -4.1000  -19.0537   22.1522 C.ar    1  UNL1        0.0001
      6 C          -2.8975  -18.3855   21.5543 C.ar    1  UNL1        0.0000
      7 C          -1.9441  -19.1753   20.7075 C.ar    1  UNL1        0.0000
      8 C          -0.7416  -18.5071   20.1096 C.ar    1  UNL1        0.0000
      9 C          -0.4925  -17.0490   20.3586 C.ar    1  UNL1        0.0000
     10 C          -1.4459  -16.2592   21.2055 C.ar    1  UNL1        0.0000
     11 C          -2.6484  -16.9274   21.8033 C.ar    1  UNL1        0.0001
     12 C          -3.6018  -16.1375   22.6502 C.ar    1  UNL1        0.0032
     13 C          -7.2178  -16.3597   24.1002 C.2     1  UNL1        0.0421
     14 C          -8.0044  -16.3111   22.8239 C.2     1  UNL1        0.0048
     15 C          -9.4644  -16.6549   22.8292 C.ar    1  UNL1        0.0193
     16 C         -10.3712  -16.0926   21.7749 C.ar    1  UNL1        0.0031
     17 C         -11.8312  -16.4364   21.7801 C.ar    1  UNL1        0.0207
     18 C         -12.3846  -17.3425   22.8397 C.ar    1  UNL1        0.0989
     19 N         -11.4778  -17.9049   23.8940 N.ar    1  UNL1       -0.2423
     20 C         -10.0178  -17.5611   23.8887 C.ar    1  UNL1        0.0988
@<TRIPOS>BOND
     1     1     2    2
     2     2    13    1
     3    13    14    2
     4    14    15    1
     5    15    16   ar
     6    16    17   ar
     7    17    18   ar
     8    18    19   ar
     9    19    20   ar
    10     2     3    1
    11     3     4   ar
    12     4     5   ar
    13     5     6   ar
    14     6     7   ar
    15     7     8   ar
    16     8     9   ar
    17     9    10   ar
    18    10    11   ar
    19    11    12   ar
    20    20    15   ar
    21    12     3   ar
    22    11     6   ar
@<TRIPOS>MOLECULE
*****
 20 22 0 0 0
SMALL
GASTEIGER

@<TRIPOS>ATOM
      1 O          -8.2868  -20.1212   19.3217 O.2     1  UNL1       -0.2866
      2 C          -7.3965  -19.3258   20.2299 C.2     1  UNL1        0.1956
      3 C          -7.9103  -18.8517   21.5571 C.ar    1  UNL1        0.0390
      4 C          -8.8946  -19.6862   22.3218 C.ar    1  UNL1        0.0032
      5 C          -9.4084  -19.2122   23.6489 C.ar    1  UNL1        0.0001
      6 C          -8.9378  -17.9036   24.2114 C.ar    1  UNL1        0.0000
      7 C          -9.4516  -17.4296   25.5385 C.ar    1  UNL1        0.0000
      8 C          -8.9810  -16.1211   26.1009 C.ar    1  UNL1        0.0000
      9 C          -7.9967  -15.2866   25.3362 C.ar    1  UNL1        0.0000
     10 C          -7.4829  -15.7606   24.0091 C.ar    1  UNL1        0.0000
     11 C          -7.9535  -17.0691   23.4467 C.ar    1  UNL1        0.0001
     12 C          -7.4397  -17.5432   22.1195 C.ar    1  UNL1        0.0032
     13 C          -5.9925  -19.0045   19.8110 C.2     1  UNL1        0.0421
     14 C          -4.8664  -19.1453   20.7918 C.2     1  UNL1        0.0048
     15 C          -3.4624  -18.8240   20.3728 C.ar    1  UNL1        0.0193
     16 C          -3.2111  -18.1073   19.0794 C.ar    1  UNL1        0.0031
     17 C          -1.8070  -17.7860   18.6604 C.ar    1  UNL1        0.0207
     18 C          -0.6543  -18.1814   19.5350 C.ar    1  UNL1        0.0989
     19 N          -0.9056  -18.8981   20.8284 N.ar    1  UNL1       -0.2423
     20 C          -2.3097  -19.2194   21.2474 C.ar    1  UNL1        0.0988
@<TRIPOS>BOND
     1     1     2    2
     2     2    13    1
     3    13    14    2
     4    14    15    1
     5    15    16   ar
     6    16    17   ar
     7    17    18   ar
     8    18    19   ar
     9    19    20   ar
    10     2     3    1
    11     3     4   ar
    12     4     5   ar
    13     5     6   ar
    14     6     7   ar
    15     7     8   ar
    16     8     9   ar
    17     9    10   ar
    18    10    11   ar
    19    11    12   ar
    20    20    15   ar
    21    12     3   ar
    22    11     6   ar
@<TRIPOS>MOLECULE
*****
 20 22 0 0 0
SMALL
GASTEIGER

@<TRIPOS>ATOM
      1 O          -6.4792  -14.8204   24.7985 O.2     1  UNL1       -0.2866
      2 C          -7.1174  -15.9514   24.0478 C.2     1  UNL1        0.1956
      3 C          -6.2632  -16.9308   23.2986 C.ar    1  UNL1        0.0390
      4 C          -6.9036  -17.9840   22.4438 C.ar    1  UNL1        0.0032
      5 C          -6.0495  -18.9634   21.6947 C.ar    1  UNL1        0.0001
      6 C          -4.5550  -18.8896   21.8003 C.ar    1  UNL1        0.0000
      7 C          -3.7009  -19.8690   21.0511 C.ar    1  UNL1        0.0000
      8 C          -2.2065  -19.7952   21.1567 C.ar    1  UNL1        0.0000
      9 C          -1.5662  -18.7420   22.0115 C.ar    1  UNL1        0.0000
     10 C          -2.4202  -17.7626   22.7607 C.ar    1  UNL1        0.0000
     11 C          -3.9146  -17.8364   22.6551 C.ar    1  UNL1        0.0001
     12 C          -4.7688  -16.8570   23.4043 C.ar    1  UNL1        0.0032
     13 C          -8.6097  -16.1031   24.0463 C.2     1  UNL1        0.0421
     14 C          -9.2277  -17.4367   23.7473 C.2     1  UNL1        0.0048
     15 C         -10.7200  -17.5883   23.7458 C.ar    1  UNL1        0.0193
     16 C         -11.3713  -18.6062   24.6344 C.ar    1  UNL1        0.0031
     17 C         -12.8637  -18.7578   24.6329 C.ar    1  UNL1        0.0207
     18 C         -13.7047  -17.8917   23.7428 C.ar    1  UNL1        0.0989
     19 N         -13.0533  -16.8739   22.8541 N.ar    1  UNL1       -0.2423
     20 C         -11.5610  -16.7222   22.8556 C.ar    1  UNL1        0.0988
@<TRIPOS>BOND
     1     1     2    2
     2     2    13    1
     3    13    14    2
     4    14    15    1
     5    15    16   ar
     6    16    17   ar
     7    17    18   ar
     8    18    19   ar
     9    19    20   ar
    10     2     3    1
    11     3     4   ar
    12     4     5   ar
    13     5     6   ar
    14     6     7   ar
    15     7     8   ar
    16     8     9   ar
    17     9    10   ar
    18    10    11   ar
    19    11    12   ar
    20    20    15   ar
    21    12     3   ar
    22    11     6   ar
@<TRIPOS>MOLECULE
*****
 20 22 0 0 0
SMALL
GASTEIGER

@<TRIPOS>ATOM
      1 O         -11.0554   -6.9871   18.9407 O.2     1  UNL1       -0.2866
      2 C         -12.2685   -6.1849   18.5736 C.2     1  UNL1        0.1956
      3 C         -13.6388   -6.7539   18.7941 C.ar    1  UNL1        0.0390
      4 C         -14.7063   -5.9137   19.4300 C.ar    1  UNL1        0.0032
      5 C         -16.0766   -6.4826   19.6504 C.ar    1  UNL1        0.0001
      6 C         -16.3794   -7.8918   19.2349 C.ar    1  UNL1        0.0000
      7 C         -17.7497   -8.4607   19.4554 C.ar    1  UNL1        0.0000
      8 C         -18.0525   -9.8698   19.0399 C.ar    1  UNL1        0.0000
      9 C         -16.9850  -10.7100   18.4040 C.ar    1  UNL1        0.0000
     10 C         -15.6147  -10.1411   18.1835 C.ar    1  UNL1        0.0000
     11 C         -15.3119   -8.7320   18.5990 C.ar    1  UNL1        0.0001
     12 C         -13.9416   -8.1630   18.3786 C.ar    1  UNL1        0.0032
     13 C         -12.1113   -4.8138   17.9861 C.2     1  UNL1        0.0421
     14 C         -11.9927   -3.6207   18.8875 C.2     1  UNL1        0.0048
     15 C         -11.8356   -2.2495   18.2999 C.ar    1  UNL1        0.0193
     16 C         -12.7890   -1.1563   18.6816 C.ar    1  UNL1        0.0031
     17 C         -12.6319    0.2149   18.0941 C.ar    1  UNL1        0.0207
     18 C         -11.5213    0.4929   17.1249 C.ar    1  UNL1        0.0989
     19 N         -10.5679   -0.6004   16.7433 N.ar    1  UNL1       -0.2423
     20 C         -10.7250   -1.9716   17.3308 C.ar    1  UNL1        0.0988
@<TRIPOS>BOND
     1     1     2    2
     2     2    13    1
     3    13    14    2
     4    14    15    1
     5    15    16   ar
     6    16    17   ar
     7    17    18   ar
     8    18    19   ar
     9    19    20   ar
    10     2     3    1
    11     3     4   ar
    12     4     5   ar
    13     5     6   ar
    14     6     7   ar
    15     7     8   ar
    16     8     9   ar
    17     9    10   ar
    18    10    11   ar
    19    11    12   ar
    20    20    15   ar
    21    12     3   ar
    22    11     6   ar
@<TRIPOS>MOLECULE
*****
 20 22 0 0 0
SMALL
GASTEIGER

@<TRIPOS>ATOM
      1 O          -9.7562  -17.9619   20.9511 O.2     1  UNL1       -0.2866
      2 C          -8.4905  -17.9732   21.7560 C.2     1  UNL1        0.1956
      3 C          -8.5025  -17.4993   23.1792 C.ar    1  UNL1        0.0390
      4 C          -9.5832  -17.9574   24.1131 C.ar    1  UNL1        0.0032
      5 C          -9.5952  -17.4836   25.5362 C.ar    1  UNL1        0.0001
      6 C          -8.5265  -16.5516   26.0254 C.ar    1  UNL1        0.0000
      7 C          -8.5384  -16.0777   27.4486 C.ar    1  UNL1        0.0000
      8 C          -7.4698  -15.1458   27.9377 C.ar    1  UNL1        0.0000
      9 C          -6.3891  -14.6876   27.0038 C.ar    1  UNL1        0.0000
     10 C          -6.3771  -15.1614   25.5806 C.ar    1  UNL1        0.0000
     11 C          -7.4458  -16.0934   25.0915 C.ar    1  UNL1        0.0001
     12 C          -7.4338  -16.5673   23.6683 C.ar    1  UNL1        0.0032
     13 C          -7.2129  -18.4582   21.1377 C.2     1  UNL1        0.0421
     14 C          -6.0571  -18.8465   22.0114 C.2     1  UNL1        0.0048
     15 C          -4.7794  -19.3316   21.3931 C.ar    1  UNL1        0.0193
     16 C          -3.4631  -18.9918   22.0271 C.ar    1  UNL1        0.0031
     17 C          -2.1854  -19.4769   21.4089 C.ar    1  UNL1        0.0207
     18 C          -2.2240  -20.3018   20.1567 C.ar    1  UNL1        0.0989
     19 N          -3.5402  -20.6415   19.5227 N.ar    1  UNL1       -0.2423
     20 C          -4.8179  -20.1564   20.1409 C.ar    1  UNL1        0.0988
@<TRIPOS>BOND
     1     1     2    2
     2     2    13    1
     3    13    14    2
     4    14    15    1
     5    15    16   ar
     6    16    17   ar
     7    17    18   ar
     8    18    19   ar
     9    19    20   ar
    10     2     3    1
    11     3     4   ar
    12     4     5   ar
    13     5     6   ar
    14     6     7   ar
    15     7     8   ar
    16     8     9   ar
    17     9    10   ar
    18    10    11   ar
    19    11    12   ar
    20    20    15   ar
    21    12     3   ar
    22    11     6   ar
