@<TRIPOS>MOLECULE
*****
 63 69 0 0 0
SMALL
GASTEIGER

@<TRIPOS>ATOM
      1 C          -4.4502    4.2556   25.2972 C.ar    1  UNL1       -0.0000
      2 C          -3.9093    4.0164   26.6758 C.ar    1  UNL1       -0.0000
      3 C          -2.5063    3.5170   26.8547 C.ar    1  UNL1       -0.0003
      4 C          -1.6441    3.2567   25.6552 C.ar    1  UNL1       -0.0035
      5 C          -2.1850    3.4958   24.2767 C.ar    1  UNL1       -0.0003
      6 C          -3.5880    3.9952   24.0977 C.ar    1  UNL1       -0.0000
      7 C          -0.2410    2.7572   25.8342 C.2     1  UNL1       -0.0137
      8 C           0.6535    3.3856   26.8613 C.2     1  UNL1        0.0001
      9 C           2.0564    2.8862   27.0403 C.2     1  UNL1        0.0498
     10 C           2.5649    1.7583   26.1922 C.2     1  UNL1        0.2318
     11 N           3.8911    1.0589   26.1422 N.2     1  UNL1       -0.0334
     12 C           3.8161   -0.0018   25.0842 C.2     1  UNL1        0.3691
     13 N           2.4437    0.0420   24.4804 N.2     1  UNL1       -0.0373
     14 C           1.6705    1.1298   25.1651 C.2     1  UNL1        0.2175
     15 C           0.2675    1.6293   24.9862 C.3     1  UNL1        0.1040
     16 C           4.9197   -0.9414   24.6979 C.3     1  UNL1        0.1878
     17 C           5.5523   -1.0484   23.3420 C.3     1  UNL1        0.0344
     18 C           6.6081   -2.1121   23.4058 C.3     1  UNL1        0.0221
     19 C           7.4892   -2.5487   22.2733 C.3     1  UNL1        0.0018
     20 C           6.6278   -2.6625   24.8011 C.3     1  UNL1        0.0940
     21 N           5.5843   -1.9389   25.5996 N.am    1  UNL1       -0.2691
     22 C           5.2621   -2.1720   27.0459 C.2     1  UNL1        0.2440
     23 O           4.1867   -1.3673   27.7139 O.2     1  UNL1       -0.2731
     24 C           6.0153   -3.2097   27.8244 C.3     1  UNL1        0.1512
     25 N           5.8058   -4.6658   27.5312 N.am    1  UNL1       -0.2640
     26 C           6.9421   -5.4981   27.0157 C.2     1  UNL1        0.4021
     27 O           8.2881   -4.8744   26.7932 O.2     1  UNL1       -0.2264
     28 H           4.9224   -5.0752   27.6772 H       1  UNL1        0.1532
     29 O           6.7326   -6.9542   26.7225 O.3     1  UNL1       -0.4306
     30 C           7.9140   -7.8636   26.5574 C.3     1  UNL1        0.2573
     31 C           6.9780   -2.7913   28.8958 C.3     1  UNL1        0.0270
     32 C           7.9558   -1.6841   28.6349 C.3     1  UNL1        0.0022
     33 C           6.9630   -3.4800   30.2283 C.3     1  UNL1        0.0022
     34 C          -8.6593    5.7539   24.7603 C.ar    1  UNL1        0.0192
     35 C          -7.8389    6.2233   25.9251 C.ar    1  UNL1        0.0015
     36 C          -6.4359    5.7238   26.1041 C.ar    1  UNL1        0.0000
     37 C          -5.8532    4.7550   25.1183 C.ar    1  UNL1        0.0000
     38 C          -6.6735    4.2856   23.9535 C.ar    1  UNL1        0.0000
     39 C          -8.0766    4.7850   23.7745 C.ar    1  UNL1        0.0015
     40 C         -12.4814    6.4246   24.6778 C.ar    1  UNL1        0.1353
     41 N         -11.3077    5.5806   25.0777 N.ar    1  UNL1       -0.2295
     42 C         -10.0623    6.2533   24.5813 C.ar    1  UNL1        0.0996
     43 C         -10.4663    7.5132   23.8746 C.ar    1  UNL1        0.0927
     44 N         -11.9614    7.6191   23.9342 N.ar    1  UNL1       -0.3383
     45 H         -12.5058    8.3451   23.5523 H       1  UNL1        0.1672
     46 C         -14.7479    5.5793   22.4874 C.2     1  UNL1        0.2439
     47 O         -13.3888    5.8159   21.8986 O.2     1  UNL1       -0.2731
     48 N         -14.9640    5.7380   23.9633 N.am    1  UNL1       -0.2730
     49 C         -16.2597    5.5361   24.6914 C.3     1  UNL1        0.0938
     50 C         -16.0187    5.7999   26.1482 C.3     1  UNL1        0.0220
     51 C         -17.0427    5.7138   27.2410 C.3     1  UNL1        0.0018
     52 C         -14.5741    6.1648   26.3204 C.3     1  UNL1        0.0293
     53 C         -13.9222    6.1266   24.9700 C.3     1  UNL1        0.1319
     54 C         -15.8911    5.1838   21.6003 C.3     1  UNL1        0.1512
     55 C         -15.5602    3.1724   19.9895 C.2     1  UNL1        0.4021
     56 O         -14.7839    4.0501   19.0531 O.2     1  UNL1       -0.2264
     57 N         -16.1139    3.7392   21.2631 N.am    1  UNL1       -0.2640
     58 H         -16.6234    3.1632   21.8777 H       1  UNL1        0.1532
     59 C         -14.7742    0.9864   18.8262 C.3     1  UNL1        0.2573
     60 O         -15.7830    1.7279   19.6523 O.3     1  UNL1       -0.4306
     61 C         -16.8115    6.2329   21.0504 C.3     1  UNL1        0.0270
     62 C         -16.2532    7.3869   20.2717 C.3     1  UNL1        0.0022
     63 C         -18.2902    6.1279   21.2793 C.3     1  UNL1        0.0022
@<TRIPOS>BOND
     1    59    60    1
     2    60    55    1
     3    55    56    2
     4    55    57   am
     5    54    57    1
     6    54    46    1
     7    46    47    2
     8    46    48   am
     9    48    49    1
    10    49    50    1
    11    50    51    1
    12    50    52    1
    13    52    53    1
    14    53    40    1
    15    40    41   ar
    16    41    42   ar
    17    42    34    1
    18    34    35   ar
    19    35    36   ar
    20    36    37   ar
    21    37     1    1
    22     1     2   ar
    23     2     3   ar
    24     3     4   ar
    25     4     7    1
    26     7     8    2
    27     8     9    1
    28     9    10    2
    29    10    11    1
    30    11    12    2
    31    16    12    1
    32    16    17    1
    33    17    18    1
    34    18    19    1
    35    18    20    1
    36    20    21    1
    37    21    22   am
    38    22    23    2
    39    22    24    1
    40    24    25    1
    41    25    26   am
    42    26    27    2
    43    26    29    1
    44    29    30    1
    45    24    31    1
    46    31    32    1
    47    31    33    1
    48    12    13    1
    49    13    14    2
    50    14    15    1
    51     4     5   ar
    52     5     6   ar
    53    37    38   ar
    54    38    39   ar
    55    42    43   ar
    56    43    44   ar
    57    54    61    1
    58    61    62    1
    59    61    63    1
    60    53    48    1
    61    44    40   ar
    62    39    34   ar
    63     6     1   ar
    64    15     7    1
    65    14    10    1
    66    21    16    1
    67    57    58    1
    68    25    28    1
    69    44    45    1
@<TRIPOS>MOLECULE
*****
 63 69 0 0 0
SMALL
GASTEIGER

@<TRIPOS>ATOM
      1 C          -4.6885    4.1674   25.0321 C.ar    1  UNL1       -0.0000
      2 C          -4.0351    4.0095   26.3732 C.ar    1  UNL1       -0.0000
      3 C          -2.6327    3.4859   26.4671 C.ar    1  UNL1       -0.0003
      4 C          -1.8836    3.1200   25.2202 C.ar    1  UNL1       -0.0035
      5 C          -2.5369    3.2778   23.8792 C.ar    1  UNL1       -0.0003
      6 C          -3.9394    3.8015   23.7852 C.ar    1  UNL1       -0.0000
      7 C          -0.4811    2.5963   25.3142 C.2     1  UNL1       -0.0137
      8 C           0.0821    2.1953   26.6454 C.2     1  UNL1        0.0001
      9 C           1.4845    1.6716   26.7394 C.2     1  UNL1        0.0498
     10 C           2.3238    1.5490   25.5022 C.2     1  UNL1        0.2318
     11 N           3.7288    1.0701   25.2859 N.2     1  UNL1       -0.0334
     12 C           4.0340    1.1752   23.8211 C.2     1  UNL1        0.3691
     13 N           2.8176    1.7189   23.1320 N.2     1  UNL1       -0.0373
     14 C           1.7607    1.9499   24.1711 C.2     1  UNL1        0.2175
     15 C           0.3582    2.4736   24.0771 C.3     1  UNL1        0.1040
     16 C           5.3283    0.8020   23.1610 C.3     1  UNL1        0.1878
     17 C           6.5704    1.6419   23.1181 C.3     1  UNL1        0.0344
     18 C           7.6174    0.8823   22.3586 C.3     1  UNL1        0.0221
     19 C           9.0141    1.3499   22.0753 C.3     1  UNL1        0.0018
     20 C           7.0224   -0.4269   21.9321 C.3     1  UNL1        0.0940
     21 N           5.6076   -0.4765   22.4281 N.am    1  UNL1       -0.2691
     22 C           4.6418   -1.6064   22.2265 C.2     1  UNL1        0.2440
     23 O           3.2521   -1.5136   22.7834 O.2     1  UNL1       -0.2731
     24 C           5.0656   -2.8291   21.4679 C.3     1  UNL1        0.1512
     25 N           5.9169   -3.8682   22.1354 N.am    1  UNL1       -0.2640
     26 C           7.2758   -4.1894   21.5876 C.2     1  UNL1        0.4021
     27 O           7.7835   -3.4715   20.3723 O.2     1  UNL1       -0.2264
     28 H           5.5837   -4.3394   22.9330 H       1  UNL1        0.1532
     29 O           8.1271   -5.2285   22.2551 O.3     1  UNL1       -0.4306
     30 C           7.8695   -5.6041   23.6843 C.3     1  UNL1        0.2573
     31 C           4.6382   -3.0126   20.0419 C.3     1  UNL1        0.0270
     32 C           4.0384   -4.3146   19.6002 C.3     1  UNL1        0.0022
     33 C           4.8106   -1.8940   19.0574 C.3     1  UNL1        0.0022
     34 C          -8.8959    5.7384   24.7501 C.ar    1  UNL1        0.0192
     35 C          -7.9972    6.1962   25.8605 C.ar    1  UNL1        0.0015
     36 C          -6.5948    5.6725   25.9544 C.ar    1  UNL1        0.0000
     37 C          -6.0910    4.6910   24.9381 C.ar    1  UNL1        0.0000
     38 C          -6.9896    4.2332   23.8278 C.ar    1  UNL1        0.0000
     39 C          -8.3921    4.7569   23.7338 C.ar    1  UNL1        0.0015
     40 C         -12.7156    6.4258   24.7998 C.ar    1  UNL1        0.1353
     41 N         -11.5419    5.5309   25.0673 N.ar    1  UNL1       -0.2295
     42 C         -10.2984    6.2621   24.6561 C.ar    1  UNL1        0.0996
     43 C         -10.7036    7.6088   24.1344 C.ar    1  UNL1        0.0927
     44 N         -12.1975    7.7100   24.2232 N.ar    1  UNL1       -0.3383
     45 H         -12.7423    8.4835   23.9508 H       1  UNL1        0.1672
     46 C         -14.9024    5.4730   22.5727 C.2     1  UNL1        0.2439
     47 O         -13.5355    5.7344   22.0128 O.2     1  UNL1       -0.2731
     48 N         -15.1599    5.6567   24.0390 N.am    1  UNL1       -0.2730
     49 C         -16.4679    5.4346   24.7389 C.3     1  UNL1        0.0938
     50 C         -16.2711    5.7354   26.1953 C.3     1  UNL1        0.0220
     51 C         -17.3198    5.6442   27.2639 C.3     1  UNL1        0.0018
     52 C         -14.8415    6.1433   26.3953 C.3     1  UNL1        0.0293
     53 C         -14.1548    6.0946   25.0626 C.3     1  UNL1        0.1319
     54 C         -16.0116    5.0279   21.6663 C.3     1  UNL1        0.1512
     55 C         -15.5278    3.0880   20.0073 C.2     1  UNL1        0.4021
     56 O         -14.7966    4.0398   19.1076 O.2     1  UNL1       -0.2264
     57 N         -16.1354    3.5820   21.2866 N.am    1  UNL1       -0.2640
     58 H         -16.6153    2.9573   21.8770 H       1  UNL1        0.1532
     59 C         -14.6336    1.0148   18.7219 C.3     1  UNL1        0.2573
     60 O         -15.6516    1.6421   19.6275 O.3     1  UNL1       -0.4306
     61 C         -16.9971    6.0286   21.1397 C.3     1  UNL1        0.0270
     62 C         -18.4664    5.7306   21.1866 C.3     1  UNL1        0.0022
     63 C         -16.5132    7.3274   20.5661 C.3     1  UNL1        0.0022
@<TRIPOS>BOND
     1    59    60    1
     2    60    55    1
     3    55    56    2
     4    55    57   am
     5    54    57    1
     6    54    46    1
     7    46    47    2
     8    46    48   am
     9    48    49    1
    10    49    50    1
    11    50    51    1
    12    50    52    1
    13    52    53    1
    14    53    40    1
    15    40    41   ar
    16    41    42   ar
    17    42    34    1
    18    34    35   ar
    19    35    36   ar
    20    36    37   ar
    21    37     1    1
    22     1     2   ar
    23     2     3   ar
    24     3     4   ar
    25     4     7    1
    26     7     8    2
    27     8     9    1
    28     9    10    2
    29    10    11    1
    30    11    12    2
    31    16    12    1
    32    16    17    1
    33    17    18    1
    34    18    19    1
    35    18    20    1
    36    20    21    1
    37    21    22   am
    38    22    23    2
    39    22    24    1
    40    24    25    1
    41    25    26   am
    42    26    27    2
    43    26    29    1
    44    29    30    1
    45    24    31    1
    46    31    32    1
    47    31    33    1
    48    12    13    1
    49    13    14    2
    50    14    15    1
    51     4     5   ar
    52     5     6   ar
    53    37    38   ar
    54    38    39   ar
    55    42    43   ar
    56    43    44   ar
    57    54    61    1
    58    61    62    1
    59    61    63    1
    60    53    48    1
    61    44    40   ar
    62    39    34   ar
    63     6     1   ar
    64    15     7    1
    65    14    10    1
    66    21    16    1
    67    57    58    1
    68    25    28    1
    69    44    45    1
@<TRIPOS>MOLECULE
*****
 63 69 0 0 0
SMALL
GASTEIGER

@<TRIPOS>ATOM
      1 C          -4.7521    4.1491   25.0920 C.ar    1  UNL1       -0.0000
      2 C          -4.1379    3.9665   26.4483 C.ar    1  UNL1       -0.0000
      3 C          -2.7393    3.4388   26.5734 C.ar    1  UNL1       -0.0003
      4 C          -1.9549    3.0939   25.3423 C.ar    1  UNL1       -0.0035
      5 C          -2.5691    3.2766   23.9860 C.ar    1  UNL1       -0.0003
      6 C          -3.9677    3.8042   23.8609 C.ar    1  UNL1       -0.0000
      7 C          -0.5563    2.5663   25.4674 C.2     1  UNL1       -0.0137
      8 C          -0.1350    1.8465   26.7141 C.2     1  UNL1        0.0001
      9 C           1.2635    1.3189   26.8392 C.2     1  UNL1        0.0498
     10 C           2.2407    1.5111   25.7176 C.2     1  UNL1        0.2318
     11 N           3.6755    1.1045   25.5558 N.2     1  UNL1       -0.0334
     12 C           4.1409    1.5730   24.2090 C.2     1  UNL1        0.3691
     13 N           2.9938    2.2692   23.5385 N.2     1  UNL1       -0.0373
     14 C           1.8195    2.2309   24.4709 C.2     1  UNL1        0.2175
     15 C           0.4209    2.7585   24.3458 C.3     1  UNL1        0.1040
     16 C           5.5127    1.3794   23.6336 C.3     1  UNL1        0.1878
     17 C           6.7036    2.2578   23.8788 C.3     1  UNL1        0.0344
     18 C           7.8612    1.6946   23.1087 C.3     1  UNL1        0.0221
     19 C           9.2504    2.2587   23.0671 C.3     1  UNL1        0.0018
     20 C           7.3856    0.4683   22.3877 C.3     1  UNL1        0.0940
     21 N           5.9340    0.2735   22.7121 N.am    1  UNL1       -0.2691
     22 C           5.0579   -0.8330   22.2042 C.2     1  UNL1        0.2440
     23 O           3.6173   -0.8986   22.6171 O.2     1  UNL1       -0.2731
     24 C           5.6223   -1.8740   21.2833 C.3     1  UNL1        0.1512
     25 N           5.6628   -1.6248   19.8047 N.am    1  UNL1       -0.2640
     26 C           4.5614   -2.1407   18.9269 C.2     1  UNL1        0.4021
     27 O           3.4195   -2.9058   19.5276 O.2     1  UNL1       -0.2264
     28 H           6.4123   -1.1227   19.4105 H       1  UNL1        0.1532
     29 O           4.6019   -1.8916   17.4483 O.3     1  UNL1       -0.4306
     30 C           4.2496   -0.5382   16.9059 C.3     1  UNL1        0.2573
     31 C           6.1462   -3.1640   21.8412 C.3     1  UNL1        0.0270
     32 C           5.7334   -3.6109   23.2123 C.3     1  UNL1        0.0022
     33 C           7.0830   -4.0074   21.0280 C.3     1  UNL1        0.0022
     34 C          -8.9478    5.7320   24.7167 C.ar    1  UNL1        0.0192
     35 C          -8.0526    6.2320   25.8116 C.ar    1  UNL1        0.0015
     36 C          -6.6541    5.7044   25.9367 C.ar    1  UNL1        0.0000
     37 C          -6.1506    4.6767   24.9669 C.ar    1  UNL1        0.0000
     38 C          -7.0456    4.1767   23.8720 C.ar    1  UNL1        0.0000
     39 C          -8.4443    4.7044   23.7469 C.ar    1  UNL1        0.0015
     40 C         -12.7579    6.4703   24.7649 C.ar    1  UNL1        0.1353
     41 N         -11.5882    5.5971   25.1100 N.ar    1  UNL1       -0.2295
     42 C         -10.3463    6.2596   24.5916 C.ar    1  UNL1        0.0996
     43 C         -10.7485    7.5423   23.9261 C.ar    1  UNL1        0.0927
     44 N         -12.2390    7.6726   24.0332 N.ar    1  UNL1       -0.3383
     45 H         -12.7814    8.4166   23.6846 H       1  UNL1        0.1672
     46 C         -15.0460    5.4670   22.6656 C.2     1  UNL1        0.2439
     47 O         -13.6942    5.6644   22.0462 O.2     1  UNL1       -0.2731
     48 N         -15.2462    5.7293   24.1288 N.am    1  UNL1       -0.2730
     49 C         -16.5332    5.5765   24.8839 C.3     1  UNL1        0.0938
     50 C         -16.2768    5.9433   26.3157 C.3     1  UNL1        0.0220
     51 C         -17.2884    5.9325   27.4233 C.3     1  UNL1        0.0018
     52 C         -14.8315    6.3227   26.4453 C.3     1  UNL1        0.0293
     53 C         -14.1945    6.1905   25.0938 C.3     1  UNL1        0.1319
     54 C         -16.1978    5.0072   21.8216 C.3     1  UNL1        0.1512
     55 C         -17.0909    2.6176   22.3135 C.2     1  UNL1        0.4021
     56 O         -17.7433    3.1196   23.5674 O.2     1  UNL1       -0.2264
     57 N         -16.3181    3.5613   21.4406 N.am    1  UNL1       -0.2640
     58 H         -15.8899    3.2319   20.6176 H       1  UNL1        0.1532
     59 C         -16.7323    0.7079   20.5888 C.3     1  UNL1        0.2573
     60 O         -17.2113    1.1718   21.9324 O.3     1  UNL1       -0.4306
     61 C         -17.2290    5.9931   21.3587 C.3     1  UNL1        0.0270
     62 C         -18.6492    5.8675   21.8248 C.3     1  UNL1        0.0022
     63 C         -16.8401    7.1048   20.4297 C.3     1  UNL1        0.0022
@<TRIPOS>BOND
     1    59    60    1
     2    60    55    1
     3    55    56    2
     4    55    57   am
     5    54    57    1
     6    54    46    1
     7    46    47    2
     8    46    48   am
     9    48    49    1
    10    49    50    1
    11    50    51    1
    12    50    52    1
    13    52    53    1
    14    53    40    1
    15    40    41   ar
    16    41    42   ar
    17    42    34    1
    18    34    35   ar
    19    35    36   ar
    20    36    37   ar
    21    37     1    1
    22     1     2   ar
    23     2     3   ar
    24     3     4   ar
    25     4     7    1
    26     7     8    2
    27     8     9    1
    28     9    10    2
    29    10    11    1
    30    11    12    2
    31    16    12    1
    32    16    17    1
    33    17    18    1
    34    18    19    1
    35    18    20    1
    36    20    21    1
    37    21    22   am
    38    22    23    2
    39    22    24    1
    40    24    25    1
    41    25    26   am
    42    26    27    2
    43    26    29    1
    44    29    30    1
    45    24    31    1
    46    31    32    1
    47    31    33    1
    48    12    13    1
    49    13    14    2
    50    14    15    1
    51     4     5   ar
    52     5     6   ar
    53    37    38   ar
    54    38    39   ar
    55    42    43   ar
    56    43    44   ar
    57    54    61    1
    58    61    62    1
    59    61    63    1
    60    53    48    1
    61    44    40   ar
    62    39    34   ar
    63     6     1   ar
    64    15     7    1
    65    14    10    1
    66    21    16    1
    67    57    58    1
    68    25    28    1
    69    44    45    1
@<TRIPOS>MOLECULE
*****
 63 69 0 0 0
SMALL
GASTEIGER

@<TRIPOS>ATOM
      1 C          -4.6388    4.2729   24.9923 C.ar    1  UNL1       -0.0000
      2 C          -4.0371    3.9841   26.3357 C.ar    1  UNL1       -0.0000
      3 C          -2.6294    3.4755   26.4333 C.ar    1  UNL1       -0.0003
      4 C          -1.8233    3.2556   25.1876 C.ar    1  UNL1       -0.0035
      5 C          -2.4249    3.5444   23.8443 C.ar    1  UNL1       -0.0003
      6 C          -3.8327    4.0530   23.7466 C.ar    1  UNL1       -0.0000
      7 C          -0.4156    2.7469   25.2853 C.2     1  UNL1       -0.0137
      8 C           0.5800    3.4573   26.1536 C.2     1  UNL1        0.0001
      9 C           1.9877    2.9486   26.2513 C.2     1  UNL1        0.0498
     10 C           2.3998    1.7295   25.4805 C.2     1  UNL1        0.2318
     11 N           3.7068    1.0003   25.3793 N.2     1  UNL1       -0.0334
     12 C           3.5189   -0.1607   24.4484 C.2     1  UNL1        0.3691
     13 N           2.0958   -0.1491   23.9743 N.2     1  UNL1       -0.0373
     14 C           1.4042    1.0191   24.6122 C.2     1  UNL1        0.2175
     15 C          -0.0035    1.5278   24.5145 C.3     1  UNL1        0.1040
     16 C           4.5696   -1.1583   24.0598 C.3     1  UNL1        0.1878
     17 C           5.2992   -2.0790   24.9926 C.3     1  UNL1        0.0344
     18 C           6.2556   -2.9000   24.1793 C.3     1  UNL1        0.0221
     19 C           7.1870   -3.9499   24.7085 C.3     1  UNL1        0.0018
     20 C           6.1171   -2.4867   22.7441 C.3     1  UNL1        0.0940
     21 N           5.0750   -1.4102   22.6702 N.am    1  UNL1       -0.2691
     22 C           4.6186   -0.7089   21.4253 C.2     1  UNL1        0.2440
     23 O           3.5621    0.3528   21.5070 O.2     1  UNL1       -0.2731
     24 C           5.2188   -1.0693   20.0986 C.3     1  UNL1        0.1512
     25 N           6.2524   -0.1781   19.4761 N.am    1  UNL1       -0.2640
     26 C           5.8990    0.6616   18.2845 C.2     1  UNL1        0.4021
     27 O           4.5122    0.6102   17.7153 O.2     1  UNL1       -0.2264
     28 H           7.1626   -0.1444   19.8496 H       1  UNL1        0.1532
     29 O           6.9326    1.5528   17.6620 O.3     1  UNL1       -0.4306
     30 C           8.3862    1.3420   17.9665 C.3     1  UNL1        0.2573
     31 C           4.7852   -2.3207   19.3945 C.3     1  UNL1        0.0270
     32 C           5.7894   -3.1467   18.6464 C.3     1  UNL1        0.0022
     33 C           3.3475   -2.7463   19.4384 C.3     1  UNL1        0.0022
     34 C          -8.8620    5.7989   24.6994 C.ar    1  UNL1        0.0192
     35 C          -7.9788    6.2477   25.8257 C.ar    1  UNL1        0.0015
     36 C          -6.5711    5.7390   25.9234 C.ar    1  UNL1        0.0000
     37 C          -6.0465    4.7816   24.8947 C.ar    1  UNL1        0.0000
     38 C          -6.9297    4.3328   23.7684 C.ar    1  UNL1        0.0000
     39 C          -8.3375    4.8415   23.6707 C.ar    1  UNL1        0.0015
     40 C         -12.6838    6.4699   24.7924 C.ar    1  UNL1        0.1353
     41 N         -11.4981    5.6027   25.0958 N.ar    1  UNL1       -0.2295
     42 C         -10.2697    6.3076   24.6018 C.ar    1  UNL1        0.0996
     43 C         -10.6962    7.6105   23.9930 C.ar    1  UNL1        0.0927
     44 N         -12.1882    7.7108   24.1108 N.ar    1  UNL1       -0.3383
     45 H         -12.7445    8.4596   23.7960 H       1  UNL1        0.1672
     46 C         -14.9287    5.3871   22.6859 C.2     1  UNL1        0.2439
     47 O         -13.5789    5.6181   22.0738 O.2     1  UNL1       -0.2731
     48 N         -15.1459    5.6543   24.1458 N.am    1  UNL1       -0.2730
     49 C         -16.4331    5.4707   24.8937 C.3     1  UNL1        0.0938
     50 C         -16.1967    5.8550   26.3243 C.3     1  UNL1        0.0220
     51 C         -17.2149    5.8237   27.4254 C.3     1  UNL1        0.0018
     52 C         -14.7635    6.2760   26.4604 C.3     1  UNL1        0.0293
     53 C         -14.1141    6.1520   25.1140 C.3     1  UNL1        0.1319
     54 C         -16.0614    4.8888   21.8380 C.3     1  UNL1        0.1512
     55 C         -17.5782    2.8215   22.2565 C.2     1  UNL1        0.4021
     56 O         -18.5924    3.7011   22.9255 O.2     1  UNL1       -0.2264
     57 N         -16.3127    3.4153   21.7127 N.am    1  UNL1       -0.2640
     58 H         -15.6470    2.8380   21.2737 H       1  UNL1        0.1532
     59 C         -18.0103    0.7305   20.7763 C.3     1  UNL1        0.2573
     60 O         -17.8295    1.3480   22.1313 O.3     1  UNL1       -0.4306
     61 C         -16.9427    5.8640   21.1153 C.3     1  UNL1        0.0270
     62 C         -17.3928    7.1195   21.8016 C.3     1  UNL1        0.0022
     63 C         -17.3739    5.5838   19.7062 C.3     1  UNL1        0.0022
@<TRIPOS>BOND
     1    59    60    1
     2    60    55    1
     3    55    56    2
     4    55    57   am
     5    54    57    1
     6    54    46    1
     7    46    47    2
     8    46    48   am
     9    48    49    1
    10    49    50    1
    11    50    51    1
    12    50    52    1
    13    52    53    1
    14    53    40    1
    15    40    41   ar
    16    41    42   ar
    17    42    34    1
    18    34    35   ar
    19    35    36   ar
    20    36    37   ar
    21    37     1    1
    22     1     2   ar
    23     2     3   ar
    24     3     4   ar
    25     4     7    1
    26     7     8    2
    27     8     9    1
    28     9    10    2
    29    10    11    1
    30    11    12    2
    31    16    12    1
    32    16    17    1
    33    17    18    1
    34    18    19    1
    35    18    20    1
    36    20    21    1
    37    21    22   am
    38    22    23    2
    39    22    24    1
    40    24    25    1
    41    25    26   am
    42    26    27    2
    43    26    29    1
    44    29    30    1
    45    24    31    1
    46    31    32    1
    47    31    33    1
    48    12    13    1
    49    13    14    2
    50    14    15    1
    51     4     5   ar
    52     5     6   ar
    53    37    38   ar
    54    38    39   ar
    55    42    43   ar
    56    43    44   ar
    57    54    61    1
    58    61    62    1
    59    61    63    1
    60    53    48    1
    61    44    40   ar
    62    39    34   ar
    63     6     1   ar
    64    15     7    1
    65    14    10    1
    66    21    16    1
    67    57    58    1
    68    25    28    1
    69    44    45    1
@<TRIPOS>MOLECULE
*****
 63 69 0 0 0
SMALL
GASTEIGER

@<TRIPOS>ATOM
      1 C          -4.2862    4.0625   24.7530 C.ar    1  UNL1       -0.0000
      2 C          -5.1354    3.8281   23.5389 C.ar    1  UNL1       -0.0000
      3 C          -6.5280    4.3821   23.4793 C.ar    1  UNL1       -0.0003
      4 C          -7.0716    5.1705   24.6338 C.ar    1  UNL1       -0.0035
      5 C          -6.2225    5.4049   25.8479 C.ar    1  UNL1       -0.0003
      6 C          -4.8298    4.8509   25.9076 C.ar    1  UNL1       -0.0000
      7 C          -8.4643    5.7246   24.5742 C.2     1  UNL1       -0.0137
      8 C          -8.6857    7.1570   24.1882 C.2     1  UNL1        0.0001
      9 C         -10.0784    7.7109   24.1286 C.2     1  UNL1        0.0498
     10 C         -11.2496    6.8324   24.4549 C.2     1  UNL1        0.2318
     11 N         -12.7259    7.0970   24.4820 N.2     1  UNL1       -0.0334
     12 C         -13.4168    5.8279   24.8848 C.2     1  UNL1        0.3691
     13 N         -12.3675    4.7792   25.1065 N.2     1  UNL1       -0.0373
     14 C         -11.0282    5.4000   24.8408 C.2     1  UNL1        0.2175
     15 C          -9.6355    4.8460   24.9005 C.3     1  UNL1        0.1040
     16 C         -14.8971    5.6405   25.0388 C.3     1  UNL1        0.1878
     17 C         -15.6951    5.9070   26.2807 C.3     1  UNL1        0.0344
     18 C         -17.1305    5.5849   25.9873 C.3     1  UNL1        0.0221
     19 C         -18.2756    5.7069   26.9483 C.3     1  UNL1        0.0018
     20 C         -17.2195    5.1194   24.5641 C.3     1  UNL1        0.0940
     21 N         -15.8391    5.1538   23.9779 N.am    1  UNL1       -0.2691
     22 C         -15.4665    4.7690   22.5768 C.2     1  UNL1        0.2440
     23 O         -14.0371    4.8556   22.1303 O.2     1  UNL1       -0.2731
     24 C         -16.5232    4.2977   21.6222 C.3     1  UNL1        0.1512
     25 N         -16.4410    2.9209   21.0325 N.am    1  UNL1       -0.2640
     26 C         -17.0307    1.7539   21.7675 C.2     1  UNL1        0.4021
     27 O         -17.7025    1.9635   23.0921 O.2     1  UNL1       -0.2264
     28 H         -16.0001    2.7833   20.1631 H       1  UNL1        0.1532
     29 O         -16.9485    0.3771   21.1778 O.3     1  UNL1       -0.4306
     30 C         -18.0566   -0.1321   20.3044 C.3     1  UNL1        0.2573
     31 C         -17.6620    5.2032   21.2574 C.3     1  UNL1        0.0270
     32 C         -19.0730    4.6988   21.3265 C.3     1  UNL1        0.0022
     33 C         -17.3899    6.6130   20.8234 C.3     1  UNL1        0.0022
     34 C          -0.1083    2.4004   24.9319 C.ar    1  UNL1        0.0192
     35 C          -0.6497    2.9308   23.6374 C.ar    1  UNL1        0.0015
     36 C          -2.0424    3.4848   23.5778 C.ar    1  UNL1        0.0000
     37 C          -2.8936    3.5085   24.8126 C.ar    1  UNL1        0.0000
     38 C          -2.3522    2.9782   26.1071 C.ar    1  UNL1        0.0000
     39 C          -0.9595    2.4242   26.1667 C.ar    1  UNL1        0.0015
     40 C           3.2296    0.4457   24.6111 C.ar    1  UNL1        0.1353
     41 N           1.7828    0.6338   24.2627 N.ar    1  UNL1       -0.2295
     42 C           1.2844    1.8464   24.9915 C.ar    1  UNL1        0.0996
     43 C           2.4232    2.4077   25.7903 C.ar    1  UNL1        0.0927
     44 N           3.6254    1.5421   25.5553 N.ar    1  UNL1       -0.3383
     45 H           4.5175    1.6708   25.9512 H       1  UNL1        0.1672
     46 C           4.2236    0.0559   21.5274 C.2     1  UNL1        0.2439
     47 O           3.3314    1.2437   21.7353 O.2     1  UNL1       -0.2731
     48 N           4.5805   -0.8261   22.6870 N.am    1  UNL1       -0.2730
     49 C           5.4570   -2.0421   22.6326 C.3     1  UNL1        0.0938
     50 C           5.5418   -2.6146   24.0165 C.3     1  UNL1        0.0220
     51 C           6.3150   -3.8350   24.4200 C.3     1  UNL1        0.0018
     52 C           4.7178   -1.7523   24.9261 C.3     1  UNL1        0.0293
     53 C           4.1236   -0.6470   24.1044 C.3     1  UNL1        0.1319
     54 C           4.7588   -0.2498   20.1598 C.3     1  UNL1        0.1512
     55 C           6.4609    1.5627   19.4067 C.2     1  UNL1        0.4021
     56 O           5.3621    2.5834   19.3797 O.2     1  UNL1       -0.2264
     57 N           6.1593    0.1461   19.7968 N.am    1  UNL1       -0.2640
     58 H           6.8806   -0.5237   19.8145 H       1  UNL1        0.1532
     59 C           8.6590    1.1112   18.0973 C.3     1  UNL1        0.2573
     60 O           7.8614    1.9587   19.0437 O.3     1  UNL1       -0.4306
     61 C           3.8935   -0.9515   19.1554 C.3     1  UNL1        0.0270
     62 C           3.6533   -2.4273   19.2733 C.3     1  UNL1        0.0022
     63 C           3.2685   -0.1772   18.0329 C.3     1  UNL1        0.0022
@<TRIPOS>BOND
     1    59    60    1
     2    60    55    1
     3    55    56    2
     4    55    57   am
     5    54    57    1
     6    54    46    1
     7    46    47    2
     8    46    48   am
     9    48    49    1
    10    49    50    1
    11    50    51    1
    12    50    52    1
    13    52    53    1
    14    53    40    1
    15    40    41   ar
    16    41    42   ar
    17    42    34    1
    18    34    35   ar
    19    35    36   ar
    20    36    37   ar
    21    37     1    1
    22     1     2   ar
    23     2     3   ar
    24     3     4   ar
    25     4     7    1
    26     7     8    2
    27     8     9    1
    28     9    10    2
    29    10    11    1
    30    11    12    2
    31    16    12    1
    32    16    17    1
    33    17    18    1
    34    18    19    1
    35    18    20    1
    36    20    21    1
    37    21    22   am
    38    22    23    2
    39    22    24    1
    40    24    25    1
    41    25    26   am
    42    26    27    2
    43    26    29    1
    44    29    30    1
    45    24    31    1
    46    31    32    1
    47    31    33    1
    48    12    13    1
    49    13    14    2
    50    14    15    1
    51     4     5   ar
    52     5     6   ar
    53    37    38   ar
    54    38    39   ar
    55    42    43   ar
    56    43    44   ar
    57    54    61    1
    58    61    62    1
    59    61    63    1
    60    53    48    1
    61    44    40   ar
    62    39    34   ar
    63     6     1   ar
    64    15     7    1
    65    14    10    1
    66    21    16    1
    67    57    58    1
    68    25    28    1
    69    44    45    1
@<TRIPOS>MOLECULE
*****
 63 69 0 0 0
SMALL
GASTEIGER

@<TRIPOS>ATOM
      1 C          -4.4491    4.2784   25.3082 C.ar    1  UNL1       -0.0000
      2 C          -3.9255    3.9785   26.6816 C.ar    1  UNL1       -0.0000
      3 C          -2.5210    3.4820   26.8569 C.ar    1  UNL1       -0.0003
      4 C          -1.6400    3.2853   25.6589 C.ar    1  UNL1       -0.0035
      5 C          -2.1635    3.5852   24.2856 C.ar    1  UNL1       -0.0003
      6 C          -3.5680    4.0817   24.1103 C.ar    1  UNL1       -0.0000
      7 C          -0.2354    2.7888   25.8343 C.2     1  UNL1       -0.0137
      8 C           0.8922    3.4543   25.1026 C.2     1  UNL1        0.0001
      9 C           2.2967    2.9578   25.2781 C.2     1  UNL1        0.0498
     10 C           2.5736    1.7957   26.1852 C.2     1  UNL1        0.2318
     11 N           3.8453    1.0906   26.5535 N.2     1  UNL1       -0.0334
     12 C           3.5036   -0.0107   27.5128 C.2     1  UNL1        0.3691
     13 N           2.0207    0.0137   27.7374 N.2     1  UNL1       -0.0373
     14 C           1.4459    1.1301   26.9169 C.2     1  UNL1        0.2175
     15 C           0.0415    1.6267   26.7415 C.3     1  UNL1        0.1040
     16 C           4.4744   -0.9684   28.1378 C.3     1  UNL1        0.1878
     17 C           5.0610   -2.1830   27.4816 C.3     1  UNL1        0.0344
     18 C           5.9781   -2.8448   28.4671 C.3     1  UNL1        0.0221
     19 C           6.7750   -4.0930   28.2291 C.3     1  UNL1        0.0018
     20 C           5.9582   -2.0392   29.7322 C.3     1  UNL1        0.0940
     21 N           5.0288   -0.8794   29.5287 N.am    1  UNL1       -0.2691
     22 C           4.7099    0.1827   30.5387 C.2     1  UNL1        0.2440
     23 O           3.7563    1.2869   30.1904 O.2     1  UNL1       -0.2731
     24 C           5.3447    0.1406   31.8972 C.3     1  UNL1        0.1512
     25 N           6.7054    0.7357   32.1080 N.am    1  UNL1       -0.2640
     26 C           7.8599   -0.1461   32.4816 C.2     1  UNL1        0.4021
     27 O           7.6537   -1.6229   32.6444 O.2     1  UNL1       -0.2264
     28 H           6.8407    1.7050   32.0011 H       1  UNL1        0.1532
     29 O           9.2206    0.4490   32.6924 O.3     1  UNL1       -0.4306
     30 C           9.3647    1.9205   32.9447 C.3     1  UNL1        0.2573
     31 C           4.6188   -0.4966   33.0448 C.3     1  UNL1        0.0270
     32 C           4.2259    0.3282   34.2345 C.3     1  UNL1        0.0022
     33 C           4.2857   -1.9585   33.0027 C.3     1  UNL1        0.0022
     34 C          -8.6627    5.7679   24.7822 C.ar    1  UNL1        0.0192
     35 C          -7.8471    6.2236   25.9558 C.ar    1  UNL1        0.0015
     36 C          -6.4426    5.7270   26.1311 C.ar    1  UNL1        0.0000
     37 C          -5.8536    4.7749   25.1329 C.ar    1  UNL1        0.0000
     38 C          -6.6691    4.3193   23.9593 C.ar    1  UNL1        0.0000
     39 C          -8.0736    4.8158   23.7839 C.ar    1  UNL1        0.0015
     40 C         -12.4835    6.4491   24.7392 C.ar    1  UNL1        0.1353
     41 N         -11.3054    5.6188   25.1546 N.ar    1  UNL1       -0.2295
     42 C         -10.0672    6.2645   24.6068 C.ar    1  UNL1        0.0996
     43 C         -10.4801    7.4938   23.8530 C.ar    1  UNL1        0.0927
     44 N         -11.9735    7.6079   23.9348 N.ar    1  UNL1       -0.3383
     45 H         -12.5225    8.3186   23.5313 H       1  UNL1        0.1672
     46 C         -14.8043    5.5697   22.6203 C.2     1  UNL1        0.2439
     47 O         -13.4568    5.7814   21.9962 O.2     1  UNL1       -0.2731
     48 N         -14.9864    5.7655   24.0963 N.am    1  UNL1       -0.2730
     49 C         -16.2672    5.5914   24.8574 C.3     1  UNL1        0.0938
     50 C         -15.9920    5.8880   26.3018 C.3     1  UNL1        0.0220
     51 C         -16.9921    5.8363   27.4186 C.3     1  UNL1        0.0018
     52 C         -14.5411    6.2454   26.4333 C.3     1  UNL1        0.0293
     53 C         -13.9196    6.1697   25.0702 C.3     1  UNL1        0.1319
     54 C         -15.9698    5.1623   21.7683 C.3     1  UNL1        0.1512
     55 C         -15.5881    3.2114   20.0957 C.2     1  UNL1        0.4021
     56 O         -14.8390    4.1386   19.1852 O.2     1  UNL1       -0.2264
     57 N         -16.1535    3.7232   21.3873 N.am    1  UNL1       -0.2640
     58 H         -16.6451    3.1146   21.9849 H       1  UNL1        0.1532
     59 C         -17.1418    1.2485   19.4007 C.3     1  UNL1        0.2573
     60 O         -15.7717    1.7722   19.7147 O.3     1  UNL1       -0.4306
     61 C         -16.9516    6.1940   21.2975 C.3     1  UNL1        0.0270
     62 C         -16.6151    7.6520   21.4012 C.3     1  UNL1        0.0022
     63 C         -18.2699    5.7677   20.7228 C.3     1  UNL1        0.0022
@<TRIPOS>BOND
     1    59    60    1
     2    60    55    1
     3    55    56    2
     4    55    57   am
     5    54    57    1
     6    54    46    1
     7    46    47    2
     8    46    48   am
     9    48    49    1
    10    49    50    1
    11    50    51    1
    12    50    52    1
    13    52    53    1
    14    53    40    1
    15    40    41   ar
    16    41    42   ar
    17    42    34    1
    18    34    35   ar
    19    35    36   ar
    20    36    37   ar
    21    37     1    1
    22     1     2   ar
    23     2     3   ar
    24     3     4   ar
    25     4     7    1
    26     7     8    2
    27     8     9    1
    28     9    10    2
    29    10    11    1
    30    11    12    2
    31    16    12    1
    32    16    17    1
    33    17    18    1
    34    18    19    1
    35    18    20    1
    36    20    21    1
    37    21    22   am
    38    22    23    2
    39    22    24    1
    40    24    25    1
    41    25    26   am
    42    26    27    2
    43    26    29    1
    44    29    30    1
    45    24    31    1
    46    31    32    1
    47    31    33    1
    48    12    13    1
    49    13    14    2
    50    14    15    1
    51     4     5   ar
    52     5     6   ar
    53    37    38   ar
    54    38    39   ar
    55    42    43   ar
    56    43    44   ar
    57    54    61    1
    58    61    62    1
    59    61    63    1
    60    53    48    1
    61    44    40   ar
    62    39    34   ar
    63     6     1   ar
    64    15     7    1
    65    14    10    1
    66    21    16    1
    67    57    58    1
    68    25    28    1
    69    44    45    1
@<TRIPOS>MOLECULE
*****
 63 69 0 0 0
SMALL
GASTEIGER

@<TRIPOS>ATOM
      1 C          -3.9927    4.0348   23.9828 C.ar    1  UNL1       -0.0000
      2 C          -5.0404    3.5601   23.0198 C.ar    1  UNL1       -0.0000
      3 C          -6.4295    4.1220   23.0859 C.ar    1  UNL1       -0.0003
      4 C          -6.7712    5.1586   24.1149 C.ar    1  UNL1       -0.0035
      5 C          -5.7236    5.6333   25.0778 C.ar    1  UNL1       -0.0003
      6 C          -4.3343    5.0713   25.0118 C.ar    1  UNL1       -0.0000
      7 C          -8.1604    5.7205   24.1809 C.2     1  UNL1       -0.0137
      8 C          -8.4108    7.1487   23.7969 C.2     1  UNL1        0.0001
      9 C          -9.8000    7.7106   23.8629 C.2     1  UNL1        0.0498
     10 C         -10.9388    6.8442   24.3130 C.2     1  UNL1        0.2318
     11 N         -12.4044    7.1185   24.4777 N.2     1  UNL1       -0.0334
     12 C         -13.0597    5.8597   24.9635 C.2     1  UNL1        0.3691
     13 N         -11.9992    4.8076   25.0990 N.2     1  UNL1       -0.0373
     14 C         -10.6884    5.4161   24.6970 C.2     1  UNL1        0.2175
     15 C          -9.2992    4.8542   24.6310 C.3     1  UNL1        0.1040
     16 C         -14.5193    5.6839   25.2615 C.3     1  UNL1        0.1878
     17 C         -15.1827    5.9154   26.5867 C.3     1  UNL1        0.0344
     18 C         -16.6451    5.6202   26.4307 C.3     1  UNL1        0.0221
     19 C         -17.6846    5.7212   27.5073 C.3     1  UNL1        0.0018
     20 C         -16.8855    5.2064   25.0091 C.3     1  UNL1        0.0940
     21 N         -15.5715    5.2458   24.2865 N.am    1  UNL1       -0.2691
     22 C         -15.3491    4.9066   22.8424 C.2     1  UNL1        0.2440
     23 O         -13.9714    4.9925   22.2553 O.2     1  UNL1       -0.2731
     24 C         -16.5044    4.4814   21.9852 C.3     1  UNL1        0.1512
     25 N         -16.7250    3.0270   21.6914 N.am    1  UNL1       -0.2640
     26 C         -16.1884    2.4280   20.4253 C.2     1  UNL1        0.4021
     27 O         -15.4312    3.2831   19.4530 O.2     1  UNL1       -0.2264
     28 H         -17.2220    2.4658   22.3296 H       1  UNL1        0.1532
     29 O         -16.4090    0.9736   20.1315 O.3     1  UNL1       -0.4306
     30 C         -15.5073    0.2575   19.1703 C.3     1  UNL1        0.2573
     31 C         -17.4390    5.5105   21.4220 C.3     1  UNL1        0.0270
     32 C         -18.8057    5.1064   20.9539 C.3     1  UNL1        0.0022
     33 C         -17.0070    6.9438   21.3267 C.3     1  UNL1        0.0022
     34 C           0.1748    2.3490   23.7847 C.ar    1  UNL1        0.0192
     35 C          -0.4413    2.9711   22.5667 C.ar    1  UNL1        0.0015
     36 C          -1.8305    3.5330   22.6327 C.ar    1  UNL1        0.0000
     37 C          -2.6036    3.4728   23.9168 C.ar    1  UNL1        0.0000
     38 C          -1.9875    2.8508   25.1347 C.ar    1  UNL1        0.0000
     39 C          -0.5983    2.2888   25.0687 C.ar    1  UNL1        0.0015
     40 C           3.8032    1.2515   22.9507 C.ar    1  UNL1        0.1353
     41 N           2.5447    1.9893   22.6018 N.ar    1  UNL1       -0.2295
     42 C           1.5640    1.7870   23.7186 C.ar    1  UNL1        0.0996
     43 C           2.2164    0.9241   24.7578 C.ar    1  UNL1        0.0927
     44 N           3.6003    0.5931   24.2832 N.ar    1  UNL1       -0.3383
     45 H           4.2597    0.0408   24.7622 H       1  UNL1        0.1672
     46 C           4.7648   -1.2918   21.1462 C.2     1  UNL1        0.2439
     47 O           3.4746   -1.5159   21.8778 O.2     1  UNL1       -0.2731
     48 N           5.4884    0.0148   21.2846 N.am    1  UNL1       -0.2730
     49 C           6.7809    0.3817   20.6179 C.3     1  UNL1        0.0938
     50 C           7.1378    1.7776   21.0352 C.3     1  UNL1        0.0220
     51 C           8.3533    2.5434   20.6037 C.3     1  UNL1        0.0018
     52 C           6.0658    2.2733   21.9599 C.3     1  UNL1        0.0293
     53 C           5.0464    1.1838   22.1140 C.3     1  UNL1        0.1319
     54 C           5.3314   -2.3745   20.2762 C.3     1  UNL1        0.1512
     55 C           7.0522   -3.8113   21.5893 C.2     1  UNL1        0.4021
     56 O           7.9627   -2.6241   21.6952 O.2     1  UNL1       -0.2264
     57 N           5.7366   -3.6866   20.8798 N.am    1  UNL1       -0.2640
     58 H           5.1390   -4.4659   20.8102 H       1  UNL1        0.1532
     59 C           8.7802   -5.2526   22.8881 C.3     1  UNL1        0.2573
     60 O           7.4573   -5.1235   22.1928 O.3     1  UNL1       -0.4306
     61 C           5.4929   -2.1450   18.8027 C.3     1  UNL1        0.0270
     62 C           4.3180   -1.7094   17.9783 C.3     1  UNL1        0.0022
     63 C           6.8294   -2.3512   18.1535 C.3     1  UNL1        0.0022
@<TRIPOS>BOND
     1    59    60    1
     2    60    55    1
     3    55    56    2
     4    55    57   am
     5    54    57    1
     6    54    46    1
     7    46    47    2
     8    46    48   am
     9    48    49    1
    10    49    50    1
    11    50    51    1
    12    50    52    1
    13    52    53    1
    14    53    40    1
    15    40    41   ar
    16    41    42   ar
    17    42    34    1
    18    34    35   ar
    19    35    36   ar
    20    36    37   ar
    21    37     1    1
    22     1     2   ar
    23     2     3   ar
    24     3     4   ar
    25     4     7    1
    26     7     8    2
    27     8     9    1
    28     9    10    2
    29    10    11    1
    30    11    12    2
    31    16    12    1
    32    16    17    1
    33    17    18    1
    34    18    19    1
    35    18    20    1
    36    20    21    1
    37    21    22   am
    38    22    23    2
    39    22    24    1
    40    24    25    1
    41    25    26   am
    42    26    27    2
    43    26    29    1
    44    29    30    1
    45    24    31    1
    46    31    32    1
    47    31    33    1
    48    12    13    1
    49    13    14    2
    50    14    15    1
    51     4     5   ar
    52     5     6   ar
    53    37    38   ar
    54    38    39   ar
    55    42    43   ar
    56    43    44   ar
    57    54    61    1
    58    61    62    1
    59    61    63    1
    60    53    48    1
    61    44    40   ar
    62    39    34   ar
    63     6     1   ar
    64    15     7    1
    65    14    10    1
    66    21    16    1
    67    57    58    1
    68    25    28    1
    69    44    45    1
@<TRIPOS>MOLECULE
*****
 63 69 0 0 0
SMALL
GASTEIGER

@<TRIPOS>ATOM
      1 C          -4.2412    4.1448   25.0051 C.ar    1  UNL1       -0.0000
      2 C          -5.1162    3.6981   23.8715 C.ar    1  UNL1       -0.0000
      3 C          -6.5127    4.2311   23.7470 C.ar    1  UNL1       -0.0003
      4 C          -7.0344    5.2107   24.7560 C.ar    1  UNL1       -0.0035
      5 C          -6.1595    5.6574   25.8896 C.ar    1  UNL1       -0.0003
      6 C          -4.7629    5.1245   26.0141 C.ar    1  UNL1       -0.0000
      7 C          -8.4310    5.7437   24.6315 C.2     1  UNL1       -0.0137
      8 C          -8.6556    7.1774   24.2523 C.2     1  UNL1        0.0001
      9 C         -10.0522    7.7103   24.1278 C.2     1  UNL1        0.0498
     10 C         -11.2242    6.8094   24.3824 C.2     1  UNL1        0.2318
     11 N         -12.7041    7.0505   24.3366 N.2     1  UNL1       -0.0334
     12 C         -13.3940    5.7657   24.6875 C.2     1  UNL1        0.3691
     13 N         -12.3406    4.7306   24.9501 N.2     1  UNL1       -0.0373
     14 C         -10.9996    5.3757   24.7615 C.2     1  UNL1        0.2175
     15 C          -9.6030    4.8428   24.8861 C.3     1  UNL1        0.1040
     16 C         -14.8770    5.5532   24.7626 C.3     1  UNL1        0.1878
     17 C         -15.7365    5.7564   25.9751 C.3     1  UNL1        0.0344
     18 C         -17.1516    5.4290   25.6002 C.3     1  UNL1        0.0221
     19 C         -18.3424    5.4954   26.5097 C.3     1  UNL1        0.0018
     20 C         -17.1666    5.0235   24.1561 C.3     1  UNL1        0.0940
     21 N         -15.7607    5.1003   23.6385 N.am    1  UNL1       -0.2691
     22 C         -15.3167    4.7803   22.2419 C.2     1  UNL1        0.2440
     23 O         -13.8693    4.9038   21.8682 O.2     1  UNL1       -0.2731
     24 C         -16.3203    4.3367   21.2189 C.3     1  UNL1        0.1512
     25 N         -16.4389    2.8838   20.8655 N.am    1  UNL1       -0.2640
     26 C         -15.6542    2.3252   19.7157 C.2     1  UNL1        0.4021
     27 O         -14.7508    3.2194   18.9193 O.2     1  UNL1       -0.2264
     28 H         -17.0318    2.2968   21.3882 H       1  UNL1        0.1532
     29 O         -15.7729    0.8722   19.3623 O.3     1  UNL1       -0.4306
     30 C         -16.5776    0.4543   18.1675 C.3     1  UNL1        0.2573
     31 C         -17.2050    5.3461   20.5495 C.3     1  UNL1        0.0270
     32 C         -18.4658    4.9036   19.8679 C.3     1  UNL1        0.0022
     33 C         -16.8290    6.7982   20.5615 C.3     1  UNL1        0.0022
     34 C          -0.0515    2.5459   25.3787 C.ar    1  UNL1        0.0192
     35 C          -0.5981    2.9094   24.0299 C.ar    1  UNL1        0.0015
     36 C          -1.9946    3.4423   23.9054 C.ar    1  UNL1        0.0000
     37 C          -2.8447    3.6118   25.1296 C.ar    1  UNL1        0.0000
     38 C          -2.2981    3.2484   26.4784 C.ar    1  UNL1        0.0000
     39 C          -0.9015    2.7154   26.6029 C.ar    1  UNL1        0.0015
     40 C           3.5825    1.2507   24.9523 C.ar    1  UNL1        0.1353
     41 N           2.3088    1.7934   24.3750 N.ar    1  UNL1       -0.2295
     42 C           1.3451    2.0129   25.5032 C.ar    1  UNL1        0.0996
     43 C           2.0231    1.6059   26.7778 C.ar    1  UNL1        0.0927
     44 N           3.4059    1.1349   26.4374 N.ar    1  UNL1       -0.3383
     45 H           4.0793    0.8072   27.0764 H       1  UNL1        0.1672
     46 C           4.9145   -1.7216   24.7518 C.2     1  UNL1        0.2439
     47 O           3.6788   -1.6627   25.6001 O.2     1  UNL1       -0.2731
     48 N           5.4284   -0.4786   24.0879 N.am    1  UNL1       -0.2730
     49 C           6.6448   -0.3836   23.2154 C.3     1  UNL1        0.0938
     50 C           6.7843    1.0414   22.7683 C.3     1  UNL1        0.0220
     51 C           7.8644    1.5853   21.8807 C.3     1  UNL1        0.0018
     52 C           5.6541    1.8271   23.3645 C.3     1  UNL1        0.0293
     53 C           4.8161    0.8876   24.1801 C.3     1  UNL1        0.1319
     54 C           5.6363   -3.0236   24.5674 C.3     1  UNL1        0.1512
     55 C           7.5216   -3.3299   26.3285 C.2     1  UNL1        0.4021
     56 O           8.2828   -2.1944   25.7111 O.2     1  UNL1       -0.2264
     57 N           6.1984   -3.7445   25.7567 N.am    1  UNL1       -0.2640
     58 H           5.6988   -4.4898   26.1619 H       1  UNL1        0.1532
     59 C           7.2304   -4.2755   28.7308 C.3     1  UNL1        0.2573
     60 O           8.0837   -4.0508   27.5178 O.3     1  UNL1       -0.4306
     61 C           5.7961   -3.6046   23.1938 C.3     1  UNL1        0.0270
     62 C           4.6234   -3.6555   22.2599 C.3     1  UNL1        0.0022
     63 C           7.1286   -4.1348   22.7540 C.3     1  UNL1        0.0022
@<TRIPOS>BOND
     1    59    60    1
     2    60    55    1
     3    55    56    2
     4    55    57   am
     5    54    57    1
     6    54    46    1
     7    46    47    2
     8    46    48   am
     9    48    49    1
    10    49    50    1
    11    50    51    1
    12    50    52    1
    13    52    53    1
    14    53    40    1
    15    40    41   ar
    16    41    42   ar
    17    42    34    1
    18    34    35   ar
    19    35    36   ar
    20    36    37   ar
    21    37     1    1
    22     1     2   ar
    23     2     3   ar
    24     3     4   ar
    25     4     7    1
    26     7     8    2
    27     8     9    1
    28     9    10    2
    29    10    11    1
    30    11    12    2
    31    16    12    1
    32    16    17    1
    33    17    18    1
    34    18    19    1
    35    18    20    1
    36    20    21    1
    37    21    22   am
    38    22    23    2
    39    22    24    1
    40    24    25    1
    41    25    26   am
    42    26    27    2
    43    26    29    1
    44    29    30    1
    45    24    31    1
    46    31    32    1
    47    31    33    1
    48    12    13    1
    49    13    14    2
    50    14    15    1
    51     4     5   ar
    52     5     6   ar
    53    37    38   ar
    54    38    39   ar
    55    42    43   ar
    56    43    44   ar
    57    54    61    1
    58    61    62    1
    59    61    63    1
    60    53    48    1
    61    44    40   ar
    62    39    34   ar
    63     6     1   ar
    64    15     7    1
    65    14    10    1
    66    21    16    1
    67    57    58    1
    68    25    28    1
    69    44    45    1
@<TRIPOS>MOLECULE
*****
 63 69 0 0 0
SMALL
GASTEIGER

@<TRIPOS>ATOM
      1 C          -4.5726    4.2640   24.6329 C.ar    1  UNL1       -0.0000
      2 C          -5.5159    3.8920   23.5274 C.ar    1  UNL1       -0.0000
      3 C          -6.9310    4.3888   23.5500 C.ar    1  UNL1       -0.0003
      4 C          -7.4030    5.2576   24.6780 C.ar    1  UNL1       -0.0035
      5 C          -6.4598    5.6295   25.7835 C.ar    1  UNL1       -0.0003
      6 C          -5.0446    5.1327   25.7609 C.ar    1  UNL1       -0.0000
      7 C          -8.8182    5.7544   24.7006 C.2     1  UNL1       -0.0137
      8 C          -9.0982    7.2113   24.9220 C.2     1  UNL1        0.0001
      9 C         -10.5133    7.7080   24.9446 C.2     1  UNL1        0.0498
     10 C         -11.6485    6.7479   24.7457 C.2     1  UNL1        0.2318
     11 N         -13.1355    6.9437   24.7174 N.2     1  UNL1       -0.0334
     12 C         -13.7744    5.6078   24.4784 C.2     1  UNL1        0.3691
     13 N         -12.6824    4.5864   24.3591 N.2     1  UNL1       -0.0373
     14 C         -11.3685    5.2910   24.5243 C.2     1  UNL1        0.2175
     15 C          -9.9534    4.7942   24.5018 C.3     1  UNL1        0.1040
     16 C         -15.2469    5.3402   24.3767 C.3     1  UNL1        0.1878
     17 C         -16.2361    5.4134   25.5019 C.3     1  UNL1        0.0344
     18 C         -17.5892    5.0709   24.9524 C.3     1  UNL1        0.0221
     19 C         -18.8703    5.0218   25.7309 C.3     1  UNL1        0.0018
     20 C         -17.4362    4.7861   23.4877 C.3     1  UNL1        0.0940
     21 N         -15.9884    4.9525   23.1319 N.am    1  UNL1       -0.2691
     22 C         -15.3879    4.7643   21.7703 C.2     1  UNL1        0.2440
     23 O         -13.9158    4.9668   21.5653 O.2     1  UNL1       -0.2731
     24 C         -16.2595    4.3736   20.6136 C.3     1  UNL1        0.1512
     25 N         -16.5332    2.9251   20.3365 N.am    1  UNL1       -0.2640
     26 C         -15.6023    2.1401   19.4607 C.2     1  UNL1        0.4021
     27 O         -14.3977    2.8036   18.8618 O.2     1  UNL1       -0.2264
     28 H         -17.3239    2.4895   20.7296 H       1  UNL1        0.1532
     29 O         -15.8761    0.6915   19.1836 O.3     1  UNL1       -0.4306
     30 C         -16.3497   -0.2067   20.2876 C.3     1  UNL1        0.2573
     31 C         -16.8572    5.4315   19.7341 C.3     1  UNL1        0.0270
     32 C         -18.3473    5.5452   19.6044 C.3     1  UNL1        0.0022
     33 C         -15.9649    6.3757   18.9842 C.3     1  UNL1        0.0022
     34 C          -0.3272    2.7735   24.5651 C.ar    1  UNL1        0.0192
     35 C          -0.9948    3.1944   23.2894 C.ar    1  UNL1        0.0015
     36 C          -2.4100    3.6912   23.3120 C.ar    1  UNL1        0.0000
     37 C          -3.1575    3.7672   24.6102 C.ar    1  UNL1        0.0000
     38 C          -2.4900    3.3464   25.8859 C.ar    1  UNL1        0.0000
     39 C          -1.0748    2.8495   25.8633 C.ar    1  UNL1        0.0015
     40 C           3.0170    0.8059   24.4651 C.ar    1  UNL1        0.1353
     41 N           1.5174    0.8419   24.4603 N.ar    1  UNL1       -0.2295
     42 C           1.0879    2.2767   24.5425 C.ar    1  UNL1        0.0996
     43 C           2.3221    3.1275   24.5980 C.ar    1  UNL1        0.0927
     44 N           3.5143    2.2185   24.5502 N.ar    1  UNL1       -0.3383
     45 H           4.4576    2.4997   24.5711 H       1  UNL1        0.1672
     46 C           5.3397   -0.0401   26.5954 C.2     1  UNL1        0.2439
     47 O           4.6514    1.2514   26.9242 O.2     1  UNL1       -0.2731
     48 N           4.9372   -0.8152   25.3759 N.am    1  UNL1       -0.2730
     49 C           5.5317   -2.1153   24.9216 C.3     1  UNL1        0.0938
     50 C           4.8314   -2.5299   23.6616 C.3     1  UNL1        0.0220
     51 C           5.1095   -3.7706   22.8657 C.3     1  UNL1        0.0018
     52 C           3.8041   -1.4861   23.3372 C.3     1  UNL1        0.0293
     53 C           3.8695   -0.4264   24.3967 C.3     1  UNL1        0.1319
     54 C           6.4307   -0.5565   27.4861 C.3     1  UNL1        0.1512
     55 C           6.2022   -0.5587   30.0741 C.2     1  UNL1        0.4021
     56 O           6.6659    0.8672   30.1161 O.2     1  UNL1       -0.2264
     57 N           6.0846   -1.2706   28.7591 N.am    1  UNL1       -0.2640
     58 H           5.7803   -2.2064   28.7315 H       1  UNL1        0.1532
     59 C           5.9036   -2.7709   31.4034 C.3     1  UNL1        0.2573
     60 O           5.8561   -1.2727   31.3470 O.3     1  UNL1       -0.4306
     61 C           7.8676   -0.3589   27.1038 C.3     1  UNL1        0.0270
     62 C           8.3238    0.9617   26.5583 C.3     1  UNL1        0.0022
     63 C           8.8484   -1.4820   27.2671 C.3     1  UNL1        0.0022
@<TRIPOS>BOND
     1    59    60    1
     2    60    55    1
     3    55    56    2
     4    55    57   am
     5    54    57    1
     6    54    46    1
     7    46    47    2
     8    46    48   am
     9    48    49    1
    10    49    50    1
    11    50    51    1
    12    50    52    1
    13    52    53    1
    14    53    40    1
    15    40    41   ar
    16    41    42   ar
    17    42    34    1
    18    34    35   ar
    19    35    36   ar
    20    36    37   ar
    21    37     1    1
    22     1     2   ar
    23     2     3   ar
    24     3     4   ar
    25     4     7    1
    26     7     8    2
    27     8     9    1
    28     9    10    2
    29    10    11    1
    30    11    12    2
    31    16    12    1
    32    16    17    1
    33    17    18    1
    34    18    19    1
    35    18    20    1
    36    20    21    1
    37    21    22   am
    38    22    23    2
    39    22    24    1
    40    24    25    1
    41    25    26   am
    42    26    27    2
    43    26    29    1
    44    29    30    1
    45    24    31    1
    46    31    32    1
    47    31    33    1
    48    12    13    1
    49    13    14    2
    50    14    15    1
    51     4     5   ar
    52     5     6   ar
    53    37    38   ar
    54    38    39   ar
    55    42    43   ar
    56    43    44   ar
    57    54    61    1
    58    61    62    1
    59    61    63    1
    60    53    48    1
    61    44    40   ar
    62    39    34   ar
    63     6     1   ar
    64    15     7    1
    65    14    10    1
    66    21    16    1
    67    57    58    1
    68    25    28    1
    69    44    45    1
