@<TRIPOS>MOLECULE
*****
 29 32 0 0 0
SMALL
GASTEIGER

@<TRIPOS>ATOM
      1 N          -8.7410  -15.9930   23.5963 N.3     1  UNL1       -0.3204
      2 C          -8.1749  -17.2112   22.9286 C.3     1  UNL1        0.0783
      3 C          -6.7393  -17.2294   22.4942 C.3     1  UNL1        0.1229
      4 N          -6.1731  -18.4474   21.8265 N.ar    1  UNL1       -0.3134
      5 C          -7.0426  -19.6473   21.5932 C.ar    1  UNL1        0.1207
      6 N          -6.2121  -20.6968   20.9160 N.ar    1  UNL1       -0.2294
      7 C          -4.8294  -20.1457   20.7307 C.ar    1  UNL1        0.1174
      8 C          -3.5892  -20.7302   20.1223 C.ar    1  UNL1        0.1193
      9 N          -2.3249  -19.9244   20.0766 N.ar    1  UNL1       -0.2382
     10 C          -2.3008  -18.5341   20.6393 C.ar    1  UNL1        0.1542
     11 C          -3.5410  -17.9497   21.2477 C.ar    1  UNL1        0.0418
     12 C          -4.8053  -18.7555   21.2934 C.ar    1  UNL1        0.0816
     13 C          -8.4783  -19.6290   22.0276 C.3     1  UNL1        0.0698
     14 C          -9.0444  -18.4110   22.6953 C.3     1  UNL1        0.0482
     15 H          -8.0161  -15.2796   23.6732 H       1  UNL1        0.1189
     16 H          -9.0750  -16.2402   24.5278 H       1  UNL1        0.1189
     17 C         -10.4800  -18.3928   23.1297 C.ar    1  UNL1        0.0091
     18 C         -11.5594  -18.0712   22.1390 C.ar    1  UNL1        0.0300
     19 C         -12.9950  -18.0530   22.5734 C.ar    1  UNL1        0.1672
     20 F         -14.0743  -17.7314   21.5827 F       1  UNL1       -0.2018
     21 C         -13.3512  -18.3563   23.9985 C.ar    1  UNL1        0.1696
     22 F         -14.7868  -18.3381   24.4329 F       1  UNL1       -0.2017
     23 C         -12.2718  -18.6779   24.9892 C.ar    1  UNL1        0.0612
     24 C         -10.8362  -18.6961   24.5548 C.ar    1  UNL1        0.1386
     25 F          -9.7568  -19.0176   25.5456 F       1  UNL1       -0.2044
     26 C          -1.0363  -17.7283   20.5936 C.3     1  UNL1        0.4349
     27 F           0.2280  -16.9226   20.5479 F       1  UNL1       -0.1644
     28 F          -1.6906  -16.6551   21.4121 F       1  UNL1       -0.1644
     29 F          -0.3820  -18.8016   19.7751 F       1  UNL1       -0.1644
@<TRIPOS>BOND
     1     2     1    1
     2     2     3    1
     3     3     4    1
     4     4     5   ar
     5     5     6   ar
     6     6     7   ar
     7     7     8   ar
     8     8     9   ar
     9     9    10   ar
    10    10    26    1
    11    26    27    1
    12    26    28    1
    13    26    29    1
    14    10    11   ar
    15    11    12   ar
    16     5    13    1
    17    13    14    1
    18    14    17    1
    19    17    18   ar
    20    18    19   ar
    21    19    20    1
    22    19    21   ar
    23    21    22    1
    24    21    23   ar
    25    23    24   ar
    26    24    25    1
    27    14     2    1
    28    24    17   ar
    29    12     4   ar
    30    12     7   ar
    31     1    15    1
    32     1    16    1
@<TRIPOS>MOLECULE
*****
 29 32 0 0 0
SMALL
GASTEIGER

@<TRIPOS>ATOM
      1 N          -9.0271  -15.9172   23.6314 N.3     1  UNL1       -0.3204
      2 C          -8.4977  -17.1210   22.9097 C.3     1  UNL1        0.0783
      3 C          -7.0492  -17.1885   22.5259 C.3     1  UNL1        0.1229
      4 N          -6.5198  -18.3922   21.8043 N.ar    1  UNL1       -0.3134
      5 C          -7.4389  -19.5284   21.4664 C.ar    1  UNL1        0.1207
      6 N          -6.6369  -20.5775   20.7550 N.ar    1  UNL1       -0.2294
      7 C          -5.2221  -20.0897   20.6532 C.ar    1  UNL1        0.1174
      8 C          -3.9904  -20.7008   20.0538 C.ar    1  UNL1        0.1193
      9 N          -2.6863  -19.9613   20.1029 N.ar    1  UNL1       -0.2382
     10 C          -2.6139  -18.6107   20.7514 C.ar    1  UNL1        0.1542
     11 C          -3.8456  -17.9995   21.3508 C.ar    1  UNL1        0.0418
     12 C          -5.1497  -18.7390   21.3017 C.ar    1  UNL1        0.0816
     13 C          -8.8875  -19.4609   21.8502 C.3     1  UNL1        0.0698
     14 C          -9.4168  -18.2572   22.5718 C.3     1  UNL1        0.0482
     15 H          -8.2707  -15.2488   23.7780 H       1  UNL1        0.1189
     16 H          -9.4086  -16.2021   24.5334 H       1  UNL1        0.1189
     17 C         -10.8654  -18.1897   22.9556 C.ar    1  UNL1        0.0091
     18 C         -11.3026  -18.6443   24.3165 C.ar    1  UNL1        0.0300
     19 C         -12.7511  -18.5768   24.7003 C.ar    1  UNL1        0.1672
     20 F         -13.1884  -19.0314   26.0612 F       1  UNL1       -0.2018
     21 C         -13.7623  -18.0548   23.7231 C.ar    1  UNL1        0.1696
     22 F         -15.2108  -17.9873   24.1069 F       1  UNL1       -0.2017
     23 C         -13.3250  -17.6002   22.3622 C.ar    1  UNL1        0.0612
     24 C         -11.8765  -17.6677   21.9784 C.ar    1  UNL1        0.1386
     25 F         -11.4392  -17.2131   20.6175 F       1  UNL1       -0.2044
     26 C          -1.3097  -17.8712   20.8005 C.3     1  UNL1        0.4349
     27 F          -0.0056  -17.1317   20.8496 F       1  UNL1       -0.1644
     28 F          -0.6513  -18.9815   20.0366 F       1  UNL1       -0.1644
     29 F          -1.9681  -16.7608   21.5644 F       1  UNL1       -0.1644
@<TRIPOS>BOND
     1     2     1    1
     2     2     3    1
     3     3     4    1
     4     4     5   ar
     5     5     6   ar
     6     6     7   ar
     7     7     8   ar
     8     8     9   ar
     9     9    10   ar
    10    10    26    1
    11    26    27    1
    12    26    28    1
    13    26    29    1
    14    10    11   ar
    15    11    12   ar
    16     5    13    1
    17    13    14    1
    18    14    17    1
    19    17    18   ar
    20    18    19   ar
    21    19    20    1
    22    19    21   ar
    23    21    22    1
    24    21    23   ar
    25    23    24   ar
    26    24    25    1
    27    14     2    1
    28    24    17   ar
    29    12     4   ar
    30    12     7   ar
    31     1    15    1
    32     1    16    1
@<TRIPOS>MOLECULE
*****
 29 32 0 0 0
SMALL
GASTEIGER

@<TRIPOS>ATOM
      1 N          -4.2638  -17.7314   23.6598 N.3     1  UNL1       -0.3204
      2 C          -5.2698  -18.0999   22.6098 C.3     1  UNL1        0.0783
      3 C          -6.7305  -18.1335   22.9496 C.3     1  UNL1        0.1229
      4 N          -7.7365  -18.5019   21.8997 N.ar    1  UNL1       -0.3134
      5 C          -7.2818  -18.8366   20.5101 C.ar    1  UNL1        0.1207
      6 N          -8.4957  -19.1608   19.6907 N.ar    1  UNL1       -0.2294
      7 C          -9.7006  -19.0264   20.5740 C.ar    1  UNL1        0.1174
      8 C         -11.1644  -19.2222   20.3115 C.ar    1  UNL1        0.1193
      9 N         -12.1589  -19.0108   21.4143 N.ar    1  UNL1       -0.2382
     10 C         -11.6897  -18.6035   22.7796 C.ar    1  UNL1        0.1542
     11 C         -10.2259  -18.4077   23.0420 C.ar    1  UNL1        0.0418
     12 C          -9.2314  -18.6191   21.9393 C.ar    1  UNL1        0.0816
     13 C          -5.8212  -18.8030   20.1703 C.3     1  UNL1        0.0698
     14 C          -4.8152  -18.4346   21.2202 C.3     1  UNL1        0.0482
     15 H          -4.7448  -17.5365   24.5379 H       1  UNL1        0.1189
     16 H          -3.7499  -16.9022   23.3622 H       1  UNL1        0.1189
     17 C          -3.3545  -18.4010   20.8804 C.ar    1  UNL1        0.0091
     18 C          -2.6043  -17.1029   20.9230 C.ar    1  UNL1        0.0300
     19 C          -1.1436  -17.0693   20.5833 C.ar    1  UNL1        0.1672
     20 F          -0.3934  -15.7711   20.6259 F       1  UNL1       -0.2018
     21 C          -0.4334  -18.3338   20.2008 C.ar    1  UNL1        0.1696
     22 F           1.0273  -18.3002   19.8610 F       1  UNL1       -0.2017
     23 C          -1.1836  -19.6320   20.1582 C.ar    1  UNL1        0.0612
     24 C          -2.6443  -19.6656   20.4979 C.ar    1  UNL1        0.1386
     25 F          -3.3945  -20.9637   20.4553 F       1  UNL1       -0.2044
     26 C         -12.6843  -18.3921   23.8824 C.3     1  UNL1        0.4349
     27 F         -13.6788  -18.1807   24.9851 F       1  UNL1       -0.1644
     28 F         -13.6727  -17.8579   22.8886 F       1  UNL1       -0.1644
     29 F         -11.6959  -18.9263   24.8761 F       1  UNL1       -0.1644
@<TRIPOS>BOND
     1     2     1    1
     2     2     3    1
     3     3     4    1
     4     4     5   ar
     5     5     6   ar
     6     6     7   ar
     7     7     8   ar
     8     8     9   ar
     9     9    10   ar
    10    10    26    1
    11    26    27    1
    12    26    28    1
    13    26    29    1
    14    10    11   ar
    15    11    12   ar
    16     5    13    1
    17    13    14    1
    18    14    17    1
    19    17    18   ar
    20    18    19   ar
    21    19    20    1
    22    19    21   ar
    23    21    22    1
    24    21    23   ar
    25    23    24   ar
    26    24    25    1
    27    14     2    1
    28    24    17   ar
    29    12     4   ar
    30    12     7   ar
    31     1    15    1
    32     1    16    1
@<TRIPOS>MOLECULE
*****
 29 32 0 0 0
SMALL
GASTEIGER

@<TRIPOS>ATOM
      1 N         -16.9233   -3.2348   20.3956 N.3     1  UNL1       -0.3204
      2 C         -15.6662   -2.8034   19.7001 C.3     1  UNL1        0.0783
      3 C         -14.5540   -3.7863   19.4830 C.3     1  UNL1        0.1229
      4 N         -13.2970   -3.3549   18.7875 N.ar    1  UNL1       -0.3134
      5 C         -13.1521   -1.9407   18.3090 C.ar    1  UNL1        0.1207
      6 N         -11.8064   -1.8065   17.6601 N.ar    1  UNL1       -0.2294
      7 C         -11.1196   -3.1378   17.7375 C.ar    1  UNL1        0.1174
      8 C          -9.7744   -3.6023   17.2635 C.ar    1  UNL1        0.1193
      9 N          -9.3505   -5.0237   17.4863 N.ar    1  UNL1       -0.2382
     10 C         -10.2717   -5.9807   18.1831 C.ar    1  UNL1        0.1542
     11 C         -11.6169   -5.5162   18.6571 C.ar    1  UNL1        0.0418
     12 C         -12.0408   -4.0948   18.4343 C.ar    1  UNL1        0.0816
     13 C         -14.2643   -0.9578   18.5261 C.3     1  UNL1        0.0698
     14 C         -15.5213   -1.3892   19.2216 C.3     1  UNL1        0.0482
     15 H         -16.8501   -4.2199   20.6500 H       1  UNL1        0.1189
     16 H         -17.7194   -3.1030   19.7718 H       1  UNL1        0.1189
     17 C         -16.6334   -0.4063   19.4386 C.ar    1  UNL1        0.0091
     18 C         -16.7461    0.3225   20.7449 C.ar    1  UNL1        0.0300
     19 C         -17.8582    1.3053   20.9619 C.ar    1  UNL1        0.1672
     20 F         -17.9708    2.0341   22.2681 F       1  UNL1       -0.2018
     21 C         -18.8577    1.5594   19.8727 C.ar    1  UNL1        0.1696
     22 F         -19.9699    2.5423   20.0898 F       1  UNL1       -0.2017
     23 C         -18.7451    0.8307   18.5665 C.ar    1  UNL1        0.0612
     24 C         -17.6329   -0.1522   18.3495 C.ar    1  UNL1        0.1386
     25 F         -17.5203   -0.8810   17.0432 F       1  UNL1       -0.2044
     26 C          -9.8477   -7.4022   18.4059 C.3     1  UNL1        0.4349
     27 F          -9.4237   -8.8237   18.6287 F       1  UNL1       -0.1644
     28 F          -9.0808   -6.9825   19.6248 F       1  UNL1       -0.1644
     29 F         -10.6145   -7.8220   17.1871 F       1  UNL1       -0.1644
@<TRIPOS>BOND
     1     2     1    1
     2     2     3    1
     3     3     4    1
     4     4     5   ar
     5     5     6   ar
     6     6     7   ar
     7     7     8   ar
     8     8     9   ar
     9     9    10   ar
    10    10    26    1
    11    26    27    1
    12    26    28    1
    13    26    29    1
    14    10    11   ar
    15    11    12   ar
    16     5    13    1
    17    13    14    1
    18    14    17    1
    19    17    18   ar
    20    18    19   ar
    21    19    20    1
    22    19    21   ar
    23    21    22    1
    24    21    23   ar
    25    23    24   ar
    26    24    25    1
    27    14     2    1
    28    24    17   ar
    29    12     4   ar
    30    12     7   ar
    31     1    15    1
    32     1    16    1
@<TRIPOS>MOLECULE
*****
 29 32 0 0 0
SMALL
GASTEIGER

@<TRIPOS>ATOM
      1 N           5.1236   -1.2146   27.2660 N.3     1  UNL1       -0.3204
      2 C           5.3335   -2.0204   26.0182 C.3     1  UNL1        0.0783
      3 C           4.6037   -1.6569   24.7591 C.3     1  UNL1        0.1229
      4 N           4.8135   -2.4626   23.5114 N.ar    1  UNL1       -0.3134
      5 C           5.7532   -3.6317   23.5228 C.ar    1  UNL1        0.1207
      6 N           5.7581   -4.2358   22.1499 N.ar    1  UNL1       -0.2294
      7 C           4.8214   -3.4401   21.2899 C.ar    1  UNL1        0.1174
      8 C           4.4246   -3.5718   19.8494 C.ar    1  UNL1        0.1193
      9 N           3.4441   -2.6077   19.2504 N.ar    1  UNL1       -0.2382
     10 C           2.8603   -1.5117   20.0919 C.ar    1  UNL1        0.1542
     11 C           3.2571   -1.3800   21.5324 C.ar    1  UNL1        0.0418
     12 C           4.2376   -2.3442   22.1315 C.ar    1  UNL1        0.0816
     13 C           6.4831   -3.9952   24.7819 C.3     1  UNL1        0.0698
     14 C           6.2732   -3.1895   26.0296 C.3     1  UNL1        0.0482
     15 H           4.4580   -0.4647   27.0785 H       1  UNL1        0.1189
     16 H           6.0124   -0.8135   27.5652 H       1  UNL1        0.1189
     17 C           7.0030   -3.5529   27.2887 C.ar    1  UNL1        0.0091
     18 C           6.4174   -4.5633   28.2300 C.ar    1  UNL1        0.0300
     19 C           7.1472   -4.9268   29.4891 C.ar    1  UNL1        0.1672
     20 F           6.5616   -5.9372   30.4304 F       1  UNL1       -0.2018
     21 C           8.4626   -4.2798   29.8068 C.ar    1  UNL1        0.1696
     22 F           9.1925   -4.6432   31.0659 F       1  UNL1       -0.2017
     23 C           9.0482   -3.2693   28.8655 C.ar    1  UNL1        0.0612
     24 C           8.3184   -2.9059   27.6064 C.ar    1  UNL1        0.1386
     25 F           8.9040   -1.8955   26.6651 F       1  UNL1       -0.2044
     26 C           1.8797   -0.5475   19.4928 C.3     1  UNL1        0.4349
     27 F           0.8992    0.4166   18.8937 F       1  UNL1       -0.1644
     28 F           0.8608   -0.9462   20.5189 F       1  UNL1       -0.1644
     29 F           2.8987   -0.1489   18.4668 F       1  UNL1       -0.1644
@<TRIPOS>BOND
     1     2     1    1
     2     2     3    1
     3     3     4    1
     4     4     5   ar
     5     5     6   ar
     6     6     7   ar
     7     7     8   ar
     8     8     9   ar
     9     9    10   ar
    10    10    26    1
    11    26    27    1
    12    26    28    1
    13    26    29    1
    14    10    11   ar
    15    11    12   ar
    16     5    13    1
    17    13    14    1
    18    14    17    1
    19    17    18   ar
    20    18    19   ar
    21    19    20    1
    22    19    21   ar
    23    21    22    1
    24    21    23   ar
    25    23    24   ar
    26    24    25    1
    27    14     2    1
    28    24    17   ar
    29    12     4   ar
    30    12     7   ar
    31     1    15    1
    32     1    16    1
@<TRIPOS>MOLECULE
*****
 29 32 0 0 0
SMALL
GASTEIGER

@<TRIPOS>ATOM
      1 N           5.1795   -1.0517   24.0028 N.3     1  UNL1       -0.3204
      2 C           5.7074   -2.2826   24.6784 C.3     1  UNL1        0.0783
      3 C           5.8533   -2.3148   26.1710 C.3     1  UNL1        0.1229
      4 N           6.3812   -3.5455   26.8466 N.ar    1  UNL1       -0.3134
      5 C           6.7632   -4.7442   26.0297 C.ar    1  UNL1        0.1207
      6 N           7.2512   -5.8080   26.9678 N.ar    1  UNL1       -0.2294
      7 C           7.1708   -5.2669   28.3645 C.ar    1  UNL1        0.1174
      8 C           7.5177   -5.8668   29.6947 C.ar    1  UNL1        0.1193
      9 N           7.3270   -5.0684   30.9501 N.ar    1  UNL1       -0.2382
     10 C           6.7893   -3.6701   30.8753 C.ar    1  UNL1        0.1542
     11 C           6.4423   -3.0702   29.5450 C.ar    1  UNL1        0.0418
     12 C           6.6331   -3.8686   28.2896 C.ar    1  UNL1        0.0816
     13 C           6.6173   -4.7120   24.5371 C.3     1  UNL1        0.0698
     14 C           6.0894   -3.4812   23.8615 C.3     1  UNL1        0.0482
     15 H           4.9725   -0.3410   24.7045 H       1  UNL1        0.1189
     16 H           4.3277   -1.2832   23.4917 H       1  UNL1        0.1189
     17 C           5.9435   -3.4490   22.3689 C.ar    1  UNL1        0.0091
     18 C           4.6400   -3.8338   21.7343 C.ar    1  UNL1        0.0300
     19 C           4.4941   -3.8017   20.2417 C.ar    1  UNL1        0.1672
     20 F           3.1906   -4.1865   19.6071 F       1  UNL1       -0.2018
     21 C           5.6517   -3.3847   19.3839 C.ar    1  UNL1        0.1696
     22 F           5.5058   -3.3525   17.8913 F       1  UNL1       -0.2017
     23 C           6.9552   -2.9999   20.0185 C.ar    1  UNL1        0.0612
     24 C           7.1011   -3.0321   21.5111 C.ar    1  UNL1        0.1386
     25 F           8.4046   -2.6473   22.1457 F       1  UNL1       -0.2044
     26 C           6.5985   -2.8716   32.1308 C.3     1  UNL1        0.4349
     27 F           6.4078   -2.0733   33.3862 F       1  UNL1       -0.1644
     28 F           7.1516   -1.6586   31.4434 F       1  UNL1       -0.1644
     29 F           6.0454   -4.0847   32.8181 F       1  UNL1       -0.1644
@<TRIPOS>BOND
     1     2     1    1
     2     2     3    1
     3     3     4    1
     4     4     5   ar
     5     5     6   ar
     6     6     7   ar
     7     7     8   ar
     8     8     9   ar
     9     9    10   ar
    10    10    26    1
    11    26    27    1
    12    26    28    1
    13    26    29    1
    14    10    11   ar
    15    11    12   ar
    16     5    13    1
    17    13    14    1
    18    14    17    1
    19    17    18   ar
    20    18    19   ar
    21    19    20    1
    22    19    21   ar
    23    21    22    1
    24    21    23   ar
    25    23    24   ar
    26    24    25    1
    27    14     2    1
    28    24    17   ar
    29    12     4   ar
    30    12     7   ar
    31     1    15    1
    32     1    16    1
@<TRIPOS>MOLECULE
*****
 29 32 0 0 0
SMALL
GASTEIGER

@<TRIPOS>ATOM
      1 N           3.9148   -3.5975   19.4759 N.3     1  UNL1       -0.3204
      2 C           4.3674   -3.0987   20.8163 C.3     1  UNL1        0.0783
      3 C           5.2351   -3.9615   21.6838 C.3     1  UNL1        0.1229
      4 N           5.6876   -3.4628   23.0241 N.ar    1  UNL1       -0.3134
      5 C           5.2725   -2.1011   23.4969 C.ar    1  UNL1        0.1207
      6 N           5.8691   -1.8803   24.8552 N.ar    1  UNL1       -0.2294
      7 C           6.6531   -3.1055   25.2220 C.ar    1  UNL1        0.1174
      8 C           7.4545   -3.4568   26.4402 C.ar    1  UNL1        0.1193
      9 N           8.1438   -4.7862   26.5267 N.ar    1  UNL1       -0.2382
     10 C           8.0316   -5.7643   25.3949 C.ar    1  UNL1        0.1542
     11 C           7.2302   -5.4129   24.1767 C.ar    1  UNL1        0.0418
     12 C           6.5409   -4.0835   24.0902 C.ar    1  UNL1        0.0816
     13 C           4.4047   -1.2383   22.6294 C.3     1  UNL1        0.0698
     14 C           3.9522   -1.7370   21.2891 C.3     1  UNL1        0.0482
     15 H           4.2871   -4.5339   19.3182 H       1  UNL1        0.1189
     16 H           4.2540   -2.9696   18.7472 H       1  UNL1        0.1189
     17 C           3.0845   -0.8742   20.4216 C.ar    1  UNL1        0.0091
     18 C           1.6582   -0.6162   20.8079 C.ar    1  UNL1        0.0300
     19 C           0.7905    0.2467   19.9404 C.ar    1  UNL1        0.1672
     20 F          -0.6357    0.5046   20.3268 F       1  UNL1       -0.2018
     21 C           1.3491    0.8515   18.6867 C.ar    1  UNL1        0.1696
     22 F           0.4813    1.7144   17.8192 F       1  UNL1       -0.2017
     23 C           2.7753    0.5936   18.3003 C.ar    1  UNL1        0.0612
     24 C           3.6430   -0.2693   19.1678 C.ar    1  UNL1        0.1386
     25 F           5.0692   -0.5272   18.7815 F       1  UNL1       -0.2044
     26 C           8.7210   -7.0937   25.4815 C.3     1  UNL1        0.4349
     27 F           9.4103   -8.4231   25.5680 F       1  UNL1       -0.1644
     28 F           7.9803   -7.5572   24.2622 F       1  UNL1       -0.1644
     29 F           9.4617   -6.6303   26.7007 F       1  UNL1       -0.1644
@<TRIPOS>BOND
     1     2     1    1
     2     2     3    1
     3     3     4    1
     4     4     5   ar
     5     5     6   ar
     6     6     7   ar
     7     7     8   ar
     8     8     9   ar
     9     9    10   ar
    10    10    26    1
    11    26    27    1
    12    26    28    1
    13    26    29    1
    14    10    11   ar
    15    11    12   ar
    16     5    13    1
    17    13    14    1
    18    14    17    1
    19    17    18   ar
    20    18    19   ar
    21    19    20    1
    22    19    21   ar
    23    21    22    1
    24    21    23   ar
    25    23    24   ar
    26    24    25    1
    27    14     2    1
    28    24    17   ar
    29    12     4   ar
    30    12     7   ar
    31     1    15    1
    32     1    16    1
@<TRIPOS>MOLECULE
*****
 29 32 0 0 0
SMALL
GASTEIGER

@<TRIPOS>ATOM
      1 N           5.3578   -2.6120   26.1983 N.3     1  UNL1       -0.3204
      2 C           5.7346   -3.0409   24.8111 C.3     1  UNL1        0.0783
      3 C           5.0500   -2.4291   23.6249 C.3     1  UNL1        0.1229
      4 N           5.4267   -2.8578   22.2378 N.ar    1  UNL1       -0.3134
      5 C           6.4882   -3.8985   22.0368 C.ar    1  UNL1        0.1207
      6 N           6.6471   -4.1195   20.5618 N.ar    1  UNL1       -0.2294
      7 C           5.6839   -3.2155   19.8511 C.ar    1  UNL1        0.1174
      8 C           5.3962   -3.0017   18.3946 C.ar    1  UNL1        0.1193
      9 N           4.3542   -2.0081   17.9740 N.ar    1  UNL1       -0.2382
     10 C           3.6000   -1.2283   19.0099 C.ar    1  UNL1        0.1542
     11 C           3.8877   -1.4421   20.4664 C.ar    1  UNL1        0.0418
     12 C           4.9296   -2.4358   20.8870 C.ar    1  UNL1        0.0816
     13 C           7.1729   -4.5103   23.2230 C.3     1  UNL1        0.0698
     14 C           6.7961   -4.0815   24.6101 C.3     1  UNL1        0.0482
     15 H           4.6261   -1.9032   26.1480 H       1  UNL1        0.1189
     16 H           6.1757   -2.2237   26.6681 H       1  UNL1        0.1189
     17 C           7.4808   -4.6933   25.7962 C.ar    1  UNL1        0.0091
     18 C           7.2229   -6.1270   26.1540 C.ar    1  UNL1        0.0300
     19 C           7.9076   -6.7389   27.3402 C.ar    1  UNL1        0.1672
     20 F           7.6497   -8.1725   27.6979 F       1  UNL1       -0.2018
     21 C           8.8501   -5.9170   28.1685 C.ar    1  UNL1        0.1696
     22 F           9.5347   -6.5288   29.3546 F       1  UNL1       -0.2017
     23 C           9.1079   -4.4833   27.8107 C.ar    1  UNL1        0.0612
     24 C           8.4232   -3.8715   26.6245 C.ar    1  UNL1        0.1386
     25 F           8.6811   -2.4378   26.2668 F       1  UNL1       -0.2044
     26 C           2.5579   -0.2346   18.5892 C.3     1  UNL1        0.4349
     27 F           1.5160    0.7590   18.1686 F       1  UNL1       -0.1644
     28 F           3.4842    0.2893   17.5321 F       1  UNL1       -0.1644
     29 F           1.6317   -0.7585   19.6463 F       1  UNL1       -0.1644
@<TRIPOS>BOND
     1     2     1    1
     2     2     3    1
     3     3     4    1
     4     4     5   ar
     5     5     6   ar
     6     6     7   ar
     7     7     8   ar
     8     8     9   ar
     9     9    10   ar
    10    10    26    1
    11    26    27    1
    12    26    28    1
    13    26    29    1
    14    10    11   ar
    15    11    12   ar
    16     5    13    1
    17    13    14    1
    18    14    17    1
    19    17    18   ar
    20    18    19   ar
    21    19    20    1
    22    19    21   ar
    23    21    22    1
    24    21    23   ar
    25    23    24   ar
    26    24    25    1
    27    14     2    1
    28    24    17   ar
    29    12     4   ar
    30    12     7   ar
    31     1    15    1
    32     1    16    1
@<TRIPOS>MOLECULE
*****
 29 32 0 0 0
SMALL
GASTEIGER

@<TRIPOS>ATOM
      1 N           4.1279   -2.6947   32.6365 N.3     1  UNL1       -0.3204
      2 C           4.8541   -1.7234   33.5193 C.3     1  UNL1        0.0783
      3 C           4.1574   -1.1199   34.7028 C.3     1  UNL1        0.1229
      4 N           4.8836   -0.1486   35.5855 N.ar    1  UNL1       -0.3134
      5 C           6.3064    0.2192   35.2849 C.ar    1  UNL1        0.1207
      6 N           6.7622    1.1975   36.3265 N.ar    1  UNL1       -0.2294
      7 C           5.6212    1.4344   37.2710 C.ar    1  UNL1        0.1174
      8 C           5.4894    2.3001   38.4887 C.ar    1  UNL1        0.1193
      9 N           4.1966    2.3339   39.2486 N.ar    1  UNL1       -0.2382
     10 C           3.0355    1.5019   38.7906 C.ar    1  UNL1        0.1542
     11 C           3.1673    0.6362   37.5728 C.ar    1  UNL1        0.0418
     12 C           4.4601    0.6024   36.8130 C.ar    1  UNL1        0.0816
     13 C           7.0030   -0.3843   34.1014 C.3     1  UNL1        0.0698
     14 C           6.2769   -1.3556   33.2186 C.3     1  UNL1        0.0482
     15 H           3.1788   -2.8276   32.9858 H       1  UNL1        0.1189
     16 H           4.6191   -3.5886   32.6382 H       1  UNL1        0.1189
     17 C           6.9735   -1.9591   32.0352 C.ar    1  UNL1        0.0091
     18 C           7.8522   -3.1614   32.2149 C.ar    1  UNL1        0.0300
     19 C           8.5489   -3.7649   31.0315 C.ar    1  UNL1        0.1672
     20 F           9.4276   -4.9671   31.2112 F       1  UNL1       -0.2018
     21 C           8.3667   -3.1660   29.6684 C.ar    1  UNL1        0.1696
     22 F           9.0634   -3.7695   28.4849 F       1  UNL1       -0.2017
     23 C           7.4880   -1.9638   29.4887 C.ar    1  UNL1        0.0612
     24 C           6.7914   -1.3603   30.6721 C.ar    1  UNL1        0.1386
     25 F           5.9126   -0.1580   30.4924 F       1  UNL1       -0.2044
     26 C           1.7426    1.5358   39.5505 C.3     1  UNL1        0.4349
     27 F           0.4498    1.5695   40.3104 F       1  UNL1       -0.1644
     28 F           1.9177    3.0072   39.7830 F       1  UNL1       -0.1644
     29 F           1.5675    0.0643   39.3180 F       1  UNL1       -0.1644
@<TRIPOS>BOND
     1     2     1    1
     2     2     3    1
     3     3     4    1
     4     4     5   ar
     5     5     6   ar
     6     6     7   ar
     7     7     8   ar
     8     8     9   ar
     9     9    10   ar
    10    10    26    1
    11    26    27    1
    12    26    28    1
    13    26    29    1
    14    10    11   ar
    15    11    12   ar
    16     5    13    1
    17    13    14    1
    18    14    17    1
    19    17    18   ar
    20    18    19   ar
    21    19    20    1
    22    19    21   ar
    23    21    22    1
    24    21    23   ar
    25    23    24   ar
    26    24    25    1
    27    14     2    1
    28    24    17   ar
    29    12     4   ar
    30    12     7   ar
    31     1    15    1
    32     1    16    1
