@<TRIPOS>MOLECULE
*****
 30 33 0 0 0
SMALL
GASTEIGER

@<TRIPOS>ATOM
      1 S           6.2624   -3.3882   19.9703 S.O2    1  UNL1        0.0736
      2 O           7.1137   -2.1792   20.2227 O.2     1  UNL1       -0.1499
      3 O           5.4111   -4.5971   19.7180 O.2     1  UNL1       -0.1499
      4 C           6.7292   -3.9870   21.2641 C.ar    1  UNL1        0.1252
      5 C           7.9824   -4.8104   21.3004 C.ar    1  UNL1        0.0202
      6 C           8.4492   -5.4092   22.5940 C.ar    1  UNL1        0.0014
      7 C           7.6628   -5.1845   23.8514 C.ar    1  UNL1        0.0001
      8 C           6.4095   -4.3611   23.8151 C.ar    1  UNL1        0.0014
      9 C           5.9427   -3.7623   22.5214 C.ar    1  UNL1        0.0202
     10 C           8.1296   -5.7833   25.1451 C.ar    1  UNL1        0.0001
     11 C           8.6473   -4.8964   26.2384 C.ar    1  UNL1        0.0009
     12 C           9.1141   -5.4951   27.5320 C.ar    1  UNL1        0.0114
     13 C           9.0632   -6.9809   27.7324 C.ar    1  UNL1        0.0577
     14 CL          9.5300   -7.5797   29.0260 Cl      1  UNL1       -0.0822
     15 C           8.5455   -7.8678   26.6390 C.ar    1  UNL1        0.0114
     16 C           8.0787   -7.2689   25.3453 C.ar    1  UNL1        0.0009
     17 N           5.7956   -2.7895   18.6767 N.pl3   1  UNL1       -0.2150
     18 H           6.0637   -3.1960   17.8210 H       1  UNL1        0.1737
     19 C          -1.0447    2.4640   20.4817 C.3     1  UNL1        0.0897
     20 N           0.2099    1.7695   20.0417 N.3     1  UNL1       -0.2709
     21 C           1.1349    2.5793   19.1821 C.3     1  UNL1        0.0768
     22 C           2.4520    2.1766   18.5881 C.3     1  UNL1        0.0433
     23 C           3.1696    0.8647   18.7067 C.ar    1  UNL1       -0.0246
     24 C           4.4673    0.8799   17.9546 C.ar    1  UNL1       -0.0032
     25 C           5.3427   -0.3382   17.9446 C.ar    1  UNL1        0.0155
     26 C           4.9203   -1.5714   18.6867 C.ar    1  UNL1        0.0644
     27 C           3.6225   -1.5866   19.4388 C.ar    1  UNL1        0.0113
     28 C           2.7472   -0.3685   19.4488 C.ar    1  UNL1       -0.0234
     29 C           1.5029   -0.5944   20.2555 C.3     1  UNL1        0.0434
     30 C           0.3738    0.3570   20.5194 C.3     1  UNL1        0.0768
@<TRIPOS>BOND
     1    19    20    1
     2    20    21    1
     3    21    22    1
     4    22    23    1
     5    23    24   ar
     6    24    25   ar
     7    25    26   ar
     8    26    17    1
     9    17     1    1
    10     1     2    2
    11     1     3    2
    12     1     4    1
    13     4     5   ar
    14     5     6   ar
    15     6     7   ar
    16     7    10    1
    17    10    11   ar
    18    11    12   ar
    19    12    13   ar
    20    13    14    1
    21    13    15   ar
    22    15    16   ar
    23     7     8   ar
    24     8     9   ar
    25    26    27   ar
    26    27    28   ar
    27    28    29    1
    28    29    30    1
    29    30    20    1
    30    28    23   ar
    31     9     4   ar
    32    16    10   ar
    33    17    18    1
@<TRIPOS>MOLECULE
*****
 30 33 0 0 0
SMALL
GASTEIGER

@<TRIPOS>ATOM
      1 S           6.2435   -3.3401   19.9234 S.O2    1  UNL1        0.0736
      2 O           7.0551   -2.1142   20.2205 O.2     1  UNL1       -0.1499
      3 O           5.4319   -4.5660   19.6262 O.2     1  UNL1       -0.1499
      4 C           6.7033   -3.9567   21.2112 C.ar    1  UNL1        0.1252
      5 C           5.8984   -3.7672   22.4628 C.ar    1  UNL1        0.0202
      6 C           6.3581   -4.3838   23.7506 C.ar    1  UNL1        0.0014
      7 C           7.6227   -5.1899   23.7869 C.ar    1  UNL1        0.0001
      8 C           8.4275   -5.3793   22.5353 C.ar    1  UNL1        0.0014
      9 C           7.9677   -4.7627   21.2475 C.ar    1  UNL1        0.0202
     10 C           8.0823   -5.8064   25.0747 C.ar    1  UNL1        0.0001
     11 C           8.0638   -7.2970   25.2413 C.ar    1  UNL1        0.0009
     12 C           8.5234   -7.9136   26.5291 C.ar    1  UNL1        0.0114
     13 C           9.0017   -7.0395   27.6504 C.ar    1  UNL1        0.0577
     14 CL          9.4614   -7.6561   28.9382 Cl      1  UNL1       -0.0822
     15 C           9.0203   -5.5489   27.4839 C.ar    1  UNL1        0.0114
     16 C           8.5606   -4.9324   26.1960 C.ar    1  UNL1        0.0009
     17 N           5.7838   -2.7236   18.6356 N.pl3   1  UNL1       -0.2150
     18 H           6.0557   -3.1188   17.7759 H       1  UNL1        0.1737
     19 C          -1.0482    2.5209   20.4973 C.3     1  UNL1        0.0897
     20 N           0.2050    1.8290   20.0492 N.3     1  UNL1       -0.2709
     21 C           1.1295    2.6453   19.1953 C.3     1  UNL1        0.0768
     22 C           2.4452    2.2465   18.5956 C.3     1  UNL1        0.0433
     23 C           3.1616    0.9329   18.7017 C.ar    1  UNL1       -0.0246
     24 C           4.4581    0.9533   17.9476 C.ar    1  UNL1       -0.0032
     25 C           5.3322   -0.2655   17.9256 C.ar    1  UNL1        0.0155
     26 C           4.9097   -1.5048   18.6576 C.ar    1  UNL1        0.0644
     27 C           3.6131   -1.5251   19.4116 C.ar    1  UNL1        0.0113
     28 C           2.7391   -0.3063   19.4337 C.ar    1  UNL1       -0.0234
     29 C           1.4959   -0.5380   20.2404 C.3     1  UNL1        0.0434
     30 C           0.3682    0.4122   20.5143 C.3     1  UNL1        0.0768
@<TRIPOS>BOND
     1    19    20    1
     2    20    21    1
     3    21    22    1
     4    22    23    1
     5    23    24   ar
     6    24    25   ar
     7    25    26   ar
     8    26    17    1
     9    17     1    1
    10     1     2    2
    11     1     3    2
    12     1     4    1
    13     4     5   ar
    14     5     6   ar
    15     6     7   ar
    16     7    10    1
    17    10    11   ar
    18    11    12   ar
    19    12    13   ar
    20    13    14    1
    21    13    15   ar
    22    15    16   ar
    23     7     8   ar
    24     8     9   ar
    25    26    27   ar
    26    27    28   ar
    27    28    29    1
    28    29    30    1
    29    30    20    1
    30    28    23   ar
    31     9     4   ar
    32    16    10   ar
    33    17    18    1
@<TRIPOS>MOLECULE
*****
 30 33 0 0 0
SMALL
GASTEIGER

@<TRIPOS>ATOM
      1 S           7.3610   -3.6315   20.8301 S.O2    1  UNL1        0.0736
      2 O           8.3089   -2.5074   21.1265 O.2     1  UNL1       -0.1499
      3 O           6.4131   -4.7556   20.5337 O.2     1  UNL1       -0.1499
      4 C           6.3021   -2.6388   20.4514 C.ar    1  UNL1        0.1252
      5 C           4.8526   -3.0013   20.5836 C.ar    1  UNL1        0.0202
      6 C           3.7937   -2.0086   20.2049 C.ar    1  UNL1        0.0014
      7 C           4.1843   -0.6535   19.6940 C.ar    1  UNL1        0.0001
      8 C           5.6339   -0.2910   19.5618 C.ar    1  UNL1        0.0014
      9 C           6.6928   -1.2837   19.9405 C.ar    1  UNL1        0.0202
     10 C           3.1255    0.3392   19.3153 C.ar    1  UNL1        0.0001
     11 C           1.6759   -0.0221   19.4506 C.ar    1  UNL1        0.0009
     12 C           0.6171    0.9705   19.0719 C.ar    1  UNL1        0.0114
     13 C           1.0077    2.3245   18.5578 C.ar    1  UNL1        0.0577
     14 CL         -0.0511    3.3171   18.1792 Cl      1  UNL1       -0.0822
     15 C           2.4573    2.6858   18.4225 C.ar    1  UNL1        0.0114
     16 C           3.5162    1.6931   18.8013 C.ar    1  UNL1        0.0009
     17 N           8.4198   -4.6242   21.2088 N.pl3   1  UNL1       -0.2150
     18 H           9.1514   -4.8268   20.5820 H       1  UNL1        0.1737
     19 C           7.0993   -5.8250   29.8379 C.3     1  UNL1        0.0897
     20 N           7.3972   -5.8662   28.3683 N.3     1  UNL1       -0.2709
     21 C           7.8908   -7.1809   27.8409 C.3     1  UNL1        0.0768
     22 C           8.2712   -7.5413   26.4355 C.3     1  UNL1        0.0433
     23 C           8.2521   -6.6761   25.2102 C.ar    1  UNL1       -0.0246
     24 C           8.7123   -7.4315   23.9988 C.ar    1  UNL1       -0.0032
     25 C           8.7682   -6.7475   22.6649 C.ar    1  UNL1        0.0155
     26 C           8.3639   -5.3082   22.5426 C.ar    1  UNL1        0.0644
     27 C           7.9037   -4.5529   23.7541 C.ar    1  UNL1        0.0113
     28 C           7.8478   -5.2368   25.0879 C.ar    1  UNL1       -0.0234
     29 C           7.3628   -4.3073   26.1606 C.3     1  UNL1        0.0434
     30 C           7.1623   -4.5873   27.6204 C.3     1  UNL1        0.0768
@<TRIPOS>BOND
     1    19    20    1
     2    20    21    1
     3    21    22    1
     4    22    23    1
     5    23    24   ar
     6    24    25   ar
     7    25    26   ar
     8    26    17    1
     9    17     1    1
    10     1     2    2
    11     1     3    2
    12     1     4    1
    13     4     5   ar
    14     5     6   ar
    15     6     7   ar
    16     7    10    1
    17    10    11   ar
    18    11    12   ar
    19    12    13   ar
    20    13    14    1
    21    13    15   ar
    22    15    16   ar
    23     7     8   ar
    24     8     9   ar
    25    26    27   ar
    26    27    28   ar
    27    28    29    1
    28    29    30    1
    29    30    20    1
    30    28    23   ar
    31     9     4   ar
    32    16    10   ar
    33    17    18    1
@<TRIPOS>MOLECULE
*****
 30 33 0 0 0
SMALL
GASTEIGER

@<TRIPOS>ATOM
      1 S           7.4843   -4.9435   27.0786 S.O2    1  UNL1        0.0736
      2 O           6.3624   -5.9221   27.2618 O.2     1  UNL1       -0.1499
      3 O           8.6062   -3.9648   26.8955 O.2     1  UNL1       -0.1499
      4 C           7.1002   -4.2634   28.3593 C.ar    1  UNL1        0.1252
      5 C           6.6330   -2.8381   28.3408 C.ar    1  UNL1        0.0202
      6 C           6.2489   -2.1581   29.6214 C.ar    1  UNL1        0.0014
      7 C           6.3320   -2.9033   30.9206 C.ar    1  UNL1        0.0001
      8 C           6.7991   -4.3286   30.9391 C.ar    1  UNL1        0.0014
      9 C           7.1832   -5.0086   29.6584 C.ar    1  UNL1        0.0202
     10 C           5.9479   -2.2232   32.2012 C.ar    1  UNL1        0.0001
     11 C           4.6014   -2.4781   32.8111 C.ar    1  UNL1        0.0009
     12 C           4.2173   -1.7980   34.0917 C.ar    1  UNL1        0.0114
     13 C           5.1797   -0.8630   34.7624 C.ar    1  UNL1        0.0577
     14 CL          4.7956   -0.1830   36.0430 Cl      1  UNL1       -0.0822
     15 C           6.5262   -0.6082   34.1524 C.ar    1  UNL1        0.0114
     16 C           6.9102   -1.2883   32.8718 C.ar    1  UNL1        0.0009
     17 N           7.8684   -5.6235   25.7980 N.pl3   1  UNL1       -0.2150
     18 H           8.3699   -6.4703   25.8216 H       1  UNL1        0.1737
     19 C           3.3215   -1.0019   19.8304 C.3     1  UNL1        0.0897
     20 N           4.2550   -1.8402   20.6524 N.3     1  UNL1       -0.2709
     21 C           5.4322   -2.4125   19.9197 C.3     1  UNL1        0.0768
     22 C           6.5330   -3.2812   20.4520 C.3     1  UNL1        0.0433
     23 C           6.7285   -3.7924   21.8486 C.ar    1  UNL1       -0.0246
     24 C           7.9655   -4.6341   21.9559 C.ar    1  UNL1       -0.0032
     25 C           8.3455   -5.2445   23.2724 C.ar    1  UNL1        0.0155
     26 C           7.4885   -5.0131   24.4816 C.ar    1  UNL1        0.0644
     27 C           6.2515   -4.1714   24.3742 C.ar    1  UNL1        0.0113
     28 C           5.8716   -3.5611   23.0578 C.ar    1  UNL1       -0.0234
     29 C           4.6074   -2.7614   23.1689 C.3     1  UNL1        0.0434
     30 C           3.8880   -1.9956   22.0986 C.3     1  UNL1        0.0768
@<TRIPOS>BOND
     1    19    20    1
     2    20    21    1
     3    21    22    1
     4    22    23    1
     5    23    24   ar
     6    24    25   ar
     7    25    26   ar
     8    26    17    1
     9    17     1    1
    10     1     2    2
    11     1     3    2
    12     1     4    1
    13     4     5   ar
    14     5     6   ar
    15     6     7   ar
    16     7    10    1
    17    10    11   ar
    18    11    12   ar
    19    12    13   ar
    20    13    14    1
    21    13    15   ar
    22    15    16   ar
    23     7     8   ar
    24     8     9   ar
    25    26    27   ar
    26    27    28   ar
    27    28    29    1
    28    29    30    1
    29    30    20    1
    30    28    23   ar
    31     9     4   ar
    32    16    10   ar
    33    17    18    1
@<TRIPOS>MOLECULE
*****
 30 33 0 0 0
SMALL
GASTEIGER

@<TRIPOS>ATOM
      1 S           7.1049   -6.1346   28.5127 S.O2    1  UNL1        0.0736
      2 O           5.7238   -5.8767   27.9874 O.2     1  UNL1       -0.1499
      3 O           8.4861   -6.3924   29.0381 O.2     1  UNL1       -0.1499
      4 C           6.8870   -5.1115   29.5879 C.ar    1  UNL1        0.1252
      5 C           6.9954   -5.5055   31.0311 C.ar    1  UNL1        0.0202
      6 C           6.7775   -4.4825   32.1063 C.ar    1  UNL1        0.0014
      7 C           6.4513   -3.0654   31.7382 C.ar    1  UNL1        0.0001
      8 C           6.3429   -2.6713   30.2949 C.ar    1  UNL1        0.0014
      9 C           6.5608   -3.6944   29.2197 C.ar    1  UNL1        0.0202
     10 C           6.2334   -2.0423   32.8133 C.ar    1  UNL1        0.0001
     11 C           7.3521   -1.1281   33.2164 C.ar    1  UNL1        0.0009
     12 C           7.1343   -0.1051   34.2916 C.ar    1  UNL1        0.0114
     13 C           5.7976    0.0037   34.9636 C.ar    1  UNL1        0.0577
     14 CL          5.5797    1.0267   36.0387 Cl      1  UNL1       -0.0822
     15 C           4.6788   -0.9106   34.5604 C.ar    1  UNL1        0.0114
     16 C           4.8968   -1.9336   33.4852 C.ar    1  UNL1        0.0009
     17 N           7.3229   -7.1576   27.4377 N.pl3   1  UNL1       -0.2150
     18 H           7.2397   -8.1162   27.6462 H       1  UNL1        0.1737
     19 C           7.9811   -2.0229   20.3069 C.3     1  UNL1        0.0897
     20 N           7.9887   -3.0730   21.3780 N.3     1  UNL1       -0.2709
     21 C           8.6251   -4.3790   21.0046 C.3     1  UNL1        0.0768
     22 C           8.7889   -5.6127   21.8418 C.3     1  UNL1        0.0433
     23 C           8.3569   -5.8452   23.2593 C.ar    1  UNL1       -0.0246
     24 C           8.7148   -7.2265   23.7218 C.ar    1  UNL1       -0.0032
     25 C           8.3702   -7.6640   25.1146 C.ar    1  UNL1        0.0155
     26 C           7.6675   -6.7202   26.0449 C.ar    1  UNL1        0.0644
     27 C           7.3096   -5.3388   25.5824 C.ar    1  UNL1        0.0113
     28 C           7.6542   -4.9014   24.1897 C.ar    1  UNL1       -0.0234
     29 C           7.2102   -3.4919   23.9322 C.3     1  UNL1        0.0434
     30 C           7.3590   -2.6782   22.6810 C.3     1  UNL1        0.0768
@<TRIPOS>BOND
     1    19    20    1
     2    20    21    1
     3    21    22    1
     4    22    23    1
     5    23    24   ar
     6    24    25   ar
     7    25    26   ar
     8    26    17    1
     9    17     1    1
    10     1     2    2
    11     1     3    2
    12     1     4    1
    13     4     5   ar
    14     5     6   ar
    15     6     7   ar
    16     7    10    1
    17    10    11   ar
    18    11    12   ar
    19    12    13   ar
    20    13    14    1
    21    13    15   ar
    22    15    16   ar
    23     7     8   ar
    24     8     9   ar
    25    26    27   ar
    26    27    28   ar
    27    28    29    1
    28    29    30    1
    29    30    20    1
    30    28    23   ar
    31     9     4   ar
    32    16    10   ar
    33    17    18    1
@<TRIPOS>MOLECULE
*****
 30 33 0 0 0
SMALL
GASTEIGER

@<TRIPOS>ATOM
      1 S           7.9064   -4.9739   25.4470 S.O2    1  UNL1        0.0736
      2 O           9.0702   -4.0372   25.3131 O.2     1  UNL1       -0.1499
      3 O           6.7425   -5.9106   25.5810 O.2     1  UNL1       -0.1499
      4 C           7.3052   -4.4059   24.1956 C.ar    1  UNL1        0.1252
      5 C           8.0084   -4.5761   22.8816 C.ar    1  UNL1        0.0202
      6 C           7.4073   -4.0082   21.6302 C.ar    1  UNL1        0.0014
      7 C           6.1029   -3.2701   21.6927 C.ar    1  UNL1        0.0001
      8 C           5.3997   -3.0999   23.0067 C.ar    1  UNL1        0.0014
      9 C           6.0009   -3.6678   24.2581 C.ar    1  UNL1        0.0202
     10 C           5.5018   -2.7021   20.4413 C.ar    1  UNL1        0.0001
     11 C           6.3337   -2.5774   19.1993 C.ar    1  UNL1        0.0009
     12 C           5.7326   -2.0095   17.9479 C.ar    1  UNL1        0.0114
     13 C           4.2995   -1.5663   17.9384 C.ar    1  UNL1        0.0577
     14 CL          3.6984   -0.9984   16.6869 Cl      1  UNL1       -0.0822
     15 C           3.4677   -1.6910   19.1803 C.ar    1  UNL1        0.0114
     16 C           4.0688   -2.2589   20.4318 C.ar    1  UNL1        0.0009
     17 N           8.5075   -5.5419   26.6984 N.pl3   1  UNL1       -0.2150
     18 H           9.2537   -6.1814   26.6398 H       1  UNL1        0.1737
     19 C           4.4910   -0.7184   32.8829 C.3     1  UNL1        0.0897
     20 N           5.2169   -1.7071   32.0194 N.3     1  UNL1       -0.2709
     21 C           5.6991   -2.9466   32.7132 C.3     1  UNL1        0.0768
     22 C           6.4480   -4.1105   32.1353 C.3     1  UNL1        0.0433
     23 C           6.8999   -4.3226   30.7207 C.ar    1  UNL1       -0.0246
     24 C           7.6213   -5.6286   30.5659 C.ar    1  UNL1       -0.0032
     25 C           8.1572   -6.0350   29.2251 C.ar    1  UNL1        0.0155
     26 C           7.9716   -5.1355   28.0392 C.ar    1  UNL1        0.0644
     27 C           7.2501   -3.8295   28.1941 C.ar    1  UNL1        0.0113
     28 C           6.7143   -3.4231   29.5348 C.ar    1  UNL1       -0.0234
     29 C           6.0310   -2.0893   29.4706 C.3     1  UNL1        0.0434
     30 C           5.3647   -1.3256   30.5762 C.3     1  UNL1        0.0768
@<TRIPOS>BOND
     1    19    20    1
     2    20    21    1
     3    21    22    1
     4    22    23    1
     5    23    24   ar
     6    24    25   ar
     7    25    26   ar
     8    26    17    1
     9    17     1    1
    10     1     2    2
    11     1     3    2
    12     1     4    1
    13     4     5   ar
    14     5     6   ar
    15     6     7   ar
    16     7    10    1
    17    10    11   ar
    18    11    12   ar
    19    12    13   ar
    20    13    14    1
    21    13    15   ar
    22    15    16   ar
    23     7     8   ar
    24     8     9   ar
    25    26    27   ar
    26    27    28   ar
    27    28    29    1
    28    29    30    1
    29    30    20    1
    30    28    23   ar
    31     9     4   ar
    32    16    10   ar
    33    17    18    1
@<TRIPOS>MOLECULE
*****
 30 33 0 0 0
SMALL
GASTEIGER

@<TRIPOS>ATOM
      1 S           1.2536    2.4191   25.2523 S.O2    1  UNL1        0.0736
      2 O           0.7130    1.3457   26.1497 O.2     1  UNL1       -0.1499
      3 O           1.7942    3.4926   24.3549 O.2     1  UNL1       -0.1499
      4 C           1.7713    1.3719   24.3113 C.ar    1  UNL1        0.1252
      5 C           1.3423    1.3771   22.8740 C.ar    1  UNL1        0.0202
      6 C           1.8599    0.3300   21.9330 C.ar    1  UNL1        0.0014
      7 C           2.8065   -0.7226   22.4294 C.ar    1  UNL1        0.0001
      8 C           3.2354   -0.7278   23.8667 C.ar    1  UNL1        0.0014
      9 C           2.7178    0.3194   24.8077 C.ar    1  UNL1        0.0202
     10 C           3.3241   -1.7697   21.4884 C.ar    1  UNL1        0.0001
     11 C           2.9755   -1.7066   20.0308 C.ar    1  UNL1        0.0009
     12 C           3.4931   -2.7537   19.0898 C.ar    1  UNL1        0.0114
     13 C           4.3593   -3.8642   19.6064 C.ar    1  UNL1        0.0577
     14 CL          4.8769   -4.9114   18.6655 Cl      1  UNL1       -0.0822
     15 C           4.7078   -3.9273   21.0640 C.ar    1  UNL1        0.0114
     16 C           4.1902   -2.8801   22.0050 C.ar    1  UNL1        0.0009
     17 N           0.7360    3.4664   26.1932 N.pl3   1  UNL1       -0.2150
     18 H           1.3396    3.8754   26.8547 H       1  UNL1        0.1737
     19 C          -7.5054    4.3117   23.1915 C.3     1  UNL1        0.0897
     20 N          -6.1824    4.3123   23.8984 N.3     1  UNL1       -0.2709
     21 C          -6.1337    5.0777   25.1876 C.3     1  UNL1        0.0768
     22 C          -4.9737    5.2673   26.1193 C.3     1  UNL1        0.0433
     23 C          -3.5758    4.7384   25.9922 C.ar    1  UNL1       -0.0246
     24 C          -2.7216    5.1636   27.1496 C.ar    1  UNL1       -0.0032
     25 C          -1.2843    4.7396   27.2166 C.ar    1  UNL1        0.0155
     26 C          -0.7012    3.8904   26.1262 C.ar    1  UNL1        0.0644
     27 C          -1.5555    3.4652   24.9688 C.ar    1  UNL1        0.0113
     28 C          -2.9927    3.8892   24.9018 C.ar    1  UNL1       -0.0234
     29 C          -3.6636    3.3593   23.6693 C.3     1  UNL1        0.0434
     30 C          -5.0830    3.5475   23.2227 C.3     1  UNL1        0.0768
@<TRIPOS>BOND
     1    19    20    1
     2    20    21    1
     3    21    22    1
     4    22    23    1
     5    23    24   ar
     6    24    25   ar
     7    25    26   ar
     8    26    17    1
     9    17     1    1
    10     1     2    2
    11     1     3    2
    12     1     4    1
    13     4     5   ar
    14     5     6   ar
    15     6     7   ar
    16     7    10    1
    17    10    11   ar
    18    11    12   ar
    19    12    13   ar
    20    13    14    1
    21    13    15   ar
    22    15    16   ar
    23     7     8   ar
    24     8     9   ar
    25    26    27   ar
    26    27    28   ar
    27    28    29    1
    28    29    30    1
    29    30    20    1
    30    28    23   ar
    31     9     4   ar
    32    16    10   ar
    33    17    18    1
@<TRIPOS>MOLECULE
*****
 30 33 0 0 0
SMALL
GASTEIGER

@<TRIPOS>ATOM
      1 S           2.3713    1.0195   28.0544 S.O2    1  UNL1        0.0736
      2 O           3.6649    1.7745   27.9729 O.2     1  UNL1       -0.1499
      3 O           1.0778    0.2645   28.1358 O.2     1  UNL1       -0.1499
      4 C           2.6621    0.3783   26.7298 C.ar    1  UNL1        0.1252
      5 C           1.9872    0.8819   25.4885 C.ar    1  UNL1        0.0202
      6 C           2.2779    0.2408   24.1640 C.ar    1  UNL1        0.0014
      7 C           3.2437   -0.9040   24.0807 C.ar    1  UNL1        0.0001
      8 C           3.9186   -1.4076   25.3220 C.ar    1  UNL1        0.0014
      9 C           3.6278   -0.7664   26.6466 C.ar    1  UNL1        0.0202
     10 C           3.5344   -1.5451   22.7562 C.ar    1  UNL1        0.0001
     11 C           4.4108   -2.7605   22.6875 C.ar    1  UNL1        0.0009
     12 C           4.7015   -3.4016   21.3630 C.ar    1  UNL1        0.0114
     13 C           4.1159   -2.8273   20.1071 C.ar    1  UNL1        0.0577
     14 CL          4.4067   -3.4684   18.7825 Cl      1  UNL1       -0.0822
     15 C           3.2396   -1.6118   20.1757 C.ar    1  UNL1        0.0114
     16 C           2.9489   -0.9707   21.5004 C.ar    1  UNL1        0.0009
     17 N           2.0805    1.6606   29.3789 N.pl3   1  UNL1       -0.2150
     18 H           1.5063    2.4590   29.4238 H       1  UNL1        0.1737
     19 C           4.3692    0.9333   37.8570 C.3     1  UNL1        0.0897
     20 N           4.0930    0.8290   36.3864 N.3     1  UNL1       -0.2709
     21 C           4.5946   -0.4161   35.7166 C.3     1  UNL1        0.0768
     22 C           4.4788   -0.8140   34.2751 C.3     1  UNL1        0.0433
     23 C           3.8328   -0.0655   33.1471 C.ar    1  UNL1       -0.0246
     24 C           3.9385   -0.8217   31.8560 C.ar    1  UNL1       -0.0032
     25 C           3.3544   -0.2463   30.5999 C.ar    1  UNL1        0.0155
     26 C           2.6646    1.0852   30.6349 C.ar    1  UNL1        0.0644
     27 C           2.5589    1.8414   31.9261 C.ar    1  UNL1        0.0113
     28 C           3.1430    1.2661   33.1822 C.ar    1  UNL1       -0.0234
     29 C           2.9289    2.1778   34.3539 C.3     1  UNL1        0.0434
     30 C           3.3517    1.9834   35.7798 C.3     1  UNL1        0.0768
@<TRIPOS>BOND
     1    19    20    1
     2    20    21    1
     3    21    22    1
     4    22    23    1
     5    23    24   ar
     6    24    25   ar
     7    25    26   ar
     8    26    17    1
     9    17     1    1
    10     1     2    2
    11     1     3    2
    12     1     4    1
    13     4     5   ar
    14     5     6   ar
    15     6     7   ar
    16     7    10    1
    17    10    11   ar
    18    11    12   ar
    19    12    13   ar
    20    13    14    1
    21    13    15   ar
    22    15    16   ar
    23     7     8   ar
    24     8     9   ar
    25    26    27   ar
    26    27    28   ar
    27    28    29    1
    28    29    30    1
    29    30    20    1
    30    28    23   ar
    31     9     4   ar
    32    16    10   ar
    33    17    18    1
@<TRIPOS>MOLECULE
*****
 30 33 0 0 0
SMALL
GASTEIGER

@<TRIPOS>ATOM
      1 S           1.3046    2.1347   25.4476 S.O2    1  UNL1        0.0736
      2 O           1.8038    3.2849   24.6243 O.2     1  UNL1       -0.1499
      3 O           0.8054    0.9846   26.2710 O.2     1  UNL1       -0.1499
      4 C          -0.1032    2.6243   25.2780 C.ar    1  UNL1        0.1252
      5 C          -1.0052    2.7418   26.4707 C.ar    1  UNL1        0.0202
      6 C          -2.4128    3.2313   26.3012 C.ar    1  UNL1        0.0014
      7 C          -2.9186    3.6033   24.9388 C.ar    1  UNL1        0.0001
      8 C          -2.0166    3.4857   23.7461 C.ar    1  UNL1        0.0014
      9 C          -0.6089    2.9962   23.9157 C.ar    1  UNL1        0.0202
     10 C          -4.3263    4.0927   24.7693 C.ar    1  UNL1        0.0001
     11 C          -5.1047    3.7269   23.5403 C.ar    1  UNL1        0.0009
     12 C          -6.5123    4.2163   23.3708 C.ar    1  UNL1        0.0114
     13 C          -7.1417    5.0718   24.4302 C.ar    1  UNL1        0.0577
     14 CL         -8.5494    5.5612   24.2606 Cl      1  UNL1       -0.0822
     15 C          -6.3633    5.4376   25.6591 C.ar    1  UNL1        0.0114
     16 C          -4.9556    4.9481   25.8286 C.ar    1  UNL1        0.0009
     17 N           2.7122    1.6452   25.6173 N.pl3   1  UNL1       -0.2150
     18 H           3.3295    2.1204   26.2193 H       1  UNL1        0.1737
     19 C           3.9214   -4.0201   18.9774 C.3     1  UNL1        0.0897
     20 N           3.8537   -3.2219   20.2456 N.3     1  UNL1       -0.2709
     21 C           4.5606   -3.8165   21.4275 C.3     1  UNL1        0.0768
     22 C           4.6763   -3.2706   22.8197 C.3     1  UNL1        0.0433
     23 C           4.1139   -1.9953   23.3742 C.ar    1  UNL1       -0.0246
     24 C           4.4639   -1.8262   24.8229 C.ar    1  UNL1       -0.0032
     25 C           3.9966   -0.6127   25.5707 C.ar    1  UNL1        0.0155
     26 C           3.1795    0.4317   24.8696 C.ar    1  UNL1        0.0644
     27 C           2.8295    0.2626   23.4208 C.ar    1  UNL1        0.0113
     28 C           3.2968   -0.9509   22.6731 C.ar    1  UNL1       -0.0234
     29 C           2.8402   -0.9239   21.2445 C.3     1  UNL1        0.0434
     30 C           3.0881   -1.9345   20.1642 C.3     1  UNL1        0.0768
@<TRIPOS>BOND
     1    19    20    1
     2    20    21    1
     3    21    22    1
     4    22    23    1
     5    23    24   ar
     6    24    25   ar
     7    25    26   ar
     8    26    17    1
     9    17     1    1
    10     1     2    2
    11     1     3    2
    12     1     4    1
    13     4     5   ar
    14     5     6   ar
    15     6     7   ar
    16     7    10    1
    17    10    11   ar
    18    11    12   ar
    19    12    13   ar
    20    13    14    1
    21    13    15   ar
    22    15    16   ar
    23     7     8   ar
    24     8     9   ar
    25    26    27   ar
    26    27    28   ar
    27    28    29    1
    28    29    30    1
    29    30    20    1
    30    28    23   ar
    31     9     4   ar
    32    16    10   ar
    33    17    18    1
