@<TRIPOS>MOLECULE
*****
 40 45 0 0 0
SMALL
GASTEIGER

@<TRIPOS>ATOM
      1 N           3.6455    1.4599   35.5054 N.3     1  UNL1       -0.2676
      2 C           4.4643    0.5485   34.6401 C.3     1  UNL1        0.0746
      3 C           4.1310    0.3958   33.1856 C.3     1  UNL1        0.0449
      4 C           2.9790    1.1545   32.5964 C.3     1  UNL1        0.1391
      5 C           2.1601    2.0659   33.4617 C.3     1  UNL1        0.0449
      6 C           2.4934    2.2186   34.9162 C.3     1  UNL1        0.0746
      7 C           1.8625    1.8448   31.8704 C.2     1  UNL1        0.2529
      8 O           0.8832    2.8090   32.4715 O.2     1  UNL1       -0.2724
      9 N           1.8972    1.4015   30.4378 N.am    1  UNL1       -0.1907
     10 C           3.0351    0.4372   30.2783 C.2     1  UNL1        0.3219
     11 O           3.4344   -0.2531   29.0080 O.2     1  UNL1       -0.2512
     12 N           3.7037    0.2846   31.6124 N.am    1  UNL1       -0.2222
     13 C           4.8889   -0.5852   31.9103 C.ar    1  UNL1        0.1453
     14 C           4.6908   -2.0338   32.2457 C.ar    1  UNL1        0.0922
     15 C           5.8760   -2.9035   32.5435 C.ar    1  UNL1        0.2259
     16 O           5.6779   -4.3520   32.8789 O.3     1  UNL1       -0.4919
     17 N           7.2594   -2.3248   32.5060 N.ar    1  UNL1       -0.1894
     18 C           7.4575   -0.8762   32.1707 C.ar    1  UNL1        0.2027
     19 N           6.2723   -0.0065   31.8728 N.ar    1  UNL1       -0.2084
     20 H           4.8138   -4.7136   32.9024 H       1  UNL1        0.2938
     21 C           0.9588    1.8447   29.3548 C.ar    1  UNL1        0.0622
     22 C           0.0198    0.8584   28.7260 C.ar    1  UNL1        0.0150
     23 C          -0.9186    1.3015   27.6430 C.ar    1  UNL1       -0.0030
     24 C          -0.9181    2.7310   27.1888 C.ar    1  UNL1       -0.0224
     25 C           0.0209    3.7174   27.8175 C.ar    1  UNL1       -0.0030
     26 C           0.9593    3.2743   28.9005 C.ar    1  UNL1        0.0150
     27 C          -1.8565    3.1742   26.1058 C.3     1  UNL1        0.0223
     28 C          -1.4006    3.1861   24.6768 C.3     1  UNL1        0.0044
     29 C          -2.3391    3.6292   23.5938 C.3     1  UNL1        0.0003
     30 C          -3.7335    4.0606   23.9397 C.3     1  UNL1        0.0000
     31 C          -4.1894    4.0488   25.3687 C.3     1  UNL1        0.0003
     32 C          -3.2509    3.6055   26.4518 C.3     1  UNL1        0.0044
     33 C           3.9787    1.6127   36.9599 C.3     1  UNL1        0.1183
     34 C           2.8538    4.1847   38.0180 C.3     1  UNL1        0.0323
     35 C           2.3229    2.8730   38.5156 C.ar    1  UNL1       -0.0069
     36 C           1.2296    2.8472   39.5422 C.ar    1  UNL1       -0.0015
     37 C           0.6987    1.5355   40.0398 C.ar    1  UNL1        0.0203
     38 C           1.2612    0.2496   39.5108 C.ar    1  UNL1        0.0985
     39 N           2.3545    0.2753   38.4842 N.ar    1  UNL1       -0.2471
     40 C           2.8854    1.5870   37.9866 C.ar    1  UNL1        0.0712
@<TRIPOS>BOND
     1    34    35    1
     2    35    36   ar
     3    36    37   ar
     4    37    38   ar
     5    38    39   ar
     6    39    40   ar
     7    40    33    1
     8    33     1    1
     9     1     2    1
    10     2     3    1
    11     3     4    1
    12     4     5    1
    13     5     6    1
    14     4     7    1
    15     7     8    2
    16     7     9   am
    17     9    21    1
    18    21    22   ar
    19    22    23   ar
    20    23    24   ar
    21    24    27    1
    22    27    28    1
    23    28    29    1
    24    29    30    1
    25    30    31    1
    26    31    32    1
    27    24    25   ar
    28    25    26   ar
    29     9    10   am
    30    10    11    2
    31    10    12   am
    32    12    13    1
    33    13    14   ar
    34    14    15   ar
    35    15    16    1
    36    15    17   ar
    37    17    18   ar
    38    18    19   ar
    39    40    35   ar
    40     6     1    1
    41    26    21   ar
    42    19    13   ar
    43    12     4    1
    44    32    27    1
    45    16    20    1
@<TRIPOS>MOLECULE
*****
 40 45 0 0 0
SMALL
GASTEIGER

@<TRIPOS>ATOM
      1 N           4.4049    0.6380   35.4383 N.3     1  UNL1       -0.2676
      2 C           5.1555   -0.2560   34.4964 C.3     1  UNL1        0.0746
      3 C           4.7443   -0.3424   33.0564 C.3     1  UNL1        0.0449
      4 C           3.5826    0.4653   32.5584 C.3     1  UNL1        0.1391
      5 C           2.8320    1.3594   33.5003 C.3     1  UNL1        0.0449
      6 C           3.2432    1.4457   34.9402 C.3     1  UNL1        0.0746
      7 C           2.4478    1.2095   31.9193 C.2     1  UNL1        0.2529
      8 O           1.5248    2.1706   32.6080 O.2     1  UNL1       -0.2724
      9 N           2.3979    0.8237   30.4706 N.am    1  UNL1       -0.1907
     10 C           3.5020   -0.1588   30.2143 C.2     1  UNL1        0.3219
     11 O           3.8184   -0.8062   28.8987 O.2     1  UNL1       -0.2512
     12 N           4.2342   -0.3803   31.5046 N.am    1  UNL1       -0.2222
     13 C           5.4113   -1.2880   31.7059 C.ar    1  UNL1        0.1453
     14 C           5.1976   -2.7097   32.1338 C.ar    1  UNL1        0.0922
     15 C           6.3747   -3.6173   32.3351 C.ar    1  UNL1        0.2259
     16 O           6.1610   -5.0390   32.7630 O.3     1  UNL1       -0.4919
     17 N           7.7656   -3.1034   32.1084 N.ar    1  UNL1       -0.1894
     18 C           7.9793   -1.6817   31.6804 C.ar    1  UNL1        0.2027
     19 N           6.8021   -0.7741   31.4792 N.ar    1  UNL1       -0.2084
     20 H           5.2922   -5.3601   32.9046 H       1  UNL1        0.2938
     21 C           1.4164    1.3313   29.4562 C.ar    1  UNL1        0.0622
     22 C           0.3921    0.4032   28.8739 C.ar    1  UNL1        0.0150
     23 C          -0.5895    0.9109   27.8596 C.ar    1  UNL1       -0.0030
     24 C          -0.5467    2.3466   27.4276 C.ar    1  UNL1       -0.0224
     25 C           0.4776    3.2748   28.0100 C.ar    1  UNL1       -0.0030
     26 C           1.4592    2.7672   29.0243 C.ar    1  UNL1        0.0150
     27 C          -1.5283    2.8543   26.4133 C.3     1  UNL1        0.0223
     28 C          -1.1768    2.8365   24.9552 C.3     1  UNL1        0.0044
     29 C          -2.1583    3.3441   23.9409 C.3     1  UNL1        0.0003
     30 C          -3.4914    3.8696   24.3847 C.3     1  UNL1        0.0000
     31 C          -3.8429    3.8873   25.8428 C.3     1  UNL1        0.0003
     32 C          -2.8613    3.3796   26.8572 C.3     1  UNL1        0.0044
     33 C           4.8160    0.7244   36.8783 C.3     1  UNL1        0.1183
     34 C           2.3858    0.9609   38.6214 C.3     1  UNL1        0.0323
     35 C           3.3543    2.1024   38.5260 C.ar    1  UNL1       -0.0069
     36 C           3.1077    3.3621   39.3020 C.ar    1  UNL1       -0.0015
     37 C           4.0762    4.5035   39.2066 C.ar    1  UNL1        0.0203
     38 C           5.2913    4.3853   38.3351 C.ar    1  UNL1        0.0985
     39 N           5.5379    3.1255   37.5590 N.ar    1  UNL1       -0.2471
     40 C           4.5694    1.9841   37.6544 C.ar    1  UNL1        0.0712
@<TRIPOS>BOND
     1    34    35    1
     2    35    36   ar
     3    36    37   ar
     4    37    38   ar
     5    38    39   ar
     6    39    40   ar
     7    40    33    1
     8    33     1    1
     9     1     2    1
    10     2     3    1
    11     3     4    1
    12     4     5    1
    13     5     6    1
    14     4     7    1
    15     7     8    2
    16     7     9   am
    17     9    21    1
    18    21    22   ar
    19    22    23   ar
    20    23    24   ar
    21    24    27    1
    22    27    28    1
    23    28    29    1
    24    29    30    1
    25    30    31    1
    26    31    32    1
    27    24    25   ar
    28    25    26   ar
    29     9    10   am
    30    10    11    2
    31    10    12   am
    32    12    13    1
    33    13    14   ar
    34    14    15   ar
    35    15    16    1
    36    15    17   ar
    37    17    18   ar
    38    18    19   ar
    39    40    35   ar
    40     6     1    1
    41    26    21   ar
    42    19    13   ar
    43    12     4    1
    44    32    27    1
    45    16    20    1
@<TRIPOS>MOLECULE
*****
 40 45 0 0 0
SMALL
GASTEIGER

@<TRIPOS>ATOM
      1 N           2.7482    2.8124   35.0850 N.3     1  UNL1       -0.2676
      2 C           3.5480    1.7480   34.3942 C.3     1  UNL1        0.0746
      3 C           3.2606    1.4043   32.9627 C.3     1  UNL1        0.0449
      4 C           2.1734    2.1250   32.2220 C.3     1  UNL1        0.1391
      5 C           1.3736    3.1894   32.9128 C.3     1  UNL1        0.0449
      6 C           1.6610    3.5331   34.3443 C.3     1  UNL1        0.0746
      7 C           1.1231    2.7568   31.3573 C.2     1  UNL1        0.2529
      8 O           0.1758    3.8432   31.7723 O.2     1  UNL1       -0.2724
      9 N           1.1864    2.1113   30.0046 N.am    1  UNL1       -0.1907
     10 C           2.2759    1.0806   30.0335 C.2     1  UNL1        0.3219
     11 O           2.6838    0.1968   28.8923 O.2     1  UNL1       -0.2512
     12 N           2.8859    1.0891   31.4038 N.am    1  UNL1       -0.2222
     13 C           4.0108    0.2151   31.8736 C.ar    1  UNL1        0.1453
     14 C           3.7333   -1.1905   32.3179 C.ar    1  UNL1        0.0922
     15 C           4.8583   -2.0644   32.7877 C.ar    1  UNL1        0.2259
     16 O           4.5809   -3.4699   33.2320 O.3     1  UNL1       -0.4919
     17 N           6.2608   -1.5328   32.8132 N.ar    1  UNL1       -0.1894
     18 C           6.5382   -0.1272   32.3689 C.ar    1  UNL1        0.2027
     19 N           5.4132    0.7467   31.8991 N.ar    1  UNL1       -0.2084
     20 H           3.7048   -3.8020   33.2161 H       1  UNL1        0.2938
     21 C           0.3136    2.4391   28.8296 C.ar    1  UNL1        0.0622
     22 C           0.2205    3.8522   28.3355 C.ar    1  UNL1        0.0150
     23 C          -0.6524    4.1799   27.1605 C.ar    1  UNL1       -0.0030
     24 C          -1.4321    3.0945   26.4795 C.ar    1  UNL1       -0.0224
     25 C          -1.3390    1.6813   26.9736 C.ar    1  UNL1       -0.0030
     26 C          -0.4661    1.3535   28.1487 C.ar    1  UNL1        0.0150
     27 C          -2.3049    3.4222   25.3045 C.3     1  UNL1        0.0223
     28 C          -3.7842    3.5860   25.4916 C.3     1  UNL1        0.0044
     29 C          -4.6570    3.9137   24.3166 C.3     1  UNL1        0.0003
     30 C          -4.0506    4.0777   22.9544 C.3     1  UNL1        0.0000
     31 C          -2.5713    3.9139   22.7673 C.3     1  UNL1        0.0003
     32 C          -1.6985    3.5862   23.9424 C.3     1  UNL1        0.0044
     33 C           3.0355    3.1562   36.5166 C.3     1  UNL1        0.1183
     34 C           4.0179    0.5871   37.7144 C.3     1  UNL1        0.0323
     35 C           2.7497    1.2117   38.2158 C.ar    1  UNL1       -0.0069
     36 C           1.9727    0.5518   39.3161 C.ar    1  UNL1       -0.0015
     37 C           0.7044    1.1765   39.8176 C.ar    1  UNL1        0.0203
     38 C           0.2133    2.4610   39.2187 C.ar    1  UNL1        0.0985
     39 N           0.9903    3.1210   38.1183 N.ar    1  UNL1       -0.2471
     40 C           2.2585    2.4963   37.6169 C.ar    1  UNL1        0.0712
@<TRIPOS>BOND
     1    34    35    1
     2    35    36   ar
     3    36    37   ar
     4    37    38   ar
     5    38    39   ar
     6    39    40   ar
     7    40    33    1
     8    33     1    1
     9     1     2    1
    10     2     3    1
    11     3     4    1
    12     4     5    1
    13     5     6    1
    14     4     7    1
    15     7     8    2
    16     7     9   am
    17     9    21    1
    18    21    22   ar
    19    22    23   ar
    20    23    24   ar
    21    24    27    1
    22    27    28    1
    23    28    29    1
    24    29    30    1
    25    30    31    1
    26    31    32    1
    27    24    25   ar
    28    25    26   ar
    29     9    10   am
    30    10    11    2
    31    10    12   am
    32    12    13    1
    33    13    14   ar
    34    14    15   ar
    35    15    16    1
    36    15    17   ar
    37    17    18   ar
    38    18    19   ar
    39    40    35   ar
    40     6     1    1
    41    26    21   ar
    42    19    13   ar
    43    12     4    1
    44    32    27    1
    45    16    20    1
@<TRIPOS>MOLECULE
*****
 40 45 0 0 0
SMALL
GASTEIGER

@<TRIPOS>ATOM
      1 N           6.5449   -2.5992   23.9232 N.3     1  UNL1       -0.2676
      2 C           6.1256   -2.4999   22.4865 C.3     1  UNL1        0.0746
      3 C           4.9006   -1.7179   22.1151 C.3     1  UNL1        0.0449
      4 C           4.0950   -1.0353   23.1804 C.3     1  UNL1        0.1391
      5 C           4.5143   -1.1346   24.6172 C.3     1  UNL1        0.0449
      6 C           5.7393   -1.9165   24.9886 C.3     1  UNL1        0.0746
      7 C           3.1945   -0.3032   24.1308 C.2     1  UNL1        0.2529
      8 O           3.3610   -0.2245   25.6195 O.2     1  UNL1       -0.2724
      9 N           2.0984    0.3365   23.3311 N.am    1  UNL1       -0.1907
     10 C           2.3214   -0.0003   21.8865 C.2     1  UNL1        0.3219
     11 O           1.4615    0.4343   20.7370 O.2     1  UNL1       -0.2512
     12 N           3.5553   -0.8481   21.7934 N.am    1  UNL1       -0.2222
     13 C           4.1460   -1.4100   20.5343 C.ar    1  UNL1        0.1453
     14 C           3.7801   -2.7942   20.0869 C.ar    1  UNL1        0.0922
     15 C           4.3709   -3.3561   18.8278 C.ar    1  UNL1        0.2259
     16 O           4.0050   -4.7403   18.3804 O.3     1  UNL1       -0.4919
     17 N           5.3275   -2.5339   18.0161 N.ar    1  UNL1       -0.1894
     18 C           5.6934   -1.1497   18.4635 C.ar    1  UNL1        0.2027
     19 N           5.1027   -0.5878   19.7226 N.ar    1  UNL1       -0.2084
     20 H           3.4074   -5.2539   18.8874 H       1  UNL1        0.2938
     21 C           0.9763    1.1671   23.8798 C.ar    1  UNL1        0.0622
     22 C           0.4720    0.9214   25.2709 C.ar    1  UNL1        0.0150
     23 C          -0.6501    1.7520   25.8195 C.ar    1  UNL1       -0.0030
     24 C          -1.2679    2.8282   24.9770 C.ar    1  UNL1       -0.0224
     25 C          -0.7637    3.0739   23.5858 C.ar    1  UNL1       -0.0030
     26 C           0.3584    2.2433   23.0372 C.ar    1  UNL1        0.0150
     27 C          -2.3900    3.6588   25.5256 C.3     1  UNL1        0.0223
     28 C          -2.1367    4.6053   26.6614 C.3     1  UNL1        0.0044
     29 C          -3.2588    5.4359   27.2100 C.3     1  UNL1        0.0003
     30 C          -4.6343    5.3200   26.6228 C.3     1  UNL1        0.0000
     31 C          -4.8877    4.3735   25.4870 C.3     1  UNL1        0.0003
     32 C          -3.7655    3.5429   24.9384 C.3     1  UNL1        0.0044
     33 C           7.7699   -3.3812   24.2947 C.3     1  UNL1        0.1183
     34 C           8.8188   -5.6870   22.6875 C.3     1  UNL1        0.0323
     35 C           8.1609   -5.9342   24.0126 C.ar    1  UNL1       -0.0069
     36 C           8.0274   -7.3342   24.5342 C.ar    1  UNL1       -0.0015
     37 C           7.3695   -7.5814   25.8593 C.ar    1  UNL1        0.0203
     38 C           6.8451   -6.4285   26.6630 C.ar    1  UNL1        0.0985
     39 N           6.9785   -5.0284   26.1414 N.ar    1  UNL1       -0.2471
     40 C           7.6364   -4.7812   24.8162 C.ar    1  UNL1        0.0712
@<TRIPOS>BOND
     1    34    35    1
     2    35    36   ar
     3    36    37   ar
     4    37    38   ar
     5    38    39   ar
     6    39    40   ar
     7    40    33    1
     8    33     1    1
     9     1     2    1
    10     2     3    1
    11     3     4    1
    12     4     5    1
    13     5     6    1
    14     4     7    1
    15     7     8    2
    16     7     9   am
    17     9    21    1
    18    21    22   ar
    19    22    23   ar
    20    23    24   ar
    21    24    27    1
    22    27    28    1
    23    28    29    1
    24    29    30    1
    25    30    31    1
    26    31    32    1
    27    24    25   ar
    28    25    26   ar
    29     9    10   am
    30    10    11    2
    31    10    12   am
    32    12    13    1
    33    13    14   ar
    34    14    15   ar
    35    15    16    1
    36    15    17   ar
    37    17    18   ar
    38    18    19   ar
    39    40    35   ar
    40     6     1    1
    41    26    21   ar
    42    19    13   ar
    43    12     4    1
    44    32    27    1
    45    16    20    1
@<TRIPOS>MOLECULE
*****
 40 45 0 0 0
SMALL
GASTEIGER

@<TRIPOS>ATOM
      1 N           2.3315    0.0072   30.3510 N.3     1  UNL1       -0.2676
      2 C           3.6067   -0.6887   30.7244 C.3     1  UNL1        0.0746
      3 C           4.3108   -0.3307   31.9995 C.3     1  UNL1        0.0449
      4 C           3.7396    0.7231   32.9013 C.3     1  UNL1        0.1391
      5 C           2.4644    1.4190   32.5279 C.3     1  UNL1        0.0449
      6 C           1.7603    1.0610   31.2528 C.3     1  UNL1        0.0746
      7 C           3.2910    1.7508   33.8977 C.2     1  UNL1        0.2529
      8 O           2.0596    2.6009   33.7938 O.2     1  UNL1       -0.2724
      9 N           4.2902    1.7791   35.0162 N.am    1  UNL1       -0.1907
     10 C           5.3563    0.7689   34.7111 C.2     1  UNL1        0.3219
     11 O           6.5525    0.4647   35.5634 O.2     1  UNL1       -0.2512
     12 N           5.0160    0.1163   33.4041 N.am    1  UNL1       -0.2222
     13 C           5.8123   -0.9550   32.7198 C.ar    1  UNL1        0.1453
     14 C           5.5538   -2.3986   33.0350 C.ar    1  UNL1        0.0922
     15 C           6.3501   -3.4698   32.3507 C.ar    1  UNL1        0.2259
     16 O           6.0917   -4.9134   32.6658 O.3     1  UNL1       -0.4919
     17 N           7.4049   -3.0976   31.3512 N.ar    1  UNL1       -0.1894
     18 C           7.6634   -1.6541   31.0361 C.ar    1  UNL1        0.2027
     19 N           6.8671   -0.5828   31.7204 N.ar    1  UNL1       -0.2084
     20 H           5.4328   -5.1459   33.2901 H       1  UNL1        0.2938
     21 C           4.2332    2.6624   36.2272 C.ar    1  UNL1        0.0622
     22 C           4.2999    4.1528   36.0721 C.ar    1  UNL1        0.0150
     23 C           4.2429    5.0362   37.2830 C.ar    1  UNL1       -0.0030
     24 C           4.1193    4.4291   38.6491 C.ar    1  UNL1       -0.0224
     25 C           4.0526    2.9386   38.8042 C.ar    1  UNL1       -0.0030
     26 C           4.1095    2.0553   37.5932 C.ar    1  UNL1        0.0150
     27 C           4.0623    5.3125   39.8600 C.3     1  UNL1        0.0223
     28 C           4.0324    6.8036   39.6999 C.3     1  UNL1        0.0044
     29 C           3.9754    7.6870   40.9108 C.3     1  UNL1        0.0003
     30 C           3.9483    7.0792   42.2820 C.3     1  UNL1        0.0000
     31 C           3.9782    5.5881   42.4421 C.3     1  UNL1        0.0003
     32 C           4.0352    4.7047   41.2311 C.3     1  UNL1        0.0044
     33 C           1.6273   -0.3508   29.0758 C.3     1  UNL1        0.1183
     34 C          -1.3610   -0.3193   28.8127 C.3     1  UNL1        0.0323
     35 C          -0.5371    0.7333   28.1322 C.ar    1  UNL1       -0.0069
     36 C          -1.2073    1.8016   27.3201 C.ar    1  UNL1       -0.0015
     37 C          -0.3833    2.8543   26.6396 C.ar    1  UNL1        0.0203
     38 C           1.1108    2.8385   26.7711 C.ar    1  UNL1        0.0985
     39 N           1.7810    1.7702   27.5832 N.ar    1  UNL1       -0.2471
     40 C           0.9571    0.7175   28.2637 C.ar    1  UNL1        0.0712
@<TRIPOS>BOND
     1    34    35    1
     2    35    36   ar
     3    36    37   ar
     4    37    38   ar
     5    38    39   ar
     6    39    40   ar
     7    40    33    1
     8    33     1    1
     9     1     2    1
    10     2     3    1
    11     3     4    1
    12     4     5    1
    13     5     6    1
    14     4     7    1
    15     7     8    2
    16     7     9   am
    17     9    21    1
    18    21    22   ar
    19    22    23   ar
    20    23    24   ar
    21    24    27    1
    22    27    28    1
    23    28    29    1
    24    29    30    1
    25    30    31    1
    26    31    32    1
    27    24    25   ar
    28    25    26   ar
    29     9    10   am
    30    10    11    2
    31    10    12   am
    32    12    13    1
    33    13    14   ar
    34    14    15   ar
    35    15    16    1
    36    15    17   ar
    37    17    18   ar
    38    18    19   ar
    39    40    35   ar
    40     6     1    1
    41    26    21   ar
    42    19    13   ar
    43    12     4    1
    44    32    27    1
    45    16    20    1
@<TRIPOS>MOLECULE
*****
 40 45 0 0 0
SMALL
GASTEIGER

@<TRIPOS>ATOM
      1 N           6.4726   -2.1758   28.8512 N.3     1  UNL1       -0.2676
      2 C           6.0472   -1.8060   30.2412 C.3     1  UNL1        0.0746
      3 C           4.8008   -0.9992   30.4544 C.3     1  UNL1        0.0449
      4 C           3.9798   -0.5622   29.2775 C.3     1  UNL1        0.1391
      5 C           4.4052   -0.9320   27.8875 C.3     1  UNL1        0.0449
      6 C           5.6516   -1.7388   27.6744 C.3     1  UNL1        0.0746
      7 C           3.0624   -0.0565   28.2039 C.2     1  UNL1        0.2529
      8 O           3.2304   -0.2690   26.7285 O.2     1  UNL1       -0.2724
      9 N           1.9475    0.6989   28.8646 N.am    1  UNL1       -0.1907
     10 C           2.1759    0.6601   30.3467 C.2     1  UNL1        0.3219
     11 O           1.3018    1.2900   31.3902 O.2     1  UNL1       -0.2512
     12 N           3.4319   -0.1192   30.6019 N.am    1  UNL1       -0.2222
     13 C           4.0343   -0.4055   31.9454 C.ar    1  UNL1        0.1453
     14 C           4.9543    0.5930   32.5830 C.ar    1  UNL1        0.0922
     15 C           5.5567    0.3067   33.9266 C.ar    1  UNL1        0.2259
     16 O           6.4767    1.3052   34.5642 O.3     1  UNL1       -0.4919
     17 N           5.2391   -0.9781   34.6326 N.ar    1  UNL1       -0.1894
     18 C           4.3190   -1.9766   33.9950 C.ar    1  UNL1        0.2027
     19 N           3.7167   -1.6903   32.6514 N.ar    1  UNL1       -0.2084
     20 H           6.6751    2.1078   34.1232 H       1  UNL1        0.2938
     21 C           0.8049    1.3744   28.1660 C.ar    1  UNL1        0.0622
     22 C           1.0677    2.5183   27.2321 C.ar    1  UNL1        0.0150
     23 C          -0.0749    3.1939   26.5334 C.ar    1  UNL1       -0.0030
     24 C          -1.4803    2.7255   26.7687 C.ar    1  UNL1       -0.0224
     25 C          -1.7431    1.5815   27.7027 C.ar    1  UNL1       -0.0030
     26 C          -0.6005    0.9060   28.4013 C.ar    1  UNL1        0.0150
     27 C          -2.6229    3.4010   26.0701 C.3     1  UNL1        0.0223
     28 C          -2.5912    3.5802   24.5812 C.3     1  UNL1        0.0044
     29 C          -3.7338    4.2557   23.8825 C.3     1  UNL1        0.0003
     30 C          -4.9081    4.7522   24.6729 C.3     1  UNL1        0.0000
     31 C          -4.9398    4.5730   26.1618 C.3     1  UNL1        0.0003
     32 C          -3.7972    3.8974   26.8604 C.3     1  UNL1        0.0044
     33 C           7.7191   -2.9827   28.6380 C.3     1  UNL1        0.1183
     34 C           6.9419   -5.7149   29.6031 C.3     1  UNL1        0.0323
     35 C           7.3206   -5.5064   28.1667 C.ar    1  UNL1       -0.0069
     36 C           7.3106   -6.6640   27.2128 C.ar    1  UNL1       -0.0015
     37 C           7.6893   -6.4555   25.7765 C.ar    1  UNL1        0.0203
     38 C           8.0778   -5.0895   25.2939 C.ar    1  UNL1        0.0985
     39 N           8.0878   -3.9318   26.2478 N.ar    1  UNL1       -0.2471
     40 C           7.7091   -4.1403   27.6842 C.ar    1  UNL1        0.0712
@<TRIPOS>BOND
     1    34    35    1
     2    35    36   ar
     3    36    37   ar
     4    37    38   ar
     5    38    39   ar
     6    39    40   ar
     7    40    33    1
     8    33     1    1
     9     1     2    1
    10     2     3    1
    11     3     4    1
    12     4     5    1
    13     5     6    1
    14     4     7    1
    15     7     8    2
    16     7     9   am
    17     9    21    1
    18    21    22   ar
    19    22    23   ar
    20    23    24   ar
    21    24    27    1
    22    27    28    1
    23    28    29    1
    24    29    30    1
    25    30    31    1
    26    31    32    1
    27    24    25   ar
    28    25    26   ar
    29     9    10   am
    30    10    11    2
    31    10    12   am
    32    12    13    1
    33    13    14   ar
    34    14    15   ar
    35    15    16    1
    36    15    17   ar
    37    17    18   ar
    38    18    19   ar
    39    40    35   ar
    40     6     1    1
    41    26    21   ar
    42    19    13   ar
    43    12     4    1
    44    32    27    1
    45    16    20    1
@<TRIPOS>MOLECULE
*****
 40 45 0 0 0
SMALL
GASTEIGER

@<TRIPOS>ATOM
      1 N           6.3544   -2.5534   25.5114 N.3     1  UNL1       -0.2676
      2 C           6.0776   -2.5566   24.0372 C.3     1  UNL1        0.0746
      3 C           4.8977   -1.8064   23.4941 C.3     1  UNL1        0.0449
      4 C           3.9947   -1.0530   24.4252 C.3     1  UNL1        0.1391
      5 C           4.2716   -1.0498   25.8994 C.3     1  UNL1        0.0449
      6 C           5.4514   -1.8000   26.4425 C.3     1  UNL1        0.0746
      7 C           3.0087   -0.2586   25.2295 C.2     1  UNL1        0.2529
      8 O           3.0295   -0.0749   26.7180 O.2     1  UNL1       -0.2724
      9 N           1.9982    0.3200   24.2837 N.am    1  UNL1       -0.1907
     10 C           2.3597   -0.1169   22.8950 C.2     1  UNL1        0.3219
     11 O           1.6177    0.2333   21.6394 O.2     1  UNL1       -0.2512
     12 N           3.5936   -0.9654   22.9824 N.am    1  UNL1       -0.2222
     13 C           4.3020   -1.6127   21.8296 C.ar    1  UNL1        0.1453
     14 C           3.9369   -3.0063   21.4118 C.ar    1  UNL1        0.0922
     15 C           4.6454   -3.6535   20.2589 C.ar    1  UNL1        0.2259
     16 O           4.2803   -5.0471   19.8412 O.3     1  UNL1       -0.4919
     17 N           5.7190   -2.9072   19.5238 N.ar    1  UNL1       -0.1894
     18 C           6.0841   -1.5136   19.9416 C.ar    1  UNL1        0.2027
     19 N           5.3756   -0.8664   21.0945 N.ar    1  UNL1       -0.2084
     20 H           3.6096   -5.5133   20.3003 H       1  UNL1        0.2938
     21 C           0.8312    1.1837   24.6606 C.ar    1  UNL1        0.0622
     22 C           0.2054    1.0488   26.0170 C.ar    1  UNL1        0.0150
     23 C          -0.9616    1.9125   26.3939 C.ar    1  UNL1       -0.0030
     24 C          -1.5029    2.9111   25.4143 C.ar    1  UNL1       -0.0224
     25 C          -0.8771    3.0460   24.0577 C.ar    1  UNL1       -0.0030
     26 C           0.2899    2.1823   23.6809 C.ar    1  UNL1        0.0150
     27 C          -2.6699    3.7748   25.7911 C.3     1  UNL1        0.0223
     28 C          -3.9908    3.5924   25.1040 C.3     1  UNL1        0.0044
     29 C          -5.1578    4.4561   25.4809 C.3     1  UNL1        0.0003
     30 C          -5.0040    5.5023   26.5449 C.3     1  UNL1        0.0000
     31 C          -3.6831    5.6847   27.2320 C.3     1  UNL1        0.0003
     32 C          -2.5161    4.8209   26.8551 C.3     1  UNL1        0.0044
     33 C           7.5344   -3.3036   26.0546 C.3     1  UNL1        0.1183
     34 C           6.3298   -5.3791   27.8550 C.3     1  UNL1        0.0323
     35 C           7.1041   -5.7980   26.6405 C.ar    1  UNL1       -0.0069
     36 C           7.2762   -7.2545   26.3262 C.ar    1  UNL1       -0.0015
     37 C           8.0505   -7.6734   25.1117 C.ar    1  UNL1        0.0203
     38 C           8.6527   -6.6357   24.2115 C.ar    1  UNL1        0.0985
     39 N           8.4807   -5.1790   24.5258 N.ar    1  UNL1       -0.2471
     40 C           7.7064   -4.7602   25.7403 C.ar    1  UNL1        0.0712
@<TRIPOS>BOND
     1    34    35    1
     2    35    36   ar
     3    36    37   ar
     4    37    38   ar
     5    38    39   ar
     6    39    40   ar
     7    40    33    1
     8    33     1    1
     9     1     2    1
    10     2     3    1
    11     3     4    1
    12     4     5    1
    13     5     6    1
    14     4     7    1
    15     7     8    2
    16     7     9   am
    17     9    21    1
    18    21    22   ar
    19    22    23   ar
    20    23    24   ar
    21    24    27    1
    22    27    28    1
    23    28    29    1
    24    29    30    1
    25    30    31    1
    26    31    32    1
    27    24    25   ar
    28    25    26   ar
    29     9    10   am
    30    10    11    2
    31    10    12   am
    32    12    13    1
    33    13    14   ar
    34    14    15   ar
    35    15    16    1
    36    15    17   ar
    37    17    18   ar
    38    18    19   ar
    39    40    35   ar
    40     6     1    1
    41    26    21   ar
    42    19    13   ar
    43    12     4    1
    44    32    27    1
    45    16    20    1
@<TRIPOS>MOLECULE
*****
 40 45 0 0 0
SMALL
GASTEIGER

@<TRIPOS>ATOM
      1 N           6.5676   -2.2460   27.6638 N.3     1  UNL1       -0.2676
      2 C           6.2048   -2.0151   29.1008 C.3     1  UNL1        0.0746
      3 C           4.9714   -1.2349   29.4469 C.3     1  UNL1        0.0449
      4 C           4.1007   -0.6855   28.3560 C.3     1  UNL1        0.1391
      5 C           4.4635   -0.9163   26.9190 C.3     1  UNL1        0.0449
      6 C           5.6969   -1.6966   26.5729 C.3     1  UNL1        0.0746
      7 C           3.1385   -0.0781   27.3786 C.2     1  UNL1        0.2529
      8 O           3.2407   -0.1443   25.8836 O.2     1  UNL1       -0.2724
      9 N           2.0559    0.6072   28.1589 N.am    1  UNL1       -0.1907
     10 C           2.3492    0.4233   29.6184 C.2     1  UNL1        0.3219
     11 O           1.5237    0.9463   30.7563 O.2     1  UNL1       -0.2512
     12 N           3.6128   -0.3756   29.7403 N.am    1  UNL1       -0.2222
     13 C           4.2729   -0.7917   31.0213 C.ar    1  UNL1        0.1453
     14 C           3.7694   -1.9902   31.7697 C.ar    1  UNL1        0.0922
     15 C           4.4296   -2.4061   33.0508 C.ar    1  UNL1        0.2259
     16 O           3.9261   -3.6046   33.7992 O.3     1  UNL1       -0.4919
     17 N           5.5932   -1.6237   33.5836 N.ar    1  UNL1       -0.1894
     18 C           6.0967   -0.4252   32.8352 C.ar    1  UNL1        0.2027
     19 N           5.4365   -0.0092   31.5541 N.ar    1  UNL1       -0.2084
     20 H           3.1993   -4.0934   33.4665 H       1  UNL1        0.2938
     21 C           0.8857    1.3465   27.5810 C.ar    1  UNL1        0.0622
     22 C           1.1073    2.4126   26.5494 C.ar    1  UNL1        0.0150
     23 C          -0.0629    3.1519   25.9716 C.ar    1  UNL1       -0.0030
     24 C          -1.4548    2.8252   26.4253 C.ar    1  UNL1       -0.0224
     25 C          -1.6764    1.7590   27.4569 C.ar    1  UNL1       -0.0030
     26 C          -0.5062    1.0197   28.0348 C.ar    1  UNL1        0.0150
     27 C          -2.6250    3.5645   25.8474 C.3     1  UNL1        0.0223
     28 C          -3.7549    3.9924   26.7363 C.3     1  UNL1        0.0044
     29 C          -4.9252    4.7317   26.1585 C.3     1  UNL1        0.0003
     30 C          -4.9655    5.0432   24.6917 C.3     1  UNL1        0.0000
     31 C          -3.8355    4.6153   23.8028 C.3     1  UNL1        0.0003
     32 C          -2.6653    3.8759   24.3807 C.3     1  UNL1        0.0044
     33 C           7.8011   -3.0262   27.3176 C.3     1  UNL1        0.1183
     34 C           7.0312   -4.5491   24.8502 C.3     1  UNL1        0.0323
     35 C           7.3861   -5.2872   26.1069 C.ar    1  UNL1       -0.0069
     36 C           7.3561   -6.7867   26.1299 C.ar    1  UNL1       -0.0015
     37 C           7.7110   -7.5248   27.3865 C.ar    1  UNL1        0.0203
     38 C           8.0959   -6.7634   28.6202 C.ar    1  UNL1        0.0985
     39 N           8.1260   -5.2638   28.5973 N.ar    1  UNL1       -0.2471
     40 C           7.7710   -4.5257   27.3406 C.ar    1  UNL1        0.0712
@<TRIPOS>BOND
     1    34    35    1
     2    35    36   ar
     3    36    37   ar
     4    37    38   ar
     5    38    39   ar
     6    39    40   ar
     7    40    33    1
     8    33     1    1
     9     1     2    1
    10     2     3    1
    11     3     4    1
    12     4     5    1
    13     5     6    1
    14     4     7    1
    15     7     8    2
    16     7     9   am
    17     9    21    1
    18    21    22   ar
    19    22    23   ar
    20    23    24   ar
    21    24    27    1
    22    27    28    1
    23    28    29    1
    24    29    30    1
    25    30    31    1
    26    31    32    1
    27    24    25   ar
    28    25    26   ar
    29     9    10   am
    30    10    11    2
    31    10    12   am
    32    12    13    1
    33    13    14   ar
    34    14    15   ar
    35    15    16    1
    36    15    17   ar
    37    17    18   ar
    38    18    19   ar
    39    40    35   ar
    40     6     1    1
    41    26    21   ar
    42    19    13   ar
    43    12     4    1
    44    32    27    1
    45    16    20    1
@<TRIPOS>MOLECULE
*****
 40 45 0 0 0
SMALL
GASTEIGER

@<TRIPOS>ATOM
      1 N           3.9617   -1.1837   18.8559 N.3     1  UNL1       -0.2676
      2 C           4.5374    0.1997   18.7870 C.3     1  UNL1        0.0746
      3 C           3.7339    1.3712   19.2689 C.3     1  UNL1        0.0449
      4 C           2.3549    1.1592   19.8196 C.3     1  UNL1        0.1391
      5 C           1.7792   -0.2242   19.8884 C.3     1  UNL1        0.0449
      6 C           2.5827   -1.3956   19.4066 C.3     1  UNL1        0.0746
      7 C           0.9696    1.1026   20.3922 C.2     1  UNL1        0.2529
      8 O           0.1446   -0.1354   20.5835 O.2     1  UNL1       -0.2724
      9 N           0.5542    2.5014   20.7399 N.am    1  UNL1       -0.1907
     10 C           1.6828    3.4225   20.3822 C.2     1  UNL1        0.3219
     11 O           1.6962    4.9116   20.5617 O.2     1  UNL1       -0.2512
     12 N           2.7956    2.5930   19.8134 N.am    1  UNL1       -0.2222
     13 C           4.1172    3.1070   19.3243 C.ar    1  UNL1        0.1453
     14 C           4.2654    3.5622   17.9028 C.ar    1  UNL1        0.0922
     15 C           5.5870    4.0762   17.4138 C.ar    1  UNL1        0.2259
     16 O           5.7352    4.5314   15.9922 O.3     1  UNL1       -0.4919
     17 N           6.7605    4.1349   18.3463 N.ar    1  UNL1       -0.1894
     18 C           6.6123    3.6797   19.7678 C.ar    1  UNL1        0.2027
     19 N           5.2907    3.1658   20.2568 N.ar    1  UNL1       -0.2084
     20 H           5.0022    4.4947   15.4097 H       1  UNL1        0.2938
     21 C          -0.7591    2.9077   21.3400 C.ar    1  UNL1        0.0622
     22 C          -1.9889    2.9667   20.4832 C.ar    1  UNL1        0.0150
     23 C          -3.3022    3.3730   21.0833 C.ar    1  UNL1       -0.0030
     24 C          -3.3857    3.7204   22.5401 C.ar    1  UNL1       -0.0224
     25 C          -2.1559    3.6614   23.3969 C.ar    1  UNL1       -0.0030
     26 C          -0.8426    3.2551   22.7968 C.ar    1  UNL1        0.0150
     27 C          -4.6991    4.1267   23.1401 C.3     1  UNL1        0.0223
     28 C          -4.7627    4.5806   24.5684 C.3     1  UNL1        0.0044
     29 C          -6.0760    4.9869   25.1684 C.3     1  UNL1        0.0003
     30 C          -7.3258    4.9393   24.3402 C.3     1  UNL1        0.0000
     31 C          -7.2622    4.4854   22.9120 C.3     1  UNL1        0.0003
     32 C          -5.9488    4.0791   22.3119 C.3     1  UNL1        0.0044
     33 C           4.7652   -2.3552   18.3741 C.3     1  UNL1        0.1183
     34 C           4.9360   -3.9413   20.9147 C.3     1  UNL1        0.0323
     35 C           6.1881   -3.4429   20.2561 C.ar    1  UNL1       -0.0069
     36 C           7.5256   -3.7376   20.8678 C.ar    1  UNL1       -0.0015
     37 C           8.7777   -3.2391   20.2092 C.ar    1  UNL1        0.0203
     38 C           8.6924   -2.4461   18.9389 C.ar    1  UNL1        0.0985
     39 N           7.3548   -2.1514   18.3272 N.ar    1  UNL1       -0.2471
     40 C           6.1027   -2.6498   18.9858 C.ar    1  UNL1        0.0712
@<TRIPOS>BOND
     1    34    35    1
     2    35    36   ar
     3    36    37   ar
     4    37    38   ar
     5    38    39   ar
     6    39    40   ar
     7    40    33    1
     8    33     1    1
     9     1     2    1
    10     2     3    1
    11     3     4    1
    12     4     5    1
    13     5     6    1
    14     4     7    1
    15     7     8    2
    16     7     9   am
    17     9    21    1
    18    21    22   ar
    19    22    23   ar
    20    23    24   ar
    21    24    27    1
    22    27    28    1
    23    28    29    1
    24    29    30    1
    25    30    31    1
    26    31    32    1
    27    24    25   ar
    28    25    26   ar
    29     9    10   am
    30    10    11    2
    31    10    12   am
    32    12    13    1
    33    13    14   ar
    34    14    15   ar
    35    15    16    1
    36    15    17   ar
    37    17    18   ar
    38    18    19   ar
    39    40    35   ar
    40     6     1    1
    41    26    21   ar
    42    19    13   ar
    43    12     4    1
    44    32    27    1
    45    16    20    1
