@<TRIPOS>MOLECULE
*****
 41 46 0 0 0
SMALL
GASTEIGER

@<TRIPOS>ATOM
      1 C          -0.6151    3.9931   25.9544 C.3     1  UNL1        0.0972
      2 C           0.1012    4.7006   27.0663 C.3     1  UNL1        0.0431
      3 C          -0.9001    5.5406   27.8023 C.3     1  UNL1        0.0968
      4 N          -2.2354    5.3522   27.1452 N.am    1  UNL1       -0.2623
      5 C          -3.5210    6.0056   27.5577 C.2     1  UNL1        0.3073
      6 O          -3.5435    6.9450   28.7270 O.2     1  UNL1       -0.2523
      7 N          -4.7842    5.7196   26.8011 N.am    1  UNL1       -0.2626
      8 C          -6.1377    6.2954   27.0952 C.3     1  UNL1        0.0964
      9 C          -7.1057    5.7392   26.0933 C.3     1  UNL1        0.0390
     10 C          -6.3504    4.8197   25.1801 C.3     1  UNL1        0.0758
     11 C          -4.9157    4.8075   25.6175 C.3     1  UNL1        0.1106
     12 C          -2.0592    4.3958   26.0031 C.3     1  UNL1        0.1147
     13 C           0.0989    3.4323   23.5201 C.3     1  UNL1        0.1152
     14 N           0.0040    3.0487   24.9671 N.am    1  UNL1       -0.2738
     15 C           0.5284    1.7207   25.4269 C.2     1  UNL1        0.2551
     16 O           1.1475    0.7762   24.4397 O.2     1  UNL1       -0.2694
     17 C           0.4335    1.3371   26.8739 C.ar    1  UNL1        0.0830
     18 C          -0.8156    0.9304   27.5982 C.ar    1  UNL1        0.0115
     19 C          -0.4500    0.6348   29.0226 C.ar    1  UNL1        0.0071
     20 C           1.0249    0.8588   29.1787 C.ar    1  UNL1        0.0297
     21 S           1.5710    1.2928   27.8508 S.2     1  UNL1       -0.0824
     22 C           1.8151    0.6802   30.4412 C.ar    1  UNL1        0.0092
     23 C           1.7261    1.7049   31.5330 C.ar    1  UNL1        0.0038
     24 C           2.5163    1.5263   32.7954 C.ar    1  UNL1        0.0401
     25 C           3.3955    0.3229   32.9660 C.ar    1  UNL1        0.1724
     26 C           3.4845   -0.7018   31.8742 C.ar    1  UNL1        0.1724
     27 C           2.6943   -0.5231   30.6118 C.ar    1  UNL1        0.0405
     28 O           4.3636   -1.9051   32.0448 O.3     1  UNL1       -0.4684
     29 C           5.1538   -2.0837   33.3072 C.3     1  UNL1        0.2526
     30 C           5.0648   -1.0590   34.3990 C.3     1  UNL1        0.2526
     31 O           4.1857    0.1443   34.2284 O.3     1  UNL1       -0.4684
     32 N          -6.9284    4.0478   24.0311 N.3     1  UNL1       -0.2982
     33 H          -7.8942    4.3578   23.9243 H       1  UNL1        0.1232
     34 C          -6.2934    4.1337   22.6748 C.3     1  UNL1        0.0540
     35 C          -6.8410    5.0812   21.6490 C.3     1  UNL1        0.0157
     36 C          -6.2061    5.1671   20.2928 C.3     1  UNL1        0.0014
     37 C          -5.0236    4.3055   19.9623 C.3     1  UNL1        0.0001
     38 C          -3.8951    3.6999   19.1814 C.3     1  UNL1        0.0000
     39 C          -5.1793    5.0428   18.6652 C.3     1  UNL1        0.0000
     40 C          -4.4760    3.3580   20.9881 C.3     1  UNL1        0.0014
     41 C          -5.1109    3.2721   22.3443 C.3     1  UNL1        0.0157
@<TRIPOS>BOND
     1    13    14    1
     2    14    15   am
     3    15    16    2
     4    15    17    1
     5    17    18   ar
     6    18    19   ar
     7    19    20   ar
     8    20    22    1
     9    22    23   ar
    10    23    24   ar
    11    24    25   ar
    12    25    26   ar
    13    26    27   ar
    14    26    28    1
    15    28    29    1
    16    29    30    1
    17    30    31    1
    18    20    21   ar
    19     1    14    1
    20     1     2    1
    21     2     3    1
    22     3     4    1
    23     4     5   am
    24     5     6    2
    25     5     7   am
    26     7     8    1
    27     8     9    1
    28     9    10    1
    29    10    32    1
    30    32    34    1
    31    34    35    1
    32    35    36    1
    33    36    37    1
    34    37    38    1
    35    37    39    1
    36    37    40    1
    37    40    41    1
    38    10    11    1
    39     4    12    1
    40    21    17   ar
    41    12     1    1
    42    27    22   ar
    43    11     7    1
    44    31    25    1
    45    41    34    1
    46    32    33    1
@<TRIPOS>MOLECULE
*****
 41 46 0 0 0
SMALL
GASTEIGER

@<TRIPOS>ATOM
      1 C           7.5057   -2.9719   21.3368 C.3     1  UNL1        0.0972
      2 C           7.5262   -4.2738   22.0816 C.3     1  UNL1        0.0431
      3 C           7.0470   -4.0160   23.4793 C.3     1  UNL1        0.0968
      4 N           6.7302   -2.5546   23.5984 N.am    1  UNL1       -0.2623
      5 C           6.2196   -1.8603   24.8261 C.2     1  UNL1        0.3073
      6 O           5.9820   -2.6407   26.0850 O.2     1  UNL1       -0.2523
      7 N           5.9465   -0.3858   24.7950 N.am    1  UNL1       -0.2626
      8 C           5.4365    0.4408   25.9382 C.3     1  UNL1        0.0964
      9 C           5.3102    1.8586   25.4650 C.3     1  UNL1        0.0390
     10 C           5.7422    1.9083   24.0294 C.3     1  UNL1        0.0758
     11 C           6.1354    0.5212   23.6153 C.3     1  UNL1        0.1106
     12 C           7.0137   -1.9094   22.2743 C.3     1  UNL1        0.1147
     13 C           9.3467   -2.8948   19.5052 C.3     1  UNL1        0.1152
     14 N           7.9068   -2.7684   19.9058 N.am    1  UNL1       -0.2738
     15 C           6.8677   -2.4385   18.8755 C.2     1  UNL1        0.2551
     16 O           7.2687   -2.2350   17.4444 O.2     1  UNL1       -0.2694
     17 C           5.4278   -2.3122   19.2761 C.ar    1  UNL1        0.0830
     18 C           4.4134   -3.4172   19.2800 C.ar    1  UNL1        0.0115
     19 C           3.1081   -2.8465   19.7495 C.ar    1  UNL1        0.0071
     20 C           3.3157   -1.3888   20.0358 C.ar    1  UNL1        0.0297
     21 S           4.7493   -1.0585   19.7432 S.2     1  UNL1       -0.0824
     22 C           2.2727   -0.4297   20.5282 C.ar    1  UNL1        0.0092
     23 C           1.1034   -0.0805   19.6560 C.ar    1  UNL1        0.0038
     24 C           0.0605    0.8786   20.1483 C.ar    1  UNL1        0.0401
     25 C           0.1869    1.4885   21.5129 C.ar    1  UNL1        0.1724
     26 C           1.3562    1.1393   22.3851 C.ar    1  UNL1        0.1724
     27 C           2.3991    0.1802   21.8927 C.ar    1  UNL1        0.0405
     28 O           1.4826    1.7492   23.7497 O.3     1  UNL1       -0.4684
     29 C           0.4397    2.7083   24.2420 C.3     1  UNL1        0.2526
     30 C          -0.7297    3.0575   23.3698 C.3     1  UNL1        0.2526
     31 O          -0.8561    2.4476   22.0053 O.3     1  UNL1       -0.4684
     32 N           5.7751    3.1305   23.1604 N.3     1  UNL1       -0.2982
     33 H           6.6945    3.1534   22.7191 H       1  UNL1        0.1232
     34 C           4.7646    3.2991   22.0646 C.3     1  UNL1        0.0540
     35 C           3.5601    4.1663   22.2822 C.3     1  UNL1        0.0157
     36 C           2.5497    4.3349   21.1865 C.3     1  UNL1        0.0014
     37 C           2.7437    3.6364   19.8733 C.3     1  UNL1        0.0001
     38 C           2.4886    3.1846   18.4659 C.3     1  UNL1        0.0000
     39 C           1.4506    4.3467   19.6021 C.3     1  UNL1        0.0000
     40 C           3.9481    2.7693   19.6558 C.3     1  UNL1        0.0014
     41 C           4.9586    2.6006   20.7515 C.3     1  UNL1        0.0157
@<TRIPOS>BOND
     1    13    14    1
     2    14    15   am
     3    15    16    2
     4    15    17    1
     5    17    18   ar
     6    18    19   ar
     7    19    20   ar
     8    20    22    1
     9    22    23   ar
    10    23    24   ar
    11    24    25   ar
    12    25    26   ar
    13    26    27   ar
    14    26    28    1
    15    28    29    1
    16    29    30    1
    17    30    31    1
    18    20    21   ar
    19     1    14    1
    20     1     2    1
    21     2     3    1
    22     3     4    1
    23     4     5   am
    24     5     6    2
    25     5     7   am
    26     7     8    1
    27     8     9    1
    28     9    10    1
    29    10    32    1
    30    32    34    1
    31    34    35    1
    32    35    36    1
    33    36    37    1
    34    37    38    1
    35    37    39    1
    36    37    40    1
    37    40    41    1
    38    10    11    1
    39     4    12    1
    40    21    17   ar
    41    12     1    1
    42    27    22   ar
    43    11     7    1
    44    31    25    1
    45    41    34    1
    46    32    33    1
@<TRIPOS>MOLECULE
*****
 41 46 0 0 0
SMALL
GASTEIGER

@<TRIPOS>ATOM
      1 C           4.7018   -0.5018   27.1446 C.3     1  UNL1        0.0972
      2 C           5.7563   -0.1246   28.1426 C.3     1  UNL1        0.0431
      3 C           7.0465   -0.7595   27.7160 C.3     1  UNL1        0.0968
      4 N           6.7895   -1.5290   26.4543 N.am    1  UNL1       -0.2623
      5 C           7.8036   -2.3191   25.6814 C.2     1  UNL1        0.3073
      6 O           9.2239   -2.3876   26.1593 O.2     1  UNL1       -0.2523
      7 N           7.3975   -3.0408   24.4307 N.am    1  UNL1       -0.2626
      8 C           8.2959   -3.8660   23.5577 C.3     1  UNL1        0.0964
      9 C           7.4753   -4.3991   22.4209 C.3     1  UNL1        0.0390
     10 C           6.0699   -3.9034   22.5913 C.3     1  UNL1        0.0758
     11 C           6.0218   -3.0639   23.8334 C.3     1  UNL1        0.1106
     12 C           5.3404   -1.3697   26.1012 C.3     1  UNL1        0.1147
     13 C           2.3580   -0.6065   28.2607 C.3     1  UNL1        0.1152
     14 N           3.2616   -0.0842   27.1834 N.am    1  UNL1       -0.2738
     15 C           2.7252    0.8558   26.1448 C.2     1  UNL1        0.2551
     16 O           1.2850    1.2735   26.1835 O.2     1  UNL1       -0.2694
     17 C           3.6288    1.3781   25.0675 C.ar    1  UNL1        0.0830
     18 C           4.3036    2.7178   25.0554 C.ar    1  UNL1        0.0115
     19 C           5.1082    2.8201   23.7936 C.ar    1  UNL1        0.0071
     20 C           4.9308    1.5437   23.0259 C.ar    1  UNL1        0.0297
     21 S           4.0166    0.6525   23.8132 S.2     1  UNL1       -0.0824
     22 C           5.5577    1.2160   21.7031 C.ar    1  UNL1        0.0092
     23 C           6.4443    0.0133   21.5708 C.ar    1  UNL1        0.0038
     24 C           7.0711   -0.3145   20.2481 C.ar    1  UNL1        0.0401
     25 C           6.8114    0.5605   19.0576 C.ar    1  UNL1        0.1724
     26 C           5.9248    1.7632   19.1900 C.ar    1  UNL1        0.1724
     27 C           5.2980    2.0909   20.5128 C.ar    1  UNL1        0.0405
     28 O           5.6651    2.6381   17.9996 O.3     1  UNL1       -0.4684
     29 C           6.2919    2.3104   16.6769 C.3     1  UNL1        0.2526
     30 C           7.1785    1.1077   16.5446 C.3     1  UNL1        0.2526
     31 O           7.4382    0.2328   17.7349 O.3     1  UNL1       -0.4684
     32 N           4.9152   -4.1959   21.6795 N.3     1  UNL1       -0.2982
     33 H           4.0990   -4.3384   22.2745 H       1  UNL1        0.1232
     34 C           4.5175   -3.2006   20.6300 C.3     1  UNL1        0.0540
     35 C           3.5747   -2.0854   20.9728 C.3     1  UNL1        0.0157
     36 C           3.1771   -1.0903   19.9233 C.3     1  UNL1        0.0014
     37 C           3.7222   -1.2103   18.5310 C.3     1  UNL1        0.0001
     38 C           3.9697   -0.9063   17.0831 C.3     1  UNL1        0.0000
     39 C           2.8653    0.0105   18.3710 C.3     1  UNL1        0.0000
     40 C           4.6649   -2.3254   18.1882 C.3     1  UNL1        0.0014
     41 C           5.0626   -3.3206   19.2377 C.3     1  UNL1        0.0157
@<TRIPOS>BOND
     1    13    14    1
     2    14    15   am
     3    15    16    2
     4    15    17    1
     5    17    18   ar
     6    18    19   ar
     7    19    20   ar
     8    20    22    1
     9    22    23   ar
    10    23    24   ar
    11    24    25   ar
    12    25    26   ar
    13    26    27   ar
    14    26    28    1
    15    28    29    1
    16    29    30    1
    17    30    31    1
    18    20    21   ar
    19     1    14    1
    20     1     2    1
    21     2     3    1
    22     3     4    1
    23     4     5   am
    24     5     6    2
    25     5     7   am
    26     7     8    1
    27     8     9    1
    28     9    10    1
    29    10    32    1
    30    32    34    1
    31    34    35    1
    32    35    36    1
    33    36    37    1
    34    37    38    1
    35    37    39    1
    36    37    40    1
    37    40    41    1
    38    10    11    1
    39     4    12    1
    40    21    17   ar
    41    12     1    1
    42    27    22   ar
    43    11     7    1
    44    31    25    1
    45    41    34    1
    46    32    33    1
@<TRIPOS>MOLECULE
*****
 41 46 0 0 0
SMALL
GASTEIGER

@<TRIPOS>ATOM
      1 C          -2.0261    4.9650   25.5668 C.3     1  UNL1        0.0972
      2 C          -3.2627    4.5329   26.2977 C.3     1  UNL1        0.0431
      3 C          -4.2496    4.0339   25.2843 C.3     1  UNL1        0.0968
      4 N          -3.6229    4.1576   23.9271 N.am    1  UNL1       -0.2623
      5 C          -4.2587    3.7733   22.6240 C.2     1  UNL1        0.3073
      6 O          -5.6477    3.2070   22.6055 O.2     1  UNL1       -0.2523
      7 N          -3.5058    3.9554   21.3396 N.am    1  UNL1       -0.2626
      8 C          -4.0089    3.6183   19.9672 C.3     1  UNL1        0.0964
      9 C          -2.9316    3.9611   18.9814 C.3     1  UNL1        0.0390
     10 C          -1.7626    4.5099   19.7445 C.3     1  UNL1        0.0758
     11 C          -2.1175    4.5064   21.2019 C.3     1  UNL1        0.1106
     12 C          -2.2487    4.7330   24.1018 C.3     1  UNL1        0.1147
     13 C          -0.8050    6.9056   26.7887 C.3     1  UNL1        0.1152
     14 N          -0.7848    5.5298   26.1915 N.am    1  UNL1       -0.2738
     15 C           0.4767    4.7187   26.2190 C.2     1  UNL1        0.2551
     16 O           1.7180    5.2834   26.8437 O.2     1  UNL1       -0.2694
     17 C           0.4969    3.3429   25.6218 C.ar    1  UNL1        0.0830
     18 C          -0.0849    2.1054   26.2385 C.ar    1  UNL1        0.0115
     19 C           0.1611    0.9606   25.3009 C.ar    1  UNL1        0.0071
     20 C           0.8949    1.4906   24.1048 C.ar    1  UNL1        0.0297
     21 S           1.1025    2.9629   24.3031 S.2     1  UNL1       -0.0824
     22 C           1.3425    0.6890   22.9186 C.ar    1  UNL1        0.0092
     23 C           0.5360    0.7065   21.6540 C.ar    1  UNL1        0.0038
     24 C           0.9836   -0.0951   20.4678 C.ar    1  UNL1        0.0401
     25 C           2.2378   -0.9142   20.5461 C.ar    1  UNL1        0.1724
     26 C           3.0444   -0.9317   21.8107 C.ar    1  UNL1        0.1724
     27 C           2.5967   -0.1301   22.9970 C.ar    1  UNL1        0.0405
     28 O           4.2986   -1.7507   21.8891 O.3     1  UNL1       -0.4684
     29 C           4.7462   -2.5522   20.7029 C.3     1  UNL1        0.2526
     30 C           3.9396   -2.5347   19.4383 C.3     1  UNL1        0.2526
     31 O           2.6855   -1.7157   19.3599 O.3     1  UNL1       -0.4684
     32 N          -0.4663    4.9798   19.1538 N.3     1  UNL1       -0.2982
     33 H          -0.3099    5.9258   19.5018 H       1  UNL1        0.1232
     34 C           0.7962    4.2107   19.4082 C.3     1  UNL1        0.0540
     35 C           1.3457    3.3001   18.3503 C.3     1  UNL1        0.0157
     36 C           2.6082    2.5311   18.6046 C.3     1  UNL1        0.0014
     37 C           3.3211    2.6725   19.9167 C.3     1  UNL1        0.0001
     38 C           4.3490    2.4737   20.9911 C.3     1  UNL1        0.0000
     39 C           4.2276    1.6929   19.2320 C.3     1  UNL1        0.0000
     40 C           2.7717    3.5830   20.9745 C.3     1  UNL1        0.0014
     41 C           1.5092    4.3521   20.7203 C.3     1  UNL1        0.0157
@<TRIPOS>BOND
     1    13    14    1
     2    14    15   am
     3    15    16    2
     4    15    17    1
     5    17    18   ar
     6    18    19   ar
     7    19    20   ar
     8    20    22    1
     9    22    23   ar
    10    23    24   ar
    11    24    25   ar
    12    25    26   ar
    13    26    27   ar
    14    26    28    1
    15    28    29    1
    16    29    30    1
    17    30    31    1
    18    20    21   ar
    19     1    14    1
    20     1     2    1
    21     2     3    1
    22     3     4    1
    23     4     5   am
    24     5     6    2
    25     5     7   am
    26     7     8    1
    27     8     9    1
    28     9    10    1
    29    10    32    1
    30    32    34    1
    31    34    35    1
    32    35    36    1
    33    36    37    1
    34    37    38    1
    35    37    39    1
    36    37    40    1
    37    40    41    1
    38    10    11    1
    39     4    12    1
    40    21    17   ar
    41    12     1    1
    42    27    22   ar
    43    11     7    1
    44    31    25    1
    45    41    34    1
    46    32    33    1
@<TRIPOS>MOLECULE
*****
 41 46 0 0 0
SMALL
GASTEIGER

@<TRIPOS>ATOM
      1 C           2.2640    3.9928   20.6473 C.3     1  UNL1        0.0972
      2 C           2.4503    5.1550   21.5771 C.3     1  UNL1        0.0431
      3 C           3.9116    5.4913   21.6117 C.3     1  UNL1        0.0968
      4 N           4.6285    4.5369   20.7033 N.am    1  UNL1       -0.2623
      5 C           6.1046    4.5129   20.4375 C.2     1  UNL1        0.3073
      6 O           7.0040    5.5074   21.1099 O.2     1  UNL1       -0.2523
      7 N           6.6813    3.4944   19.4994 N.am    1  UNL1       -0.2626
      8 C           8.1298    3.3490   19.1380 C.3     1  UNL1        0.0964
      9 C           8.2545    2.2071   18.1732 C.3     1  UNL1        0.0390
     10 C           6.8830    1.6468   17.9385 C.3     1  UNL1        0.0758
     11 C           5.9107    2.4424   18.7581 C.3     1  UNL1        0.1106
     12 C           3.6101    3.6108   20.1073 C.3     1  UNL1        0.1147
     13 C          -0.0644    4.0560   19.4962 C.3     1  UNL1        0.1152
     14 N           0.9602    3.3291   20.3158 N.am    1  UNL1       -0.2738
     15 C           0.6811    1.9385   20.8041 C.2     1  UNL1        0.2551
     16 O          -0.6226    1.2748   20.4727 O.2     1  UNL1       -0.2694
     17 C           1.7057    1.2117   21.6237 C.ar    1  UNL1        0.0830
     18 C           2.0167    1.4612   23.0698 C.ar    1  UNL1        0.0115
     19 C           3.1024    0.5114   23.4810 C.ar    1  UNL1        0.0071
     20 C           3.4625   -0.3251   22.2891 C.ar    1  UNL1        0.0297
     21 S           2.5993    0.1076   21.1412 S.2     1  UNL1       -0.0824
     22 C           4.5031   -1.4049   22.2516 C.ar    1  UNL1        0.0092
     23 C           4.1739   -2.7813   22.7487 C.ar    1  UNL1        0.0038
     24 C           5.2144   -3.8611   22.7113 C.ar    1  UNL1        0.0401
     25 C           6.5842   -3.5644   22.1767 C.ar    1  UNL1        0.1724
     26 C           6.9134   -2.1880   21.6796 C.ar    1  UNL1        0.1724
     27 C           5.8728   -1.1083   21.7171 C.ar    1  UNL1        0.0405
     28 O           8.2831   -1.8914   21.1450 O.3     1  UNL1       -0.4684
     29 C           9.3236   -2.9711   21.1075 C.3     1  UNL1        0.2526
     30 C           8.9944   -4.3475   21.6046 C.3     1  UNL1        0.2526
     31 O           7.6247   -4.6442   22.1392 O.3     1  UNL1       -0.4684
     32 N           6.5434    0.4935   17.0416 N.3     1  UNL1       -0.2982
     33 H           7.4175    0.1831   16.6173 H       1  UNL1        0.1232
     34 C           5.8795   -0.7268   17.6077 C.3     1  UNL1        0.0540
     35 C           6.6863   -1.9621   17.8781 C.3     1  UNL1        0.0157
     36 C           6.0225   -3.1823   18.4442 C.3     1  UNL1        0.0014
     37 C           4.5520   -3.1671   18.7400 C.3     1  UNL1        0.0001
     38 C           3.1984   -3.6378   19.1831 C.3     1  UNL1        0.0000
     39 C           4.8887   -4.5660   19.1643 C.3     1  UNL1        0.0000
     40 C           3.7453   -1.9319   18.4696 C.3     1  UNL1        0.0014
     41 C           4.4091   -0.7116   17.9034 C.3     1  UNL1        0.0157
@<TRIPOS>BOND
     1    13    14    1
     2    14    15   am
     3    15    16    2
     4    15    17    1
     5    17    18   ar
     6    18    19   ar
     7    19    20   ar
     8    20    22    1
     9    22    23   ar
    10    23    24   ar
    11    24    25   ar
    12    25    26   ar
    13    26    27   ar
    14    26    28    1
    15    28    29    1
    16    29    30    1
    17    30    31    1
    18    20    21   ar
    19     1    14    1
    20     1     2    1
    21     2     3    1
    22     3     4    1
    23     4     5   am
    24     5     6    2
    25     5     7   am
    26     7     8    1
    27     8     9    1
    28     9    10    1
    29    10    32    1
    30    32    34    1
    31    34    35    1
    32    35    36    1
    33    36    37    1
    34    37    38    1
    35    37    39    1
    36    37    40    1
    37    40    41    1
    38    10    11    1
    39     4    12    1
    40    21    17   ar
    41    12     1    1
    42    27    22   ar
    43    11     7    1
    44    31    25    1
    45    41    34    1
    46    32    33    1
@<TRIPOS>MOLECULE
*****
 41 46 0 0 0
SMALL
GASTEIGER

@<TRIPOS>ATOM
      1 C          -2.8505    4.8037   26.3039 C.3     1  UNL1        0.0972
      2 C          -4.2008    4.2361   26.6273 C.3     1  UNL1        0.0431
      3 C          -4.7994    3.7107   25.3563 C.3     1  UNL1        0.0968
      4 N          -3.8190    3.9537   24.2472 N.am    1  UNL1       -0.2623
      5 C          -4.0097    3.5857   22.8056 C.2     1  UNL1        0.3073
      6 O          -5.2745    2.9101   22.3650 O.2     1  UNL1       -0.2523
      7 N          -2.9357    3.8933   21.8047 N.am    1  UNL1       -0.2626
      8 C          -2.9842    3.5867   20.3371 C.3     1  UNL1        0.0964
      9 C          -1.7031    4.0654   19.7210 C.3     1  UNL1        0.0390
     10 C          -0.8629    4.6679   20.8078 C.3     1  UNL1        0.0758
     11 C          -1.6247    4.5615   22.0956 C.3     1  UNL1        0.1106
     12 C          -2.6146    4.6292   24.8329 C.3     1  UNL1        0.1147
     13 C          -2.2378    6.7580   27.9024 C.3     1  UNL1        0.1152
     14 N          -1.9027    5.4350   27.2801 N.am    1  UNL1       -0.2738
     15 C          -0.6196    4.7432   27.6340 C.2     1  UNL1        0.2551
     16 O           0.3283    5.3744   28.6102 O.2     1  UNL1       -0.2694
     17 C          -0.2845    3.4202   27.0117 C.ar    1  UNL1        0.0830
     18 C          -0.5848    2.0706   27.5938 C.ar    1  UNL1        0.0115
     19 C          -0.0762    1.0308   26.6398 C.ar    1  UNL1        0.0071
     20 C           0.5385    1.7376   25.4683 C.ar    1  UNL1        0.0297
     21 S           0.4098    3.2143   25.6980 S.2     1  UNL1       -0.0824
     22 C           1.1710    1.0826   24.2761 C.ar    1  UNL1        0.0092
     23 C           2.3788    0.2108   24.4522 C.ar    1  UNL1        0.0038
     24 C           3.0113   -0.4441   23.2601 C.ar    1  UNL1        0.0401
     25 C           2.4359   -0.2272   21.8919 C.ar    1  UNL1        0.1724
     26 C           1.2280    0.6447   21.7158 C.ar    1  UNL1        0.1724
     27 C           0.5955    1.2996   22.9080 C.ar    1  UNL1        0.0405
     28 O           0.6526    0.8616   20.3477 O.3     1  UNL1       -0.4684
     29 C           1.2850    0.2067   19.1556 C.3     1  UNL1        0.2526
     30 C           2.4929   -0.6651   19.3317 C.3     1  UNL1        0.2526
     31 O           3.0683   -0.8821   20.6998 O.3     1  UNL1       -0.4684
     32 N           0.4999    5.2709   20.6368 N.3     1  UNL1       -0.2982
     33 H           0.4917    6.1624   21.1322 H       1  UNL1        0.1232
     34 C           1.7141    4.5256   21.1065 C.3     1  UNL1        0.0540
     35 C           2.5303    3.7308   20.1307 C.3     1  UNL1        0.0157
     36 C           3.7444    2.9857   20.6004 C.3     1  UNL1        0.0014
     37 C           4.1423    3.0353   22.0457 C.3     1  UNL1        0.0001
     38 C           4.9172    2.7778   23.3041 C.3     1  UNL1        0.0000
     39 C           5.2277    2.1510   21.5070 C.3     1  UNL1        0.0000
     40 C           3.3262    3.8301   23.0215 C.3     1  UNL1        0.0014
     41 C           2.1121    4.5753   22.5519 C.3     1  UNL1        0.0157
@<TRIPOS>BOND
     1    13    14    1
     2    14    15   am
     3    15    16    2
     4    15    17    1
     5    17    18   ar
     6    18    19   ar
     7    19    20   ar
     8    20    22    1
     9    22    23   ar
    10    23    24   ar
    11    24    25   ar
    12    25    26   ar
    13    26    27   ar
    14    26    28    1
    15    28    29    1
    16    29    30    1
    17    30    31    1
    18    20    21   ar
    19     1    14    1
    20     1     2    1
    21     2     3    1
    22     3     4    1
    23     4     5   am
    24     5     6    2
    25     5     7   am
    26     7     8    1
    27     8     9    1
    28     9    10    1
    29    10    32    1
    30    32    34    1
    31    34    35    1
    32    35    36    1
    33    36    37    1
    34    37    38    1
    35    37    39    1
    36    37    40    1
    37    40    41    1
    38    10    11    1
    39     4    12    1
    40    21    17   ar
    41    12     1    1
    42    27    22   ar
    43    11     7    1
    44    31    25    1
    45    41    34    1
    46    32    33    1
@<TRIPOS>MOLECULE
*****
 41 46 0 0 0
SMALL
GASTEIGER

@<TRIPOS>ATOM
      1 C           2.4111    3.4765   20.8662 C.3     1  UNL1        0.0972
      2 C           2.5176    4.5893   21.8663 C.3     1  UNL1        0.0431
      3 C           3.9714    4.9079   22.0524 C.3     1  UNL1        0.0968
      4 N           4.7636    3.9918   21.1673 N.am    1  UNL1       -0.2623
      5 C           6.2578    3.9651   21.0379 C.2     1  UNL1        0.3073
      6 O           7.0970    4.9156   21.8394 O.2     1  UNL1       -0.2523
      7 N           6.9127    2.9880   20.1072 N.am    1  UNL1       -0.2626
      8 C           8.3876    2.8452   19.8740 C.3     1  UNL1        0.0964
      9 C           8.5941    1.7511   18.8689 C.3     1  UNL1        0.0390
     10 C           7.2469    1.2178   18.4808 C.3     1  UNL1        0.0758
     11 C           6.2077    1.9823   19.2461 C.3     1  UNL1        0.1106
     12 C           3.7992    3.1072   20.4342 C.3     1  UNL1        0.1147
     13 C           0.3251    3.5163   19.3180 C.3     1  UNL1        0.1152
     14 N           1.1397    2.8440   20.3830 N.am    1  UNL1       -0.2738
     15 C           0.6829    1.5391   20.9650 C.2     1  UNL1        0.2551
     16 O          -0.5885    0.9066   20.4819 O.2     1  UNL1       -0.2694
     17 C           1.4975    0.8668   22.0301 C.ar    1  UNL1        0.0830
     18 C           1.4745    1.1915   23.4944 C.ar    1  UNL1        0.0115
     19 C           2.4409    0.2771   24.1872 C.ar    1  UNL1        0.0071
     20 C           3.0612   -0.6126   23.1511 C.ar    1  UNL1        0.0297
     21 S           2.4782   -0.2483   21.8179 S.2     1  UNL1       -0.0824
     22 C           4.0849   -1.6796   23.4037 C.ar    1  UNL1        0.0092
     23 C           4.3768   -2.7040   22.3476 C.ar    1  UNL1        0.0038
     24 C           5.4005   -3.7709   22.6002 C.ar    1  UNL1        0.0401
     25 C           6.1322   -3.8135   23.9090 C.ar    1  UNL1        0.1724
     26 C           5.8403   -2.7891   24.9651 C.ar    1  UNL1        0.1724
     27 C           4.8166   -1.7221   24.7124 C.ar    1  UNL1        0.0405
     28 O           6.5720   -2.8316   26.2738 O.3     1  UNL1       -0.4684
     29 C           7.5956   -3.8985   26.5264 C.3     1  UNL1        0.2526
     30 C           7.8875   -4.9229   25.4703 C.3     1  UNL1        0.2526
     31 O           7.1558   -4.8804   24.1615 O.3     1  UNL1       -0.4684
     32 N           6.9848    0.1138   17.4997 N.3     1  UNL1       -0.2982
     33 H           7.8949   -0.2323   17.1959 H       1  UNL1        0.1232
     34 C           6.1826   -1.0838   17.9149 C.3     1  UNL1        0.0540
     35 C           4.6888   -0.9886   18.0131 C.3     1  UNL1        0.0157
     36 C           3.8867   -2.1861   18.4282 C.3     1  UNL1        0.0014
     37 C           4.5783   -3.4789   18.7452 C.3     1  UNL1        0.0001
     38 C           4.7748   -4.9114   19.1444 C.3     1  UNL1        0.0000
     39 C           3.1527   -3.8812   18.9820 C.3     1  UNL1        0.0000
     40 C           6.0720   -3.5741   18.6470 C.3     1  UNL1        0.0014
     41 C           6.8742   -2.3766   18.2318 C.3     1  UNL1        0.0157
@<TRIPOS>BOND
     1    13    14    1
     2    14    15   am
     3    15    16    2
     4    15    17    1
     5    17    18   ar
     6    18    19   ar
     7    19    20   ar
     8    20    22    1
     9    22    23   ar
    10    23    24   ar
    11    24    25   ar
    12    25    26   ar
    13    26    27   ar
    14    26    28    1
    15    28    29    1
    16    29    30    1
    17    30    31    1
    18    20    21   ar
    19     1    14    1
    20     1     2    1
    21     2     3    1
    22     3     4    1
    23     4     5   am
    24     5     6    2
    25     5     7   am
    26     7     8    1
    27     8     9    1
    28     9    10    1
    29    10    32    1
    30    32    34    1
    31    34    35    1
    32    35    36    1
    33    36    37    1
    34    37    38    1
    35    37    39    1
    36    37    40    1
    37    40    41    1
    38    10    11    1
    39     4    12    1
    40    21    17   ar
    41    12     1    1
    42    27    22   ar
    43    11     7    1
    44    31    25    1
    45    41    34    1
    46    32    33    1
@<TRIPOS>MOLECULE
*****
 41 46 0 0 0
SMALL
GASTEIGER

@<TRIPOS>ATOM
      1 C           7.5338   -2.1178   20.4663 C.3     1  UNL1        0.0972
      2 C           8.5700   -1.4718   19.5951 C.3     1  UNL1        0.0431
      3 C           8.7439   -0.0546   20.0545 C.3     1  UNL1        0.0968
      4 N           7.8150    0.1753   21.2097 N.am    1  UNL1       -0.2623
      5 C           7.6611    1.4557   21.9759 C.2     1  UNL1        0.3073
      6 O           8.4815    2.6553   21.6045 O.2     1  UNL1       -0.2523
      7 N           6.6867    1.5364   23.1135 N.am    1  UNL1       -0.2626
      8 C           6.4253    2.7422   23.9666 C.3     1  UNL1        0.0964
      9 C           5.3797    2.3766   24.9780 C.3     1  UNL1        0.0390
     10 C           4.9950    0.9448   24.7501 C.3     1  UNL1        0.0758
     11 C           5.8027    0.4256   23.5977 C.3     1  UNL1        0.1106
     12 C           7.0672   -1.0998   21.4641 C.3     1  UNL1        0.1147
     13 C           7.9000   -4.6583   20.8690 C.3     1  UNL1        0.1152
     14 N           7.0493   -3.5333   20.3584 N.am    1  UNL1       -0.2738
     15 C           5.7140   -3.8238   19.7399 C.2     1  UNL1        0.2551
     16 O           5.2294   -5.2393   19.6319 O.2     1  UNL1       -0.2694
     17 C           4.8633   -2.6989   19.2293 C.ar    1  UNL1        0.0830
     18 C           4.9534   -2.0723   17.8693 C.ar    1  UNL1        0.0115
     19 C           3.9189   -0.9892   17.7885 C.ar    1  UNL1        0.0071
     20 C           3.1893   -0.9463   19.0984 C.ar    1  UNL1        0.0297
     21 S           3.7729   -2.0029   19.9889 S.2     1  UNL1       -0.0824
     22 C           2.0722   -0.0110   19.4553 C.ar    1  UNL1        0.0092
     23 C           1.4241   -0.0974   20.8053 C.ar    1  UNL1        0.0038
     24 C           0.3070    0.8378   21.1623 C.ar    1  UNL1        0.0401
     25 C          -0.1620    1.8596   20.1692 C.ar    1  UNL1        0.1724
     26 C           0.4862    1.9460   18.8192 C.ar    1  UNL1        0.1724
     27 C           1.6033    1.0107   18.4623 C.ar    1  UNL1        0.0405
     28 O           0.0172    2.9677   17.8261 O.3     1  UNL1       -0.4684
     29 C          -1.0998    3.9029   18.1831 C.3     1  UNL1        0.2526
     30 C          -1.7479    3.8165   19.5331 C.3     1  UNL1        0.2526
     31 O          -1.2790    2.7948   20.5261 O.3     1  UNL1       -0.4684
     32 N           3.9805    0.1685   25.5364 N.3     1  UNL1       -0.2982
     33 H           4.3864    0.0019   26.4572 H       1  UNL1        0.1232
     34 C           2.6114    0.7381   25.7632 C.3     1  UNL1        0.0540
     35 C           1.7883    1.1991   24.5970 C.3     1  UNL1        0.0157
     36 C           0.4194    1.7687   24.8239 C.3     1  UNL1        0.0014
     37 C          -0.1265    1.8773   26.2168 C.3     1  UNL1        0.0001
     38 C          -1.0723    2.1829   27.3402 C.3     1  UNL1        0.0000
     39 C          -1.2781    2.4444   25.4407 C.3     1  UNL1        0.0000
     40 C           0.6966    1.4163   27.3829 C.3     1  UNL1        0.0014
     41 C           2.0656    0.8467   27.1561 C.3     1  UNL1        0.0157
@<TRIPOS>BOND
     1    13    14    1
     2    14    15   am
     3    15    16    2
     4    15    17    1
     5    17    18   ar
     6    18    19   ar
     7    19    20   ar
     8    20    22    1
     9    22    23   ar
    10    23    24   ar
    11    24    25   ar
    12    25    26   ar
    13    26    27   ar
    14    26    28    1
    15    28    29    1
    16    29    30    1
    17    30    31    1
    18    20    21   ar
    19     1    14    1
    20     1     2    1
    21     2     3    1
    22     3     4    1
    23     4     5   am
    24     5     6    2
    25     5     7   am
    26     7     8    1
    27     8     9    1
    28     9    10    1
    29    10    32    1
    30    32    34    1
    31    34    35    1
    32    35    36    1
    33    36    37    1
    34    37    38    1
    35    37    39    1
    36    37    40    1
    37    40    41    1
    38    10    11    1
    39     4    12    1
    40    21    17   ar
    41    12     1    1
    42    27    22   ar
    43    11     7    1
    44    31    25    1
    45    41    34    1
    46    32    33    1
@<TRIPOS>MOLECULE
*****
 41 46 0 0 0
SMALL
GASTEIGER

@<TRIPOS>ATOM
      1 C           1.0198    4.2447   22.8583 C.3     1  UNL1        0.0972
      2 C           1.4304    5.6871   22.8874 C.3     1  UNL1        0.0431
      3 C           2.8680    5.7513   23.3104 C.3     1  UNL1        0.0968
      4 N           3.3459    4.3485   23.5427 N.am    1  UNL1       -0.2623
      5 C           4.7241    3.9473   23.9781 C.2     1  UNL1        0.3073
      6 O           5.7689    4.9959   24.2210 O.2     1  UNL1       -0.2523
      7 N           5.0576    2.4976   24.1705 N.am    1  UNL1       -0.2626
      8 C           6.3854    1.9478   24.6004 C.3     1  UNL1        0.0964
      9 C           6.2703    0.4535   24.6624 C.3     1  UNL1        0.0390
     10 C           4.8713    0.0798   24.2708 C.3     1  UNL1        0.0758
     11 C           4.1219    1.3431   23.9668 C.3     1  UNL1        0.1106
     12 C           2.2036    3.4174   23.2633 C.3     1  UNL1        0.1147
     13 C          -1.4999    3.9357   23.4113 C.3     1  UNL1        0.1152
     14 N          -0.3367    3.7215   22.4889 N.am    1  UNL1       -0.2738
     15 C          -0.5298    2.9841   21.1970 C.2     1  UNL1        0.2551
     16 O          -1.8861    2.4609   20.8275 O.2     1  UNL1       -0.2694
     17 C           0.6335    2.7699   20.2746 C.ar    1  UNL1        0.0830
     18 C           1.1115    3.7255   19.2217 C.ar    1  UNL1        0.0115
     19 C           2.2965    3.1087   18.5395 C.ar    1  UNL1        0.0071
     20 C           2.5508    1.7719   19.1706 C.ar    1  UNL1        0.0297
     21 S           1.5231    1.5625   20.2430 S.2     1  UNL1       -0.0824
     22 C           3.6414    0.8129   18.7953 C.ar    1  UNL1        0.0092
     23 C           3.5850    0.0894   17.4826 C.ar    1  UNL1        0.0038
     24 C           4.6756   -0.8696   17.1073 C.ar    1  UNL1        0.0401
     25 C           5.8226   -1.1052   18.0448 C.ar    1  UNL1        0.1724
     26 C           5.8790   -0.3818   19.3576 C.ar    1  UNL1        0.1724
     27 C           4.7884    0.5773   19.7328 C.ar    1  UNL1        0.0405
     28 O           7.0260   -0.6173   20.2951 O.3     1  UNL1       -0.4684
     29 C           8.1166   -1.5763   19.9198 C.3     1  UNL1        0.2526
     30 C           8.0602   -2.2998   18.6070 C.3     1  UNL1        0.2526
     31 O           6.9132   -2.0643   17.6695 O.3     1  UNL1       -0.4684
     32 N           4.3188   -1.3128   24.1963 N.3     1  UNL1       -0.2982
     33 H           3.3609   -1.2685   24.5438 H       1  UNL1        0.1232
     34 C           4.2693   -2.0306   22.8800 C.3     1  UNL1        0.0540
     35 C           5.2787   -3.0953   22.5679 C.3     1  UNL1        0.0157
     36 C           5.2292   -3.8130   21.2518 C.3     1  UNL1        0.0014
     37 C           4.1702   -3.4660   20.2477 C.3     1  UNL1        0.0001
     38 C           3.3646   -3.4920   18.9826 C.3     1  UNL1        0.0000
     39 C           4.8999   -4.5398   19.4962 C.3     1  UNL1        0.0000
     40 C           3.1608   -2.4014   20.5598 C.3     1  UNL1        0.0014
     41 C           3.2103   -1.6836   21.8760 C.3     1  UNL1        0.0157
@<TRIPOS>BOND
     1    13    14    1
     2    14    15   am
     3    15    16    2
     4    15    17    1
     5    17    18   ar
     6    18    19   ar
     7    19    20   ar
     8    20    22    1
     9    22    23   ar
    10    23    24   ar
    11    24    25   ar
    12    25    26   ar
    13    26    27   ar
    14    26    28    1
    15    28    29    1
    16    29    30    1
    17    30    31    1
    18    20    21   ar
    19     1    14    1
    20     1     2    1
    21     2     3    1
    22     3     4    1
    23     4     5   am
    24     5     6    2
    25     5     7   am
    26     7     8    1
    27     8     9    1
    28     9    10    1
    29    10    32    1
    30    32    34    1
    31    34    35    1
    32    35    36    1
    33    36    37    1
    34    37    38    1
    35    37    39    1
    36    37    40    1
    37    40    41    1
    38    10    11    1
    39     4    12    1
    40    21    17   ar
    41    12     1    1
    42    27    22   ar
    43    11     7    1
    44    31    25    1
    45    41    34    1
    46    32    33    1
