@<TRIPOS>MOLECULE
*****
 38 42 0 0 0
SMALL
GASTEIGER

@<TRIPOS>ATOM
      1 C           1.6821    0.8073   19.6541 C.3     1  UNL1        0.0933
      2 C           0.5392    0.8344   20.6254 C.3     1  UNL1        0.0442
      3 C          -0.4851    1.9274   20.5480 C.3     1  UNL1        0.0953
      4 N          -0.3666    2.9934   19.4993 N.am    1  UNL1       -0.2794
      5 C          -1.3909    4.0865   19.4219 C.2     1  UNL1        0.2252
      6 O          -1.2724    5.1524   18.3733 O.2     1  UNL1       -0.2749
      7 C           0.7762    2.9663   18.5281 C.3     1  UNL1        0.0953
      8 C           1.8005    1.8732   18.6055 C.3     1  UNL1        0.0442
      9 N           4.3442   -1.9631   19.1032 N.ar    1  UNL1       -0.2773
     10 C           3.4080   -0.9206   18.5676 C.ar    1  UNL1        0.3316
     11 O           3.2086   -0.5739   17.1219 O.2     1  UNL1       -0.2463
     12 N           2.7064   -0.2858   19.7315 N.ar    1  UNL1       -0.2817
     13 C           3.2088   -0.9360   20.9864 C.ar    1  UNL1        0.0796
     14 C           2.8755   -0.7179   22.4326 C.ar    1  UNL1        0.0188
     15 C           3.5543   -1.5366   23.4904 C.ar    1  UNL1        0.0016
     16 C           4.5665   -2.5732   23.1021 C.ar    1  UNL1        0.0016
     17 C           4.8999   -2.7913   21.6559 C.ar    1  UNL1        0.0188
     18 C           4.2211   -1.9726   20.5981 C.ar    1  UNL1        0.0798
     19 C           5.2452   -2.8419   18.2872 C.3     1  UNL1        0.1425
     20 C           6.6475   -2.4037   17.9849 C.3     1  UNL1        0.1668
     21 C           6.8884    0.1724   17.7486 C.3     1  UNL1        0.1742
     22 O           6.8877   -1.1944   17.1306 O.3     1  UNL1       -0.3490
     23 C          -2.5336    4.1135   20.3932 C.3     1  UNL1        0.0795
     24 C          -2.4819    5.0199   21.5872 C.3     1  UNL1        0.0264
     25 C          -3.6247    5.0469   22.5585 C.3     1  UNL1        0.0729
     26 N          -4.8193    4.1675   22.3357 N.3     1  UNL1       -0.2689
     27 C          -4.8710    3.2610   21.1417 C.3     1  UNL1        0.0729
     28 C          -3.7282    3.2341   20.1705 C.3     1  UNL1        0.0264
     29 C          -5.9620    4.1945   23.3070 C.3     1  UNL1        0.0993
     30 C          -5.7193    4.5632   24.7406 C.ar    1  UNL1       -0.0018
     31 C          -4.6119    3.9033   25.5076 C.ar    1  UNL1        0.0179
     32 C          -4.3693    4.2720   26.9411 C.ar    1  UNL1        0.1000
     33 N          -5.2340    5.3005   27.6077 N.ar    1  UNL1       -0.2296
     34 C          -6.3414    5.9604   26.8407 C.ar    1  UNL1        0.1251
     35 N          -7.2061    6.9888   27.5074 N.pl3   1  UNL1       -0.3426
     36 C          -6.5841    5.5917   25.4071 C.ar    1  UNL1        0.0310
     37 H          -7.0468    7.2308   28.4483 H       1  UNL1        0.1437
     38 H          -7.9330    7.4219   27.0040 H       1  UNL1        0.1437
@<TRIPOS>BOND
     1    21    22    1
     2    22    20    1
     3    20    19    1
     4    19     9    1
     5     9    10   ar
     6    10    11    2
     7    10    12   ar
     8    12     1    1
     9     1     2    1
    10     2     3    1
    11     3     4    1
    12     4     5   am
    13     5     6    2
    14     5    23    1
    15    23    24    1
    16    24    25    1
    17    25    26    1
    18    26    29    1
    19    29    30    1
    20    30    31   ar
    21    31    32   ar
    22    32    33   ar
    23    33    34   ar
    24    34    35    1
    25    34    36   ar
    26    26    27    1
    27    27    28    1
    28     4     7    1
    29     7     8    1
    30    12    13   ar
    31    13    14   ar
    32    14    15   ar
    33    15    16   ar
    34    16    17   ar
    35    17    18   ar
    36    18     9   ar
    37     8     1    1
    38    18    13   ar
    39    28    23    1
    40    36    30   ar
    41    35    37    1
    42    35    38    1
@<TRIPOS>MOLECULE
*****
 38 42 0 0 0
SMALL
GASTEIGER

@<TRIPOS>ATOM
      1 C           2.7010    0.9708   19.2831 C.3     1  UNL1        0.0933
      2 C           3.3909    0.4679   20.5165 C.3     1  UNL1        0.0442
      3 C           4.5201   -0.5124   20.3974 C.3     1  UNL1        0.0953
      4 N           4.9593   -0.9897   19.0449 N.am    1  UNL1       -0.2794
      5 C           6.0884   -1.9699   18.9257 C.2     1  UNL1        0.2252
      6 O           6.5277   -2.4472   17.5732 O.2     1  UNL1       -0.2749
      7 C           4.2694   -0.4867   17.8116 C.3     1  UNL1        0.0953
      8 C           3.1402    0.4935   17.9307 C.3     1  UNL1        0.0442
      9 N          -0.5668    2.9514   19.9643 N.ar    1  UNL1       -0.2773
     10 C           0.2591    1.7050   20.0850 C.ar    1  UNL1        0.3316
     11 O          -0.1551    0.4356   20.7684 O.2     1  UNL1       -0.2463
     12 N           1.5718    1.9511   19.4023 N.ar    1  UNL1       -0.2817
     13 C           1.5573    3.3494   18.8598 C.ar    1  UNL1        0.0796
     14 C           2.5769    4.1397   18.0943 C.ar    1  UNL1        0.0188
     15 C           2.2747    5.5481   17.6762 C.ar    1  UNL1        0.0016
     16 C           0.9529    6.1663   18.0235 C.ar    1  UNL1        0.0016
     17 C          -0.0667    5.3761   18.7890 C.ar    1  UNL1        0.0188
     18 C           0.2355    3.9677   19.2071 C.ar    1  UNL1        0.0798
     19 C          -1.9519    3.1471   20.5058 C.3     1  UNL1        0.1425
     20 C          -3.0714    3.5272   19.5827 C.3     1  UNL1        0.1668
     21 C          -4.8181    3.0928   21.4563 C.3     1  UNL1        0.1742
     22 O          -4.4957    3.3328   20.0111 O.3     1  UNL1       -0.3490
     23 C           6.7783   -2.4728   20.1590 C.3     1  UNL1        0.0795
     24 C           8.0084   -1.7799   20.6657 C.3     1  UNL1        0.0264
     25 C           8.6982   -2.2829   21.8992 C.3     1  UNL1        0.0729
     26 N           8.1579   -3.4787   22.6258 N.3     1  UNL1       -0.2689
     27 C           6.9278   -4.1716   22.1191 C.3     1  UNL1        0.0729
     28 C           6.2380   -3.6686   20.8858 C.3     1  UNL1        0.0264
     29 C           8.8477   -3.9816   23.8592 C.3     1  UNL1        0.0993
     30 C           8.2558   -5.1179   24.6391 C.ar    1  UNL1       -0.0018
     31 C           8.6037   -6.5331   24.2838 C.ar    1  UNL1        0.0179
     32 C           8.0118   -7.6694   25.0638 C.ar    1  UNL1        0.1000
     33 N           7.0719   -7.3906   26.1991 N.ar    1  UNL1       -0.2296
     34 C           6.7240   -5.9754   26.5544 C.ar    1  UNL1        0.1251
     35 N           5.7841   -5.6967   27.6897 N.pl3   1  UNL1       -0.3426
     36 C           7.3159   -4.8391   25.7744 C.ar    1  UNL1        0.0310
     37 H           5.3956   -6.4425   28.2015 H       1  UNL1        0.1437
     38 H           5.5557   -4.7679   27.9229 H       1  UNL1        0.1437
@<TRIPOS>BOND
     1    21    22    1
     2    22    20    1
     3    20    19    1
     4    19     9    1
     5     9    10   ar
     6    10    11    2
     7    10    12   ar
     8    12     1    1
     9     1     2    1
    10     2     3    1
    11     3     4    1
    12     4     5   am
    13     5     6    2
    14     5    23    1
    15    23    24    1
    16    24    25    1
    17    25    26    1
    18    26    29    1
    19    29    30    1
    20    30    31   ar
    21    31    32   ar
    22    32    33   ar
    23    33    34   ar
    24    34    35    1
    25    34    36   ar
    26    26    27    1
    27    27    28    1
    28     4     7    1
    29     7     8    1
    30    12    13   ar
    31    13    14   ar
    32    14    15   ar
    33    15    16   ar
    34    16    17   ar
    35    17    18   ar
    36    18     9   ar
    37     8     1    1
    38    18    13   ar
    39    28    23    1
    40    36    30   ar
    41    35    37    1
    42    35    38    1
@<TRIPOS>MOLECULE
*****
 38 42 0 0 0
SMALL
GASTEIGER

@<TRIPOS>ATOM
      1 C         -15.3762   -3.3055   19.2590 C.3     1  UNL1        0.0933
      2 C         -14.8439   -2.0610   19.9058 C.3     1  UNL1        0.0442
      3 C         -15.7418   -0.8758   20.1037 C.3     1  UNL1        0.0953
      4 N         -17.1718   -0.9349   19.6548 N.am    1  UNL1       -0.2794
      5 C         -18.0696    0.2503   19.8527 C.2     1  UNL1        0.2252
      6 O         -19.4996    0.1912   19.4039 O.2     1  UNL1       -0.2749
      7 C         -17.7040   -2.1793   19.0081 C.3     1  UNL1        0.0953
      8 C         -16.8062   -3.3645   18.8102 C.3     1  UNL1        0.0442
      9 N         -13.6937   -6.7685   18.7673 N.ar    1  UNL1       -0.2773
     10 C         -14.9165   -5.9219   18.9621 C.ar    1  UNL1        0.3316
     11 O         -16.3293   -6.4191   19.0434 O.2     1  UNL1       -0.2463
     12 N         -14.4784   -4.4907   19.0612 N.ar    1  UNL1       -0.2817
     13 C         -12.9848   -4.4528   18.9276 C.ar    1  UNL1        0.0796
     14 C         -12.0038   -3.3183   18.9480 C.ar    1  UNL1        0.0188
     15 C         -10.5378   -3.5916   18.7867 C.ar    1  UNL1        0.0016
     16 C         -10.0528   -4.9994   18.6051 C.ar    1  UNL1        0.0016
     17 C         -11.0338   -6.1339   18.5847 C.ar    1  UNL1        0.0188
     18 C         -12.4998   -5.8606   18.7460 C.ar    1  UNL1        0.0798
     19 C         -13.6690   -8.2610   18.6197 C.3     1  UNL1        0.1425
     20 C         -14.7484   -8.9559   17.8440 C.3     1  UNL1        0.1668
     21 C         -16.7229  -10.5407   18.4271 C.3     1  UNL1        0.1742
     22 O         -15.2490  -10.2972   18.2918 O.3     1  UNL1       -0.3490
     23 C         -17.5373    1.4946   20.4995 C.3     1  UNL1        0.0795
     24 C         -16.8667    2.5455   19.6653 C.3     1  UNL1        0.0264
     25 C         -16.3344    3.7899   20.3121 C.3     1  UNL1        0.0729
     26 N         -16.4727    3.9833   21.7932 N.3     1  UNL1       -0.2689
     27 C         -17.1433    2.9324   22.6274 C.3     1  UNL1        0.0729
     28 C         -17.6756    1.6881   21.9805 C.3     1  UNL1        0.0264
     29 C         -15.9404    5.2276   22.4399 C.3     1  UNL1        0.0993
     30 C         -15.0461    5.1255   23.6398 C.ar    1  UNL1       -0.0018
     31 C         -13.5602    5.0234   23.4612 C.ar    1  UNL1        0.0179
     32 C         -12.6659    4.9214   24.6610 C.ar    1  UNL1        0.1000
     33 N         -13.2573    4.9214   26.0395 N.ar    1  UNL1       -0.2296
     34 C         -14.7432    5.0234   26.2181 C.ar    1  UNL1        0.1251
     35 N         -15.3345    5.0234   27.5965 N.pl3   1  UNL1       -0.3426
     36 C         -15.6375    5.1255   25.0182 C.ar    1  UNL1        0.0310
     37 H         -14.7475    4.9564   28.3840 H       1  UNL1        0.1437
     38 H         -16.3097    5.0904   27.7138 H       1  UNL1        0.1437
@<TRIPOS>BOND
     1    21    22    1
     2    22    20    1
     3    20    19    1
     4    19     9    1
     5     9    10   ar
     6    10    11    2
     7    10    12   ar
     8    12     1    1
     9     1     2    1
    10     2     3    1
    11     3     4    1
    12     4     5   am
    13     5     6    2
    14     5    23    1
    15    23    24    1
    16    24    25    1
    17    25    26    1
    18    26    29    1
    19    29    30    1
    20    30    31   ar
    21    31    32   ar
    22    32    33   ar
    23    33    34   ar
    24    34    35    1
    25    34    36   ar
    26    26    27    1
    27    27    28    1
    28     4     7    1
    29     7     8    1
    30    12    13   ar
    31    13    14   ar
    32    14    15   ar
    33    15    16   ar
    34    16    17   ar
    35    17    18   ar
    36    18     9   ar
    37     8     1    1
    38    18    13   ar
    39    28    23    1
    40    36    30   ar
    41    35    37    1
    42    35    38    1
@<TRIPOS>MOLECULE
*****
 38 42 0 0 0
SMALL
GASTEIGER

@<TRIPOS>ATOM
      1 C           6.9907   -4.5213   27.2375 C.3     1  UNL1        0.0933
      2 C           6.8893   -3.1970   27.9349 C.3     1  UNL1        0.0442
      3 C           6.7646   -3.1438   29.4288 C.3     1  UNL1        0.0953
      4 N           6.7414   -4.4146   30.2253 N.am    1  UNL1       -0.2794
      5 C           6.6167   -4.3613   31.7191 C.2     1  UNL1        0.2252
      6 O           6.5934   -5.6322   32.5156 O.2     1  UNL1       -0.2749
      7 C           6.8427   -5.7387   29.5279 C.3     1  UNL1        0.0953
      8 C           6.9674   -5.7920   28.0340 C.3     1  UNL1        0.0442
      9 N           6.8582   -4.0587   23.3860 N.ar    1  UNL1       -0.2773
     10 C           6.4621   -3.6385   24.7704 C.ar    1  UNL1        0.3316
     11 O           5.5696   -2.4848   25.1202 O.2     1  UNL1       -0.2463
     12 N           7.1153   -4.5746   25.7436 N.ar    1  UNL1       -0.2817
     13 C           7.9151   -5.5733   24.9607 C.ar    1  UNL1        0.0796
     14 C           8.7675   -6.7318   25.3864 C.ar    1  UNL1        0.0188
     15 C           9.4610   -7.5715   24.3549 C.ar    1  UNL1        0.0016
     16 C           9.3020   -7.2527   22.8978 C.ar    1  UNL1        0.0016
     17 C           8.4496   -6.0942   22.4722 C.ar    1  UNL1        0.0188
     18 C           7.7561   -5.2545   23.5036 C.ar    1  UNL1        0.0798
     19 C           6.4312   -3.3990   22.1083 C.3     1  UNL1        0.1425
     20 C           5.0952   -3.7216   21.5077 C.3     1  UNL1        0.1668
     21 C           5.0196   -3.6043   18.9134 C.3     1  UNL1        0.1742
     22 O           4.6520   -3.0332   20.2508 O.3     1  UNL1       -0.3490
     23 C           6.5154   -3.0372   32.4164 C.3     1  UNL1        0.0795
     24 C           7.7442   -2.2020   32.6225 C.3     1  UNL1        0.0264
     25 C           7.6427   -0.8777   33.3199 C.3     1  UNL1        0.0729
     26 N           6.3125   -0.3887   33.8111 N.3     1  UNL1       -0.2689
     27 C           5.0837   -1.2239   33.6050 C.3     1  UNL1        0.0729
     28 C           5.1851   -2.5481   32.9077 C.3     1  UNL1        0.0264
     29 C           6.2111    0.9354   34.5084 C.3     1  UNL1        0.0993
     30 C           4.9576    1.3001   35.2471 C.ar    1  UNL1       -0.0018
     31 C           3.9121    2.1435   34.5795 C.ar    1  UNL1        0.0179
     32 C           2.6586    2.5082   35.3182 C.ar    1  UNL1        0.1000
     33 N           2.4506    2.0296   36.7245 N.ar    1  UNL1       -0.2296
     34 C           3.4961    1.1862   37.3920 C.ar    1  UNL1        0.1251
     35 N           3.2880    0.7076   38.7983 N.pl3   1  UNL1       -0.3426
     36 C           4.7496    0.8215   36.6533 C.ar    1  UNL1        0.0310
     37 H           2.4653    0.9470   39.2831 H       1  UNL1        0.1437
     38 H           3.9742    0.1541   39.2365 H       1  UNL1        0.1437
@<TRIPOS>BOND
     1    21    22    1
     2    22    20    1
     3    20    19    1
     4    19     9    1
     5     9    10   ar
     6    10    11    2
     7    10    12   ar
     8    12     1    1
     9     1     2    1
    10     2     3    1
    11     3     4    1
    12     4     5   am
    13     5     6    2
    14     5    23    1
    15    23    24    1
    16    24    25    1
    17    25    26    1
    18    26    29    1
    19    29    30    1
    20    30    31   ar
    21    31    32   ar
    22    32    33   ar
    23    33    34   ar
    24    34    35    1
    25    34    36   ar
    26    26    27    1
    27    27    28    1
    28     4     7    1
    29     7     8    1
    30    12    13   ar
    31    13    14   ar
    32    14    15   ar
    33    15    16   ar
    34    16    17   ar
    35    17    18   ar
    36    18     9   ar
    37     8     1    1
    38    18    13   ar
    39    28    23    1
    40    36    30   ar
    41    35    37    1
    42    35    38    1
@<TRIPOS>MOLECULE
*****
 38 42 0 0 0
SMALL
GASTEIGER

@<TRIPOS>ATOM
      1 C         -15.8166   -3.2600   19.3306 C.3     1  UNL1        0.0933
      2 C         -15.1269   -1.9976   19.7557 C.3     1  UNL1        0.0442
      3 C         -15.9347   -0.7848   20.1114 C.3     1  UNL1        0.0953
      4 N         -17.4323   -0.8344   20.0420 N.am    1  UNL1       -0.2794
      5 C         -18.2402    0.3784   20.3977 C.2     1  UNL1        0.2252
      6 O         -19.7377    0.3288   20.3283 O.2     1  UNL1       -0.2749
      7 C         -18.1220   -2.0967   19.6169 C.3     1  UNL1        0.0953
      8 C         -17.3141   -3.3095   19.2612 C.3     1  UNL1        0.0442
      9 N         -13.1953   -5.8983   18.2201 N.ar    1  UNL1       -0.2773
     10 C         -13.6111   -4.4725   18.4301 C.ar    1  UNL1        0.3316
     11 O         -12.7760   -3.2594   18.1455 O.2     1  UNL1       -0.2463
     12 N         -15.0087   -4.4728   18.9748 N.ar    1  UNL1       -0.2817
     13 C         -15.4567   -5.8987   19.1014 C.ar    1  UNL1        0.0796
     14 C         -16.7403   -6.5087   19.5811 C.ar    1  UNL1        0.0188
     15 C         -16.9031   -7.9998   19.5943 C.ar    1  UNL1        0.0016
     16 C         -15.7824   -8.8808   19.1278 C.ar    1  UNL1        0.0016
     17 C         -14.4987   -8.2708   18.6481 C.ar    1  UNL1        0.0188
     18 C         -14.3359   -6.7798   18.6349 C.ar    1  UNL1        0.0798
     19 C         -11.8713   -6.3614   17.6884 C.3     1  UNL1        0.1425
     20 C         -10.8864   -7.0258   18.6040 C.3     1  UNL1        0.1668
     21 C          -9.7168   -4.7453   19.0300 C.3     1  UNL1        0.1742
     22 O          -9.7475   -6.2375   19.1797 O.3     1  UNL1       -0.3490
     23 C         -17.5504    1.6407   20.8229 C.3     1  UNL1        0.0795
     24 C         -16.9694    2.5619   19.7914 C.3     1  UNL1        0.0264
     25 C         -16.2796    3.8243   20.2167 C.3     1  UNL1        0.0729
     26 N         -16.1709    4.1654   21.6733 N.3     1  UNL1       -0.2689
     27 C         -16.7518    3.2442   22.7048 C.3     1  UNL1        0.0729
     28 C         -17.4416    1.9819   22.2795 C.3     1  UNL1        0.0264
     29 C         -15.4811    5.4277   22.0985 C.3     1  UNL1        0.0993
     30 C         -14.7440    5.4765   23.4039 C.ar    1  UNL1       -0.0018
     31 C         -15.3202    6.2352   24.5626 C.ar    1  UNL1        0.0179
     32 C         -14.5831    6.2841   25.8681 C.ar    1  UNL1        0.1000
     33 N         -13.2699    5.5742   26.0149 N.ar    1  UNL1       -0.2296
     34 C         -12.6937    4.8155   24.8563 C.ar    1  UNL1        0.1251
     35 N         -11.3805    4.1057   25.0032 N.pl3   1  UNL1       -0.3426
     36 C         -13.4308    4.7667   23.5508 C.ar    1  UNL1        0.0310
     37 H         -10.8968    4.1378   25.8601 H       1  UNL1        0.1437
     38 H         -11.0024    3.6077   24.2428 H       1  UNL1        0.1437
@<TRIPOS>BOND
     1    21    22    1
     2    22    20    1
     3    20    19    1
     4    19     9    1
     5     9    10   ar
     6    10    11    2
     7    10    12   ar
     8    12     1    1
     9     1     2    1
    10     2     3    1
    11     3     4    1
    12     4     5   am
    13     5     6    2
    14     5    23    1
    15    23    24    1
    16    24    25    1
    17    25    26    1
    18    26    29    1
    19    29    30    1
    20    30    31   ar
    21    31    32   ar
    22    32    33   ar
    23    33    34   ar
    24    34    35    1
    25    34    36   ar
    26    26    27    1
    27    27    28    1
    28     4     7    1
    29     7     8    1
    30    12    13   ar
    31    13    14   ar
    32    14    15   ar
    33    15    16   ar
    34    16    17   ar
    35    17    18   ar
    36    18     9   ar
    37     8     1    1
    38    18    13   ar
    39    28    23    1
    40    36    30   ar
    41    35    37    1
    42    35    38    1
@<TRIPOS>MOLECULE
*****
 38 42 0 0 0
SMALL
GASTEIGER

@<TRIPOS>ATOM
      1 C           8.0461   -4.0004   24.3914 C.3     1  UNL1        0.0933
      2 C           6.8234   -3.3480   23.8173 C.3     1  UNL1        0.0442
      3 C           6.8099   -2.9118   22.3822 C.3     1  UNL1        0.0953
      4 N           8.0190   -3.1280   21.5212 N.am    1  UNL1       -0.2794
      5 C           8.0055   -2.6918   20.0861 C.2     1  UNL1        0.2252
      6 O           9.2146   -2.9079   19.2251 O.2     1  UNL1       -0.2749
      7 C           9.2416   -3.7803   22.0953 C.3     1  UNL1        0.0953
      8 C           9.2551   -4.2165   23.5304 C.3     1  UNL1        0.0442
      9 N           7.9632   -4.3995   28.2513 N.ar    1  UNL1       -0.2773
     10 C           7.8778   -3.5467   27.0203 C.ar    1  UNL1        0.3316
     11 O           7.6506   -2.0644   26.9885 O.2     1  UNL1       -0.2463
     12 N           8.0596   -4.4366   25.8265 N.ar    1  UNL1       -0.2817
     13 C           8.2573   -5.8393   26.3198 C.ar    1  UNL1        0.0796
     14 C           8.4838   -7.1345   25.5980 C.ar    1  UNL1        0.0188
     15 C           8.6508   -8.4068   26.3748 C.ar    1  UNL1        0.0016
     16 C           8.5912   -8.3838   27.8735 C.ar    1  UNL1        0.0016
     17 C           8.3646   -7.0886   28.5953 C.ar    1  UNL1        0.0188
     18 C           8.1976   -5.8164   27.8185 C.ar    1  UNL1        0.0798
     19 C           7.8363   -3.9196   29.6668 C.3     1  UNL1        0.1425
     20 C           6.7956   -4.5129   30.5695 C.3     1  UNL1        0.1668
     21 C           5.8931   -2.9175   32.4108 C.3     1  UNL1        0.1742
     22 O           6.7269   -4.0980   32.0094 O.3     1  UNL1       -0.3490
     23 C           6.7828   -2.0395   19.5120 C.3     1  UNL1        0.0795
     24 C           6.5945   -0.5567   19.6381 C.3     1  UNL1        0.0264
     25 C           5.3717    0.0956   19.0640 C.3     1  UNL1        0.0729
     26 N           4.3374   -0.7349   18.3638 N.3     1  UNL1       -0.2689
     27 C           4.5257   -2.2177   18.2377 C.3     1  UNL1        0.0729
     28 C           5.7484   -2.8699   18.8118 C.3     1  UNL1        0.0264
     29 C           3.1147   -0.0826   17.7898 C.3     1  UNL1        0.0993
     30 C           2.0012    0.3524   18.6959 C.ar    1  UNL1       -0.0018
     31 C           1.5637   -0.5329   19.8249 C.ar    1  UNL1        0.0179
     32 C           0.4502   -0.0979   20.7310 C.ar    1  UNL1        0.1000
     33 N          -0.2257    1.2225   20.5079 N.ar    1  UNL1       -0.2296
     34 C           0.2118    2.1078   19.3789 C.ar    1  UNL1        0.1251
     35 N          -0.4642    3.4281   19.1559 N.pl3   1  UNL1       -0.3426
     36 C           1.3253    1.6728   18.4728 C.ar    1  UNL1        0.0310
     37 H          -1.1950    3.7136   19.7506 H       1  UNL1        0.1437
     38 H          -0.1771    4.0092   18.4149 H       1  UNL1        0.1437
@<TRIPOS>BOND
     1    21    22    1
     2    22    20    1
     3    20    19    1
     4    19     9    1
     5     9    10   ar
     6    10    11    2
     7    10    12   ar
     8    12     1    1
     9     1     2    1
    10     2     3    1
    11     3     4    1
    12     4     5   am
    13     5     6    2
    14     5    23    1
    15    23    24    1
    16    24    25    1
    17    25    26    1
    18    26    29    1
    19    29    30    1
    20    30    31   ar
    21    31    32   ar
    22    32    33   ar
    23    33    34   ar
    24    34    35    1
    25    34    36   ar
    26    26    27    1
    27    27    28    1
    28     4     7    1
    29     7     8    1
    30    12    13   ar
    31    13    14   ar
    32    14    15   ar
    33    15    16   ar
    34    16    17   ar
    35    17    18   ar
    36    18     9   ar
    37     8     1    1
    38    18    13   ar
    39    28    23    1
    40    36    30   ar
    41    35    37    1
    42    35    38    1
@<TRIPOS>MOLECULE
*****
 38 42 0 0 0
SMALL
GASTEIGER

@<TRIPOS>ATOM
      1 C           6.4806   -2.9886   26.8847 C.3     1  UNL1        0.0933
      2 C           6.4219   -1.8684   27.8807 C.3     1  UNL1        0.0442
      3 C           6.4853   -2.1667   29.3494 C.3     1  UNL1        0.0953
      4 N           6.6074   -3.5850   29.8222 N.am    1  UNL1       -0.2794
      5 C           6.6708   -3.8832   31.2909 C.2     1  UNL1        0.2252
      6 O           6.7929   -5.3015   31.7636 O.2     1  UNL1       -0.2749
      7 C           6.6661   -4.7051   28.8262 C.3     1  UNL1        0.0953
      8 C           6.6027   -4.4068   27.3575 C.3     1  UNL1        0.0442
      9 N           6.9835   -2.5665   23.0593 N.ar    1  UNL1       -0.2773
     10 C           7.4542   -3.0573   24.3963 C.ar    1  UNL1        0.3316
     11 O           8.7368   -3.7868   24.6662 O.2     1  UNL1       -0.2463
     12 N           6.4172   -2.6904   25.4160 N.ar    1  UNL1       -0.2817
     13 C           5.3055   -1.9729   24.7093 C.ar    1  UNL1        0.0796
     14 C           4.0198   -1.3794   25.2039 C.ar    1  UNL1        0.0188
     15 C           3.0841   -0.7094   24.2419 C.ar    1  UNL1        0.0016
     16 C           3.4341   -0.6328   22.7853 C.ar    1  UNL1        0.0016
     17 C           4.7198   -1.2263   22.2907 C.ar    1  UNL1        0.0188
     18 C           5.6555   -1.8963   23.2527 C.ar    1  UNL1        0.0798
     19 C           7.7127   -2.7191   21.7574 C.3     1  UNL1        0.1425
     20 C           7.5979   -3.9959   20.9786 C.3     1  UNL1        0.1668
     21 C           5.2672   -3.9306   19.8324 C.3     1  UNL1        0.1742
     22 O           6.2504   -4.6098   20.7391 O.3     1  UNL1       -0.3490
     23 C           6.6121   -2.7631   32.2867 C.3     1  UNL1        0.0795
     24 C           5.3037   -2.3873   32.9167 C.3     1  UNL1        0.0264
     25 C           5.2451   -1.2671   33.9127 C.3     1  UNL1        0.0729
     26 N           6.4949   -0.5227   34.2786 N.3     1  UNL1       -0.2689
     27 C           7.8033   -0.8985   33.6486 C.3     1  UNL1        0.0729
     28 C           7.8619   -2.0186   32.6527 C.3     1  UNL1        0.0264
     29 C           6.4362    0.5974   35.2744 C.3     1  UNL1        0.0993
     30 C           5.1130    1.0514   35.8155 C.ar    1  UNL1       -0.0018
     31 C           4.2777    2.0237   35.0363 C.ar    1  UNL1        0.0179
     32 C           2.9545    2.4777   35.5774 C.ar    1  UNL1        0.1000
     33 N           2.4664    1.9595   36.8977 N.ar    1  UNL1       -0.2296
     34 C           3.3016    0.9873   37.6769 C.ar    1  UNL1        0.1251
     35 N           2.8135    0.4691   38.9972 N.pl3   1  UNL1       -0.3426
     36 C           4.6249    0.5332   37.1358 C.ar    1  UNL1        0.0310
     37 H           1.9450    0.7671   39.3523 H       1  UNL1        0.1437
     38 H           3.3616   -0.1690   39.5087 H       1  UNL1        0.1437
@<TRIPOS>BOND
     1    21    22    1
     2    22    20    1
     3    20    19    1
     4    19     9    1
     5     9    10   ar
     6    10    11    2
     7    10    12   ar
     8    12     1    1
     9     1     2    1
    10     2     3    1
    11     3     4    1
    12     4     5   am
    13     5     6    2
    14     5    23    1
    15    23    24    1
    16    24    25    1
    17    25    26    1
    18    26    29    1
    19    29    30    1
    20    30    31   ar
    21    31    32   ar
    22    32    33   ar
    23    33    34   ar
    24    34    35    1
    25    34    36   ar
    26    26    27    1
    27    27    28    1
    28     4     7    1
    29     7     8    1
    30    12    13   ar
    31    13    14   ar
    32    14    15   ar
    33    15    16   ar
    34    16    17   ar
    35    17    18   ar
    36    18     9   ar
    37     8     1    1
    38    18    13   ar
    39    28    23    1
    40    36    30   ar
    41    35    37    1
    42    35    38    1
@<TRIPOS>MOLECULE
*****
 38 42 0 0 0
SMALL
GASTEIGER

@<TRIPOS>ATOM
      1 C           6.4419   -3.1192   26.7063 C.3     1  UNL1        0.0933
      2 C           5.6341   -2.3706   25.6878 C.3     1  UNL1        0.0442
      3 C           5.7766   -2.6967   24.2306 C.3     1  UNL1        0.0953
      4 N           6.7267   -3.7712   23.7919 N.am    1  UNL1       -0.2794
      5 C           6.8692   -4.0972   22.3347 C.2     1  UNL1        0.2252
      6 O           7.8194   -5.1718   21.8959 O.2     1  UNL1       -0.2749
      7 C           7.5345   -4.5197   24.8103 C.3     1  UNL1        0.0953
      8 C           7.3920   -4.1937   26.2675 C.3     1  UNL1        0.0442
      9 N           5.8664   -1.5948   30.2291 N.ar    1  UNL1       -0.2773
     10 C           5.8696   -1.4742   28.7340 C.ar    1  UNL1        0.3316
     11 O           5.5067   -0.2496   27.9474 O.2     1  UNL1       -0.2463
     12 N           6.2995   -2.7932   28.1635 N.ar    1  UNL1       -0.2817
     13 C           6.5619   -3.7290   29.3061 C.ar    1  UNL1        0.0796
     14 C           7.0100   -5.1598   29.3489 C.ar    1  UNL1        0.0188
     15 C           7.1905   -5.8500   30.6684 C.ar    1  UNL1        0.0016
     16 C           6.9228   -5.1093   31.9450 C.ar    1  UNL1        0.0016
     17 C           6.4747   -3.6785   31.9022 C.ar    1  UNL1        0.0188
     18 C           6.2942   -2.9883   30.5827 C.ar    1  UNL1        0.0798
     19 C           5.4997   -0.5120   31.2002 C.3     1  UNL1        0.1425
     20 C           4.0798   -0.3676   31.6616 C.3     1  UNL1        0.1668
     21 C           4.5300   -1.3799   34.0116 C.3     1  UNL1        0.1742
     22 O           3.6000   -1.1287   32.8618 O.3     1  UNL1       -0.3490
     23 C           6.0614   -3.3487   21.3163 C.3     1  UNL1        0.0795
     24 C           4.6799   -3.8151   20.9645 C.3     1  UNL1        0.0264
     25 C           3.8721   -3.0665   19.9460 C.3     1  UNL1        0.0729
     26 N           4.4459   -1.8514   19.2794 N.3     1  UNL1       -0.2689
     27 C           5.8274   -1.3849   19.6313 C.3     1  UNL1        0.0729
     28 C           6.6351   -2.1336   20.6497 C.3     1  UNL1        0.0264
     29 C           3.6381   -1.1029   18.2611 C.3     1  UNL1        0.0993
     30 C           2.8770    0.1256   18.6630 C.ar    1  UNL1       -0.0018
     31 C           3.3912    1.4833   18.2860 C.ar    1  UNL1        0.0179
     32 C           2.6300    2.7118   18.6879 C.ar    1  UNL1        0.1000
     33 N           1.3547    2.5825   19.4669 N.ar    1  UNL1       -0.2296
     34 C           0.8405    1.2247   19.8439 C.ar    1  UNL1        0.1251
     35 N          -0.4348    1.0955   20.6229 N.pl3   1  UNL1       -0.3426
     36 C           1.6017   -0.0037   19.4420 C.ar    1  UNL1        0.0310
     37 H          -0.9343    1.9019   20.8867 H       1  UNL1        0.1437
     38 H          -0.7723    0.2044   20.8704 H       1  UNL1        0.1437
@<TRIPOS>BOND
     1    21    22    1
     2    22    20    1
     3    20    19    1
     4    19     9    1
     5     9    10   ar
     6    10    11    2
     7    10    12   ar
     8    12     1    1
     9     1     2    1
    10     2     3    1
    11     3     4    1
    12     4     5   am
    13     5     6    2
    14     5    23    1
    15    23    24    1
    16    24    25    1
    17    25    26    1
    18    26    29    1
    19    29    30    1
    20    30    31   ar
    21    31    32   ar
    22    32    33   ar
    23    33    34   ar
    24    34    35    1
    25    34    36   ar
    26    26    27    1
    27    27    28    1
    28     4     7    1
    29     7     8    1
    30    12    13   ar
    31    13    14   ar
    32    14    15   ar
    33    15    16   ar
    34    16    17   ar
    35    17    18   ar
    36    18     9   ar
    37     8     1    1
    38    18    13   ar
    39    28    23    1
    40    36    30   ar
    41    35    37    1
    42    35    38    1
@<TRIPOS>MOLECULE
*****
 38 42 0 0 0
SMALL
GASTEIGER

@<TRIPOS>ATOM
      1 C           2.3877    0.3058   24.2588 C.3     1  UNL1        0.0933
      2 C           3.3533   -0.1352   25.3187 C.3     1  UNL1        0.0442
      3 C           3.0802    0.1792   26.7598 C.3     1  UNL1        0.0953
      4 N           1.8415    0.9346   27.1409 N.am    1  UNL1       -0.2794
      5 C           1.5684    1.2490   28.5819 C.2     1  UNL1        0.2252
      6 O           0.3298    2.0043   28.9630 O.2     1  UNL1       -0.2749
      7 C           0.8760    1.3755   26.0810 C.3     1  UNL1        0.0953
      8 C           1.1492    1.0610   24.6400 C.3     1  UNL1        0.0442
      9 N           2.7538    0.1511   20.3978 N.ar    1  UNL1       -0.2773
     10 C           2.2916    0.8480   21.6431 C.ar    1  UNL1        0.3316
     11 O           1.5843    2.1694   21.7032 O.2     1  UNL1       -0.2463
     12 N           2.6609   -0.0086   22.8178 N.ar    1  UNL1       -0.2817
     13 C           3.3512   -1.2349   22.2984 C.ar    1  UNL1        0.0796
     14 C           3.9350   -2.4286   22.9942 C.ar    1  UNL1        0.0188
     15 C           4.5762   -3.5236   22.1944 C.ar    1  UNL1        0.0016
     16 C           4.6336   -3.4249   20.6987 C.ar    1  UNL1        0.0016
     17 C           4.0498   -2.2311   20.0029 C.ar    1  UNL1        0.0188
     18 C           3.4087   -1.1362   20.8028 C.ar    1  UNL1        0.0798
     19 C           2.5898    0.6534   18.9939 C.3     1  UNL1        0.1425
     20 C           1.2681    0.5168   18.2980 C.3     1  UNL1        0.1668
     21 C           0.9282    3.0906   18.4003 C.3     1  UNL1        0.1742
     22 O           0.3935    1.7203   18.1063 O.3     1  UNL1       -0.3490
     23 C           2.5339    0.8080   29.6417 C.3     1  UNL1        0.0795
     24 C           3.6966    1.6822   30.0077 C.3     1  UNL1        0.0264
     25 C           4.6622    1.2412   31.0676 C.3     1  UNL1        0.0729
     26 N           4.4650   -0.0740   31.7615 N.3     1  UNL1       -0.2689
     27 C           3.3023   -0.9482   31.3955 C.3     1  UNL1        0.0729
     28 C           2.3368   -0.5072   30.3356 C.3     1  UNL1        0.0264
     29 C           5.4305   -0.5149   32.8213 C.3     1  UNL1        0.0993
     30 C           6.4312   -1.5919   32.5232 C.ar    1  UNL1       -0.0018
     31 C           7.8649   -1.2334   32.2665 C.ar    1  UNL1        0.0179
     32 C           8.8655   -2.3104   31.9684 C.ar    1  UNL1        0.1000
     33 N           8.4324   -3.7459   31.9270 N.ar    1  UNL1       -0.2296
     34 C           6.9986   -4.1044   32.1837 C.ar    1  UNL1        0.1251
     35 N           6.5656   -5.5399   32.1422 N.pl3   1  UNL1       -0.3426
     36 C           5.9980   -3.0274   32.4818 C.ar    1  UNL1        0.0310
     37 H           7.2224   -6.2467   31.9465 H       1  UNL1        0.1437
     38 H           5.6246   -5.7753   32.3107 H       1  UNL1        0.1437
@<TRIPOS>BOND
     1    21    22    1
     2    22    20    1
     3    20    19    1
     4    19     9    1
     5     9    10   ar
     6    10    11    2
     7    10    12   ar
     8    12     1    1
     9     1     2    1
    10     2     3    1
    11     3     4    1
    12     4     5   am
    13     5     6    2
    14     5    23    1
    15    23    24    1
    16    24    25    1
    17    25    26    1
    18    26    29    1
    19    29    30    1
    20    30    31   ar
    21    31    32   ar
    22    32    33   ar
    23    33    34   ar
    24    34    35    1
    25    34    36   ar
    26    26    27    1
    27    27    28    1
    28     4     7    1
    29     7     8    1
    30    12    13   ar
    31    13    14   ar
    32    14    15   ar
    33    15    16   ar
    34    16    17   ar
    35    17    18   ar
    36    18     9   ar
    37     8     1    1
    38    18    13   ar
    39    28    23    1
    40    36    30   ar
    41    35    37    1
    42    35    38    1
