@<TRIPOS>MOLECULE
*****
 28 30 0 0 0
SMALL
GASTEIGER

@<TRIPOS>ATOM
      1 C          -7.9472  -19.4892   20.2234 C.ar    1  UNL1        0.0828
      2 C          -9.1473  -19.5450   19.3251 C.ar    1  UNL1        0.1208
      3 N         -10.3263  -19.0263   20.0938 N.ar    1  UNL1       -0.1923
      4 C          -9.8550  -18.6498   21.4672 C.ar    1  UNL1        0.3055
      5 N          -8.3846  -18.9358   21.5473 N.ar    1  UNL1       -0.2795
      6 C          -7.5060  -18.7085   22.7415 C.3     1  UNL1        0.1351
      7 C          -5.3951  -19.0073   20.1564 C.2     1  UNL1       -0.0054
      8 C          -6.5545  -19.9123   19.8614 C.2     1  UNL1        0.0160
      9 C          -4.0023  -19.4304   19.7944 C.3     1  UNL1        0.0939
     10 C          -3.6595  -20.8882   19.7097 C.3     1  UNL1        0.0262
     11 C          -0.7304  -17.2153   20.1648 C.3     1  UNL1        0.0946
     12 C          -1.7803  -18.2500   20.4419 C.2     1  UNL1        0.2232
     13 O          -1.6583  -19.1391   21.6439 O.2     1  UNL1       -0.2751
     14 N          -2.9524  -18.3957   19.5172 N.am    1  UNL1       -0.3022
     15 H          -3.0325  -17.8121   18.7283 H       1  UNL1        0.1497
     16 O         -10.7047  -18.0862   22.5672 O.3     1  UNL1       -0.4226
     17 C         -10.0594  -17.4923   23.7841 C.ar    1  UNL1        0.1593
     18 C          -9.6361  -16.0532   23.7818 C.ar    1  UNL1        0.0416
     19 C          -8.9907  -15.4593   24.9986 C.ar    1  UNL1        0.0401
     20 C          -8.7687  -16.3045   26.2179 C.ar    1  UNL1        0.1396
     21 C          -9.1920  -17.7435   26.2202 C.ar    1  UNL1        0.0514
     22 C          -9.8374  -18.3374   25.0033 C.ar    1  UNL1        0.0952
     23 CL        -10.2607  -19.7764   25.0057 Cl      1  UNL1       -0.0790
     24 O          -8.1234  -15.7106   27.4348 O.3     1  UNL1       -0.4754
     25 C          -6.7260  -15.1711   27.3549 C.3     1  UNL1        0.2053
     26 C          -5.8437  -15.5421   26.1999 C.3     1  UNL1        0.0438
     27 C          -5.4295  -15.3578   24.7701 C.3     1  UNL1        0.0038
     28 C          -4.7298  -16.3689   25.6293 C.3     1  UNL1        0.0038
@<TRIPOS>BOND
     1    11    12    1
     2    12    13    2
     3    12    14   am
     4    14     9    1
     5     9    10    1
     6     9     7    1
     7     7     8    2
     8     8     1    1
     9     1     2   ar
    10     2     3   ar
    11     3     4   ar
    12     4    16    1
    13    16    17    1
    14    17    18   ar
    15    18    19   ar
    16    19    20   ar
    17    20    24    1
    18    24    25    1
    19    25    26    1
    20    26    27    1
    21    27    28    1
    22    20    21   ar
    23    21    22   ar
    24    22    23    1
    25     4     5   ar
    26     5     6    1
    27     5     1   ar
    28    22    17   ar
    29    28    26    1
    30    14    15    1
@<TRIPOS>MOLECULE
*****
 28 30 0 0 0
SMALL
GASTEIGER

@<TRIPOS>ATOM
      1 C          -5.3828  -15.8653   24.4271 C.ar    1  UNL1        0.0828
      2 C          -5.3542  -15.2570   25.7980 C.ar    1  UNL1        0.1208
      3 N          -6.7467  -15.3012   26.3539 N.ar    1  UNL1       -0.1923
      4 C          -7.6359  -15.9368   25.3267 C.ar    1  UNL1        0.3055
      5 N          -6.7930  -16.2854   24.1359 N.ar    1  UNL1       -0.2795
      6 C          -7.2756  -16.9394   22.8751 C.3     1  UNL1        0.1351
      7 C          -3.9034  -17.3650   22.9066 C.2     1  UNL1       -0.0054
      8 C          -4.2077  -16.0253   23.5088 C.2     1  UNL1        0.0160
      9 C          -2.7282  -17.5251   21.9883 C.3     1  UNL1        0.0939
     10 C          -1.7492  -16.4011   21.8202 C.3     1  UNL1        0.0262
     11 C          -3.4390  -20.6356   19.6285 C.3     1  UNL1        0.0946
     12 C          -3.6351  -19.3516   20.3787 C.2     1  UNL1        0.2232
     13 O          -4.9345  -18.6101   20.2694 O.2     1  UNL1       -0.2751
     14 N          -2.5320  -18.8091   21.2382 N.am    1  UNL1       -0.3022
     15 H          -1.6792  -19.2958   21.3099 H       1  UNL1        0.1497
     16 O          -9.1093  -16.1809   25.4658 O.3     1  UNL1       -0.4226
     17 C          -9.8858  -16.7567   24.3188 C.ar    1  UNL1        0.1593
     18 C         -10.3061  -15.8753   23.1801 C.ar    1  UNL1        0.0416
     19 C         -11.0826  -16.4511   22.0331 C.ar    1  UNL1        0.0401
     20 C         -11.4387  -17.9082   22.0249 C.ar    1  UNL1        0.1396
     21 C         -11.0184  -18.7895   23.1635 C.ar    1  UNL1        0.0514
     22 C         -10.2420  -18.2137   24.3105 C.ar    1  UNL1        0.0952
     23 CL         -9.8217  -19.0951   25.4493 Cl      1  UNL1       -0.0790
     24 O         -12.2152  -18.4840   20.8779 O.3     1  UNL1       -0.4754
     25 C         -11.5229  -18.7931   19.5835 C.3     1  UNL1        0.2053
     26 C         -10.0949  -19.2524   19.5878 C.3     1  UNL1        0.0438
     27 C          -8.7565  -19.3274   20.2609 C.3     1  UNL1        0.0038
     28 C          -8.9600  -19.9728   18.9222 C.3     1  UNL1        0.0038
@<TRIPOS>BOND
     1    11    12    1
     2    12    13    2
     3    12    14   am
     4    14     9    1
     5     9    10    1
     6     9     7    1
     7     7     8    2
     8     8     1    1
     9     1     2   ar
    10     2     3   ar
    11     3     4   ar
    12     4    16    1
    13    16    17    1
    14    17    18   ar
    15    18    19   ar
    16    19    20   ar
    17    20    24    1
    18    24    25    1
    19    25    26    1
    20    26    27    1
    21    27    28    1
    22    20    21   ar
    23    21    22   ar
    24    22    23    1
    25     4     5   ar
    26     5     6    1
    27     5     1   ar
    28    22    17   ar
    29    28    26    1
    30    14    15    1
@<TRIPOS>MOLECULE
*****
 28 30 0 0 0
SMALL
GASTEIGER

@<TRIPOS>ATOM
      1 C          -8.3896  -15.7735   24.6809 C.ar    1  UNL1        0.0828
      2 C          -7.8943  -15.5674   26.0817 C.ar    1  UNL1        0.1208
      3 N          -6.3955  -15.5228   26.0415 N.ar    1  UNL1       -0.1923
      4 C          -5.9645  -15.7014   24.6159 C.ar    1  UNL1        0.3055
      5 N          -7.1970  -15.8563   23.7750 N.ar    1  UNL1       -0.2795
      6 C          -7.2308  -16.0585   22.2891 C.3     1  UNL1        0.1351
      7 C         -10.2726  -17.0209   23.3969 C.2     1  UNL1       -0.0054
      8 C          -9.8255  -15.8783   24.2599 C.2     1  UNL1        0.0160
      9 C         -11.7085  -17.1258   22.9760 C.3     1  UNL1        0.0939
     10 C         -12.6493  -18.0147   23.7341 C.3     1  UNL1        0.0262
     11 C         -12.0133  -15.6874   19.2899 C.3     1  UNL1        0.0946
     12 C         -11.5183  -16.4714   20.4689 C.2     1  UNL1        0.2232
     13 O         -10.3381  -17.3851   20.3199 O.2     1  UNL1       -0.2751
     14 N         -12.2035  -16.3417   21.7969 N.am    1  UNL1       -0.3022
     15 H         -12.9781  -15.7420   21.8947 H       1  UNL1        0.1497
     16 O          -4.5495  -15.7215   24.1185 O.3     1  UNL1       -0.4226
     17 C          -4.0592  -16.8776   23.2982 C.ar    1  UNL1        0.1593
     18 C          -4.6385  -18.2453   23.5082 C.ar    1  UNL1        0.0416
     19 C          -4.1482  -19.4015   22.6879 C.ar    1  UNL1        0.0401
     20 C          -3.0787  -19.1899   21.6576 C.ar    1  UNL1        0.1396
     21 C          -2.4995  -17.8223   21.4476 C.ar    1  UNL1        0.0514
     22 C          -2.9898  -16.6662   22.2680 C.ar    1  UNL1        0.0952
     23 CL         -2.4106  -15.2985   22.0580 Cl      1  UNL1       -0.0790
     24 O          -2.5884  -20.3461   20.8372 O.3     1  UNL1       -0.4754
     25 C          -3.4876  -20.9747   19.8143 C.3     1  UNL1        0.2053
     26 C          -4.9767  -20.8564   19.9508 C.3     1  UNL1        0.0438
     27 C          -6.3115  -21.4887   20.2123 C.3     1  UNL1        0.0038
     28 C          -6.2210  -20.0191   19.9257 C.3     1  UNL1        0.0038
@<TRIPOS>BOND
     1    11    12    1
     2    12    13    2
     3    12    14   am
     4    14     9    1
     5     9    10    1
     6     9     7    1
     7     7     8    2
     8     8     1    1
     9     1     2   ar
    10     2     3   ar
    11     3     4   ar
    12     4    16    1
    13    16    17    1
    14    17    18   ar
    15    18    19   ar
    16    19    20   ar
    17    20    24    1
    18    24    25    1
    19    25    26    1
    20    26    27    1
    21    27    28    1
    22    20    21   ar
    23    21    22   ar
    24    22    23    1
    25     4     5   ar
    26     5     6    1
    27     5     1   ar
    28    22    17   ar
    29    28    26    1
    30    14    15    1
@<TRIPOS>MOLECULE
*****
 28 30 0 0 0
SMALL
GASTEIGER

@<TRIPOS>ATOM
      1 C           6.8493   -3.9985   25.6900 C.ar    1  UNL1        0.0828
      2 C           6.0052   -2.8100   25.3363 C.ar    1  UNL1        0.1208
      3 N           5.7294   -2.8594   23.8627 N.ar    1  UNL1       -0.1923
      4 C           6.4030   -4.0784   23.3056 C.ar    1  UNL1        0.3055
      5 N           7.0952   -4.7824   24.4349 N.ar    1  UNL1       -0.2795
      6 C           7.8931   -6.0480   24.3280 C.3     1  UNL1        0.1351
      7 C           6.7403   -5.4736   27.8259 C.2     1  UNL1       -0.0054
      8 C           7.3582   -4.3426   27.0584 C.2     1  UNL1        0.0160
      9 C           7.2492   -5.8177   29.1943 C.3     1  UNL1        0.0939
     10 C           8.4683   -6.6783   29.3466 C.3     1  UNL1        0.0262
     11 C           6.2539   -3.4880   32.2490 C.3     1  UNL1        0.0946
     12 C           6.9640   -4.0045   31.0330 C.2     1  UNL1        0.2232
     13 O           8.0993   -3.2242   30.4395 O.2     1  UNL1       -0.2751
     14 N           6.5390   -5.3013   30.4104 N.am    1  UNL1       -0.3022
     15 H           5.7939   -5.8134   30.7999 H       1  UNL1        0.1497
     16 O           6.3873   -4.5165   21.8711 O.3     1  UNL1       -0.4226
     17 C           5.6808   -3.6859   20.8410 C.ar    1  UNL1        0.1593
     18 C           4.3020   -4.0655   20.3885 C.ar    1  UNL1        0.0416
     19 C           3.5955   -3.2350   19.3583 C.ar    1  UNL1        0.0401
     20 C           4.2679   -2.0249   18.7808 C.ar    1  UNL1        0.1396
     21 C           5.6467   -1.6453   19.2333 C.ar    1  UNL1        0.0514
     22 C           6.3532   -2.4759   20.2634 C.ar    1  UNL1        0.0952
     23 CL          7.7320   -2.0963   20.7160 Cl      1  UNL1       -0.0790
     24 O           3.5615   -1.1943   17.7507 O.3     1  UNL1       -0.4754
     25 C           2.7908    0.0229   18.1685 C.3     1  UNL1        0.2053
     26 C           1.9097   -0.0271   19.3814 C.3     1  UNL1        0.0438
     27 C           0.5802    0.2158   20.0321 C.3     1  UNL1        0.0038
     28 C           1.7131   -0.3566   20.8315 C.3     1  UNL1        0.0038
@<TRIPOS>BOND
     1    11    12    1
     2    12    13    2
     3    12    14   am
     4    14     9    1
     5     9    10    1
     6     9     7    1
     7     7     8    2
     8     8     1    1
     9     1     2   ar
    10     2     3   ar
    11     3     4   ar
    12     4    16    1
    13    16    17    1
    14    17    18   ar
    15    18    19   ar
    16    19    20   ar
    17    20    24    1
    18    24    25    1
    19    25    26    1
    20    26    27    1
    21    27    28    1
    22    20    21   ar
    23    21    22   ar
    24    22    23    1
    25     4     5   ar
    26     5     6    1
    27     5     1   ar
    28    22    17   ar
    29    28    26    1
    30    14    15    1
@<TRIPOS>MOLECULE
*****
 28 30 0 0 0
SMALL
GASTEIGER

@<TRIPOS>ATOM
      1 C           5.1787   -1.9920   25.1804 C.ar    1  UNL1        0.0828
      2 C           6.2293   -2.9425   25.6732 C.ar    1  UNL1        0.1208
      3 N           6.5306   -3.9130   24.5699 N.ar    1  UNL1       -0.1923
      4 C           5.6663   -3.5624   23.3952 C.ar    1  UNL1        0.3055
      5 N           4.8307   -2.3752   23.7725 N.ar    1  UNL1       -0.2795
      6 C           3.8240   -1.6912   22.8959 C.3     1  UNL1        0.1351
      7 C           3.4366   -1.1111   26.8948 C.2     1  UNL1       -0.0054
      8 C           4.5810   -0.8576   25.9588 C.2     1  UNL1        0.0160
      9 C           2.8389    0.0233   27.6732 C.3     1  UNL1        0.0939
     10 C           3.7300    0.9793   28.4095 C.3     1  UNL1        0.0262
     11 C          -0.8938    0.0852   29.0194 C.3     1  UNL1        0.0946
     12 C           0.5949   -0.0932   28.9772 C.2     1  UNL1        0.2232
     13 O           1.3283   -0.5664   30.1971 O.2     1  UNL1       -0.2751
     14 N           1.3501    0.2017   27.7152 N.am    1  UNL1       -0.3022
     15 H           0.8688    0.5123   26.9146 H       1  UNL1        0.1497
     16 O           5.6418   -4.2741   22.0751 O.3     1  UNL1       -0.4226
     17 C           5.9009   -3.5138   20.8083 C.ar    1  UNL1        0.1593
     18 C           6.9953   -2.4891   20.7591 C.ar    1  UNL1        0.0416
     19 C           7.2544   -1.7288   19.4922 C.ar    1  UNL1        0.0401
     20 C           6.4192   -1.9933   18.2746 C.ar    1  UNL1        0.1396
     21 C           5.3249   -3.0180   18.3239 C.ar    1  UNL1        0.0514
     22 C           5.0657   -3.7783   19.5907 C.ar    1  UNL1        0.0952
     23 CL          3.9714   -4.8030   19.6399 Cl      1  UNL1       -0.0790
     24 O           6.6783   -1.2330   17.0078 O.3     1  UNL1       -0.4754
     25 C           6.1406    0.1578   16.8445 C.3     1  UNL1        0.2053
     26 C           4.9601    0.6054   17.6544 C.3     1  UNL1        0.0438
     27 C           3.5399    0.4127   18.0966 C.3     1  UNL1        0.0038
     28 C           4.3358    1.5736   18.6151 C.3     1  UNL1        0.0038
@<TRIPOS>BOND
     1    11    12    1
     2    12    13    2
     3    12    14   am
     4    14     9    1
     5     9    10    1
     6     9     7    1
     7     7     8    2
     8     8     1    1
     9     1     2   ar
    10     2     3   ar
    11     3     4   ar
    12     4    16    1
    13    16    17    1
    14    17    18   ar
    15    18    19   ar
    16    19    20   ar
    17    20    24    1
    18    24    25    1
    19    25    26    1
    20    26    27    1
    21    27    28    1
    22    20    21   ar
    23    21    22   ar
    24    22    23    1
    25     4     5   ar
    26     5     6    1
    27     5     1   ar
    28    22    17   ar
    29    28    26    1
    30    14    15    1
@<TRIPOS>MOLECULE
*****
 28 30 0 0 0
SMALL
GASTEIGER

@<TRIPOS>ATOM
      1 C           5.2631   -1.0556   34.5679 C.ar    1  UNL1        0.0828
      2 C           4.2065   -1.8487   33.8574 C.ar    1  UNL1        0.1208
      3 N           4.7567   -2.2653   32.5256 N.ar    1  UNL1       -0.1923
      4 C           6.1532   -1.7297   32.4130 C.ar    1  UNL1        0.3055
      5 N           6.4662   -0.9821   33.6752 N.ar    1  UNL1       -0.2795
      6 C           7.7559   -0.2836   33.9894 C.3     1  UNL1        0.1351
      7 C           4.3025    0.7864   36.1282 C.2     1  UNL1       -0.0054
      8 C           5.1384   -0.4435   35.9317 C.2     1  UNL1        0.0160
      9 C           4.1778    1.3985   37.4919 C.3     1  UNL1        0.0939
     10 C           4.8098    2.7284   37.7777 C.3     1  UNL1        0.0262
     11 C           1.2316    0.3142   39.9196 C.3     1  UNL1        0.0946
     12 C           1.9884    1.0320   38.8417 C.2     1  UNL1        0.2232
     13 O           1.3125    2.1014   38.0357 O.2     1  UNL1       -0.2751
     14 N           3.4210    0.6805   38.5698 N.am    1  UNL1       -0.3022
     15 H           3.8646   -0.0213   39.0988 H       1  UNL1        0.1497
     16 O           7.0750   -1.9101   31.2435 O.3     1  UNL1       -0.4226
     17 C           7.4472   -3.2899   30.7877 C.ar    1  UNL1        0.1593
     18 C           6.5945   -4.0025   29.7801 C.ar    1  UNL1        0.0416
     19 C           6.9668   -5.3822   29.3244 C.ar    1  UNL1        0.0401
     20 C           8.1917   -6.0494   29.8763 C.ar    1  UNL1        0.1396
     21 C           9.0444   -5.3368   30.8838 C.ar    1  UNL1        0.0514
     22 C           8.6721   -3.9570   31.3395 C.ar    1  UNL1        0.0952
     23 CL          9.5248   -3.2444   32.3471 Cl      1  UNL1       -0.0790
     24 O           8.5640   -7.4292   29.4205 O.3     1  UNL1       -0.4754
     25 C           9.4168   -7.6113   28.2000 C.3     1  UNL1        0.2053
     26 C           8.7875   -7.6101   26.8384 C.3     1  UNL1        0.0438
     27 C           7.5813   -7.4307   25.9650 C.3     1  UNL1        0.0038
     28 C           8.9037   -7.7874   25.3535 C.3     1  UNL1        0.0038
@<TRIPOS>BOND
     1    11    12    1
     2    12    13    2
     3    12    14   am
     4    14     9    1
     5     9    10    1
     6     9     7    1
     7     7     8    2
     8     8     1    1
     9     1     2   ar
    10     2     3   ar
    11     3     4   ar
    12     4    16    1
    13    16    17    1
    14    17    18   ar
    15    18    19   ar
    16    19    20   ar
    17    20    24    1
    18    24    25    1
    19    25    26    1
    20    26    27    1
    21    27    28    1
    22    20    21   ar
    23    21    22   ar
    24    22    23    1
    25     4     5   ar
    26     5     6    1
    27     5     1   ar
    28    22    17   ar
    29    28    26    1
    30    14    15    1
@<TRIPOS>MOLECULE
*****
 28 30 0 0 0
SMALL
GASTEIGER

@<TRIPOS>ATOM
      1 C           6.9935   -4.0441   25.3873 C.ar    1  UNL1        0.0828
      2 C           6.1562   -2.8775   24.9534 C.ar    1  UNL1        0.1208
      3 N           5.9568   -2.9762   23.4700 N.ar    1  UNL1       -0.1923
      4 C           6.6707   -4.2038   22.9871 C.ar    1  UNL1        0.3055
      5 N           7.3114   -4.8638   24.1720 N.ar    1  UNL1       -0.2795
      6 C           8.1269   -6.1225   24.1461 C.3     1  UNL1        0.1351
      7 C           6.7729   -5.4362   27.5698 C.2     1  UNL1       -0.0054
      8 C           7.4351   -4.3391   26.7901 C.2     1  UNL1        0.0160
      9 C           7.2146   -5.7312   28.9726 C.3     1  UNL1        0.0939
     10 C           8.4096   -6.6050   29.2145 C.3     1  UNL1        0.0262
     11 C           6.1959   -3.3175   31.9535 C.3     1  UNL1        0.0946
     12 C           6.9491   -3.8964   30.7927 C.2     1  UNL1        0.2232
     13 O           8.1900   -3.2192   30.2911 O.2     1  UNL1       -0.2751
     14 N           6.4614   -5.1523   30.1334 N.am    1  UNL1       -0.3022
     15 H           5.6469   -5.5968   30.4626 H       1  UNL1        0.1497
     16 O           6.7330   -4.6867   21.5683 O.3     1  UNL1       -0.4226
     17 C           6.3468   -3.7693   20.4462 C.ar    1  UNL1        0.1593
     18 C           7.3117   -2.7270   19.9636 C.ar    1  UNL1        0.0416
     19 C           6.9255   -1.8096   18.8415 C.ar    1  UNL1        0.0401
     20 C           5.5744   -1.9344   18.2019 C.ar    1  UNL1        0.1396
     21 C           4.6096   -2.9767   18.6844 C.ar    1  UNL1        0.0514
     22 C           4.9958   -3.8941   19.8066 C.ar    1  UNL1        0.0952
     23 CL          4.0309   -4.9363   20.2891 Cl      1  UNL1       -0.0790
     24 O           5.1881   -1.0170   17.0798 O.3     1  UNL1       -0.4754
     25 C           3.7429   -0.6978   16.8356 C.3     1  UNL1        0.2053
     26 C           2.9746    0.1132   17.8366 C.3     1  UNL1        0.0438
     27 C           1.9916    0.1893   18.9670 C.3     1  UNL1        0.0038
     28 C           2.6267    1.4418   18.4397 C.3     1  UNL1        0.0038
@<TRIPOS>BOND
     1    11    12    1
     2    12    13    2
     3    12    14   am
     4    14     9    1
     5     9    10    1
     6     9     7    1
     7     7     8    2
     8     8     1    1
     9     1     2   ar
    10     2     3   ar
    11     3     4   ar
    12     4    16    1
    13    16    17    1
    14    17    18   ar
    15    18    19   ar
    16    19    20   ar
    17    20    24    1
    18    24    25    1
    19    25    26    1
    20    26    27    1
    21    27    28    1
    22    20    21   ar
    23    21    22   ar
    24    22    23    1
    25     4     5   ar
    26     5     6    1
    27     5     1   ar
    28    22    17   ar
    29    28    26    1
    30    14    15    1
@<TRIPOS>MOLECULE
*****
 28 30 0 0 0
SMALL
GASTEIGER

@<TRIPOS>ATOM
      1 C          -4.8417  -16.6206   24.0180 C.ar    1  UNL1        0.0828
      2 C          -4.6663  -15.4567   24.9478 C.ar    1  UNL1        0.1208
      3 N          -6.0198  -14.8671   25.2128 N.ar    1  UNL1       -0.1923
      4 C          -7.0318  -15.6665   24.4468 C.ar    1  UNL1        0.3055
      5 N          -6.3036  -16.7503   23.7083 N.ar    1  UNL1       -0.2795
      6 C          -6.9278  -17.7825   22.8168 C.3     1  UNL1        0.1351
      7 C          -3.6575  -17.7861   22.0206 C.2     1  UNL1       -0.0054
      8 C          -3.7473  -17.5004   23.4904 C.2     1  UNL1        0.0160
      9 C          -2.5631  -18.6658   21.4931 C.3     1  UNL1        0.0939
     10 C          -2.8737  -20.0643   21.0483 C.3     1  UNL1        0.0262
     11 C           0.8742  -17.3726   19.9892 C.3     1  UNL1        0.0946
     12 C          -0.5307  -17.8913   20.0721 C.2     1  UNL1        0.2232
     13 O          -1.3084  -18.1542   18.8166 O.2     1  UNL1       -0.2751
     14 N          -1.1581  -18.1471   21.4103 N.am    1  UNL1       -0.3022
     15 H          -0.6477  -17.9746   22.2343 H       1  UNL1        0.1497
     16 O          -8.5119  -15.4247   24.4233 O.3     1  UNL1       -0.4226
     17 C          -9.3823  -16.1921   23.4728 C.ar    1  UNL1        0.1593
     18 C         -10.2288  -17.3230   23.9775 C.ar    1  UNL1        0.0416
     19 C         -11.0992  -18.0905   23.0270 C.ar    1  UNL1        0.0401
     20 C         -11.1231  -17.7270   21.5718 C.ar    1  UNL1        0.1396
     21 C         -10.2766  -16.5962   21.0672 C.ar    1  UNL1        0.0514
     22 C          -9.4062  -15.8288   22.0177 C.ar    1  UNL1        0.0952
     23 CL         -8.5597  -14.6979   21.5131 Cl      1  UNL1       -0.0790
     24 O         -11.9934  -18.4945   20.6213 O.3     1  UNL1       -0.4754
     25 C         -11.4062  -19.0759   19.3694 C.3     1  UNL1        0.2053
     26 C          -9.9798  -19.5399   19.3554 C.3     1  UNL1        0.0438
     27 C          -8.6254  -19.5952   19.9976 C.3     1  UNL1        0.0038
     28 C          -8.8638  -20.2883   18.6888 C.3     1  UNL1        0.0038
@<TRIPOS>BOND
     1    11    12    1
     2    12    13    2
     3    12    14   am
     4    14     9    1
     5     9    10    1
     6     9     7    1
     7     7     8    2
     8     8     1    1
     9     1     2   ar
    10     2     3   ar
    11     3     4   ar
    12     4    16    1
    13    16    17    1
    14    17    18   ar
    15    18    19   ar
    16    19    20   ar
    17    20    24    1
    18    24    25    1
    19    25    26    1
    20    26    27    1
    21    27    28    1
    22    20    21   ar
    23    21    22   ar
    24    22    23    1
    25     4     5   ar
    26     5     6    1
    27     5     1   ar
    28    22    17   ar
    29    28    26    1
    30    14    15    1
@<TRIPOS>MOLECULE
*****
 28 30 0 0 0
SMALL
GASTEIGER

@<TRIPOS>ATOM
      1 C          -8.7060  -16.6509   24.8118 C.ar    1  UNL1        0.0828
      2 C          -8.6377  -15.9419   26.1320 C.ar    1  UNL1        0.1208
      3 N          -7.3184  -15.2325   26.2095 N.ar    1  UNL1       -0.1923
      4 C          -6.5711  -15.5031   24.9374 C.ar    1  UNL1        0.3055
      5 N          -7.4287  -16.3797   24.0735 N.ar    1  UNL1       -0.2795
      6 C          -7.0717  -16.8947   22.7107 C.3     1  UNL1        0.1351
      7 C         -10.7285  -16.9736   23.2134 C.2     1  UNL1       -0.0054
      8 C          -9.8504  -17.4847   24.3169 C.2     1  UNL1        0.0160
      9 C         -11.8730  -17.8074   22.7185 C.3     1  UNL1        0.0939
     10 C         -13.2469  -17.6079   23.2865 C.3     1  UNL1        0.0262
     11 C         -10.5396  -19.5576   19.4157 C.3     1  UNL1        0.0946
     12 C         -10.7691  -18.5244   20.4786 C.2     1  UNL1        0.2232
     13 O         -10.1240  -17.1750   20.3646 O.2     1  UNL1       -0.2751
     14 N         -11.6436  -18.8406   21.6556 N.am    1  UNL1       -0.3022
     15 H         -12.0670  -19.7263   21.7304 H       1  UNL1        0.1497
     16 O          -5.2060  -14.9876   24.5900 O.3     1  UNL1       -0.4226
     17 C          -4.2412  -15.8620   23.8453 C.ar    1  UNL1        0.1593
     18 C          -3.7539  -15.4538   22.4866 C.ar    1  UNL1        0.0416
     19 C          -2.7891  -16.3282   21.7420 C.ar    1  UNL1        0.0401
     20 C          -2.3115  -17.6108   22.3560 C.ar    1  UNL1        0.1396
     21 C          -2.7988  -18.0189   23.7146 C.ar    1  UNL1        0.0514
     22 C          -3.7637  -17.1445   24.4593 C.ar    1  UNL1        0.0952
     23 CL         -4.2509  -17.5528   25.8180 Cl      1  UNL1       -0.0790
     24 O          -1.3467  -18.4852   21.6113 O.3     1  UNL1       -0.4754
     25 C          -1.7496  -19.1046   20.3059 C.3     1  UNL1        0.2053
     26 C          -3.1725  -19.5235   20.0820 C.3     1  UNL1        0.0438
     27 C          -4.2145  -20.6004   20.0161 C.3     1  UNL1        0.0038
     28 C          -4.5947  -19.1721   19.7602 C.3     1  UNL1        0.0038
@<TRIPOS>BOND
     1    11    12    1
     2    12    13    2
     3    12    14   am
     4    14     9    1
     5     9    10    1
     6     9     7    1
     7     7     8    2
     8     8     1    1
     9     1     2   ar
    10     2     3   ar
    11     3     4   ar
    12     4    16    1
    13    16    17    1
    14    17    18   ar
    15    18    19   ar
    16    19    20   ar
    17    20    24    1
    18    24    25    1
    19    25    26    1
    20    26    27    1
    21    27    28    1
    22    20    21   ar
    23    21    22   ar
    24    22    23    1
    25     4     5   ar
    26     5     6    1
    27     5     1   ar
    28    22    17   ar
    29    28    26    1
    30    14    15    1
