@<TRIPOS>MOLECULE
*****
 36 39 0 0 0
SMALL
GASTEIGER

@<TRIPOS>ATOM
      1 N           6.8757   -3.7501   22.2951 N.ar    1  UNL1       -0.2459
      2 C           6.3046   -3.3971   23.6365 C.ar    1  UNL1        0.1116
      3 C           6.7535   -4.4373   24.6197 C.ar    1  UNL1        0.0908
      4 C           7.6020   -5.4331   23.8860 C.ar    1  UNL1        0.1363
      5 N           7.6775   -5.0084   22.4493 N.ar    1  UNL1       -0.1661
      6 N           6.4135   -4.4749   26.0802 N.am    1  UNL1       -0.2766
      7 C           7.4307   -4.0517   27.0981 C.2     1  UNL1        0.2706
      8 O           8.7878   -3.5909   26.6556 O.2     1  UNL1       -0.2680
      9 H           5.5228   -4.7774   26.3706 H       1  UNL1        0.1553
     10 C           7.0907   -4.0894   28.5586 C.ar    1  UNL1        0.1764
     11 C           6.7761   -2.9034   29.4215 C.ar    1  UNL1        0.0688
     12 C           6.4966   -3.4008   30.8088 C.ar    1  UNL1        0.1945
     13 O           6.6385   -4.8940   30.8033 O.2     1  UNL1       -0.3517
     14 N           7.0057   -5.3197   29.4125 N.ar    1  UNL1       -0.0722
     15 C           6.1382   -2.5535   31.9936 C.ar    1  UNL1        0.1184
     16 C           7.1226   -1.5552   32.5271 C.ar    1  UNL1        0.0223
     17 C           6.7642   -0.7080   33.7118 C.ar    1  UNL1        0.0032
     18 C           5.4214   -0.8589   34.3631 C.ar    1  UNL1        0.0207
     19 C           4.4371   -1.8572   33.8297 C.ar    1  UNL1        0.0989
     20 N           4.7954   -2.7045   32.6449 N.ar    1  UNL1       -0.2407
     21 C           7.7644   -2.9531   19.9875 C.3     1  UNL1        0.0312
     22 C           6.6794   -2.9800   21.0229 C.3     1  UNL1        0.1274
     23 C           5.3981   -2.2368   20.7862 C.ar    1  UNL1        0.0038
     24 C           5.2150   -0.8590   21.3502 C.ar    1  UNL1       -0.0025
     25 C           3.9338   -0.1159   21.1134 C.ar    1  UNL1        0.0036
     26 C           2.8356   -0.7506   20.3127 C.ar    1  UNL1        0.0714
     27 C           3.0186   -2.1284   19.7487 C.ar    1  UNL1        0.0074
     28 C           4.2999   -2.8715   19.9855 C.ar    1  UNL1        0.0692
     29 C           1.5543   -0.0074   20.0759 C.3     1  UNL1        0.4186
     30 F           0.2730    0.7358   19.8392 F       1  UNL1       -0.1659
     31 F           0.7924   -1.2974   20.1496 F       1  UNL1       -0.1659
     32 F           2.3161    1.2826   20.0023 F       1  UNL1       -0.1659
     33 C           4.4830   -4.2494   19.4215 C.3     1  UNL1        0.4183
     34 F           4.6661   -5.6272   18.8576 F       1  UNL1       -0.1659
     35 F           3.9041   -4.8387   20.6735 F       1  UNL1       -0.1659
     36 F           5.0620   -3.6601   18.1696 F       1  UNL1       -0.1659
@<TRIPOS>BOND
     1    22    21    1
     2    22    23    1
     3    23    24   ar
     4    24    25   ar
     5    25    26   ar
     6    26    29    1
     7    29    30    1
     8    29    31    1
     9    29    32    1
    10    26    27   ar
    11    27    28   ar
    12    28    33    1
    13    33    34    1
    14    33    35    1
    15    33    36    1
    16    22     1    1
    17     1     2   ar
    18     2     3   ar
    19     3     6    1
    20     6     7   am
    21     7     8    2
    22     7    10    1
    23    10    11   ar
    24    11    12   ar
    25    12    15    1
    26    15    16   ar
    27    16    17   ar
    28    17    18   ar
    29    18    19   ar
    30    19    20   ar
    31    12    13   ar
    32    13    14   ar
    33     3     4   ar
    34     4     5   ar
    35    28    23   ar
    36     5     1   ar
    37    14    10   ar
    38    20    15   ar
    39     6     9    1
@<TRIPOS>MOLECULE
*****
 36 39 0 0 0
SMALL
GASTEIGER

@<TRIPOS>ATOM
      1 N           2.4631    0.8516   22.9292 N.ar    1  UNL1       -0.2459
      2 C           2.8613    0.4840   24.3279 C.ar    1  UNL1        0.1116
      3 C           1.6882    0.7413   25.2266 C.ar    1  UNL1        0.0908
      4 C           0.5650    1.2679   24.3834 C.ar    1  UNL1        0.1363
      5 N           1.0439    1.3360   22.9635 N.ar    1  UNL1       -0.1661
      6 N           1.6459    0.5122   26.7084 N.am    1  UNL1       -0.2766
      7 C           1.8730    1.6567   27.6510 C.2     1  UNL1        0.2706
      8 O           2.1425    3.0303   27.1118 O.2     1  UNL1       -0.2680
      9 H           1.4690   -0.3893   27.0623 H       1  UNL1        0.1553
     10 C           1.8307    1.4276   29.1328 C.ar    1  UNL1        0.1764
     11 C           2.9206    0.8155   29.9619 C.ar    1  UNL1        0.0688
     12 C           2.4544    0.7800   31.3872 C.ar    1  UNL1        0.1945
     13 O           1.0764    1.3703   31.4390 O.2     1  UNL1       -0.3517
     14 N           0.6908    1.7706   30.0457 N.ar    1  UNL1       -0.0722
     15 C           3.2301    0.2478   32.5555 C.ar    1  UNL1        0.1184
     16 C           3.5788    1.1533   33.6995 C.ar    1  UNL1        0.0223
     17 C           4.3545    0.6211   34.8677 C.ar    1  UNL1        0.0032
     18 C           4.7815   -0.8167   34.8922 C.ar    1  UNL1        0.0207
     19 C           4.4328   -1.7221   33.7483 C.ar    1  UNL1        0.0989
     20 N           3.6571   -1.1899   32.5799 N.ar    1  UNL1       -0.2407
     21 C           3.9130    1.9930   21.1004 C.3     1  UNL1        0.0312
     22 C           3.3316    0.7521   21.7103 C.3     1  UNL1        0.1274
     23 C           3.6185   -0.5883   21.1012 C.ar    1  UNL1        0.0038
     24 C           4.7459   -1.4257   21.6281 C.ar    1  UNL1       -0.0025
     25 C           5.0329   -2.7661   21.0191 C.ar    1  UNL1        0.0036
     26 C           4.1924   -3.2691   19.8830 C.ar    1  UNL1        0.0714
     27 C           3.0650   -2.4317   19.3560 C.ar    1  UNL1        0.0074
     28 C           2.7781   -1.0913   19.9651 C.ar    1  UNL1        0.0692
     29 C           4.4794   -4.6095   19.2739 C.3     1  UNL1        0.4186
     30 F           4.7664   -5.9499   18.6649 F       1  UNL1       -0.1659
     31 F           3.0360   -4.7436   18.8887 F       1  UNL1       -0.1659
     32 F           5.9228   -4.4755   19.6592 F       1  UNL1       -0.1659
     33 C           1.6506   -0.2539   19.4382 C.3     1  UNL1        0.4183
     34 F           0.5232    0.5835   18.9113 F       1  UNL1       -0.1659
     35 F           0.7216   -0.8751   20.4387 F       1  UNL1       -0.1659
     36 F           2.5796    0.3673   18.4377 F       1  UNL1       -0.1659
@<TRIPOS>BOND
     1    22    21    1
     2    22    23    1
     3    23    24   ar
     4    24    25   ar
     5    25    26   ar
     6    26    29    1
     7    29    30    1
     8    29    31    1
     9    29    32    1
    10    26    27   ar
    11    27    28   ar
    12    28    33    1
    13    33    34    1
    14    33    35    1
    15    33    36    1
    16    22     1    1
    17     1     2   ar
    18     2     3   ar
    19     3     6    1
    20     6     7   am
    21     7     8    2
    22     7    10    1
    23    10    11   ar
    24    11    12   ar
    25    12    15    1
    26    15    16   ar
    27    16    17   ar
    28    17    18   ar
    29    18    19   ar
    30    19    20   ar
    31    12    13   ar
    32    13    14   ar
    33     3     4   ar
    34     4     5   ar
    35    28    23   ar
    36     5     1   ar
    37    14    10   ar
    38    20    15   ar
    39     6     9    1
@<TRIPOS>MOLECULE
*****
 36 39 0 0 0
SMALL
GASTEIGER

@<TRIPOS>ATOM
      1 N           2.6227    0.9275   22.9015 N.ar    1  UNL1       -0.2459
      2 C           1.1901    1.3631   22.9903 C.ar    1  UNL1        0.1116
      3 C           0.7876    1.3411   24.4352 C.ar    1  UNL1        0.0908
      4 C           1.9715    0.8920   25.2393 C.ar    1  UNL1        0.1363
      5 N           3.1057    0.6364   24.2915 N.ar    1  UNL1       -0.1661
      6 N          -0.5618    1.7045   24.9801 N.am    1  UNL1       -0.2766
      7 C          -1.0330    3.1276   24.9285 C.2     1  UNL1        0.2706
      8 O          -0.1549    4.1873   24.3319 O.2     1  UNL1       -0.2680
      9 H          -1.1381    1.0090   25.3717 H       1  UNL1        0.1553
     10 C          -2.3825    3.4910   25.4735 C.ar    1  UNL1        0.1764
     11 C          -3.5309    4.0478   24.6854 C.ar    1  UNL1        0.0688
     12 C          -4.6786    4.2623   25.6271 C.ar    1  UNL1        0.1945
     13 O          -4.2395    3.8381   26.9972 O.2     1  UNL1       -0.3517
     14 N          -2.8203    3.3614   26.9023 N.ar    1  UNL1       -0.0722
     15 C          -6.0284    4.8056   25.2626 C.ar    1  UNL1        0.1184
     16 C          -6.6618    5.8702   26.1086 C.ar    1  UNL1        0.0223
     17 C          -8.0115    6.4135   25.7442 C.ar    1  UNL1        0.0032
     18 C          -8.7280    5.8923   24.5338 C.ar    1  UNL1        0.0207
     19 C          -8.0946    4.8278   23.6878 C.ar    1  UNL1        0.0989
     20 N          -6.7448    4.2844   24.0522 N.ar    1  UNL1       -0.2407
     21 C           3.9698    2.0346   20.9755 C.3     1  UNL1        0.0312
     22 C           3.4306    0.8047   21.6436 C.3     1  UNL1        0.1274
     23 C           3.6991   -0.5481   21.0538 C.ar    1  UNL1        0.0038
     24 C           4.8495   -1.3699   21.5551 C.ar    1  UNL1       -0.0025
     25 C           5.1180   -2.7227   20.9654 C.ar    1  UNL1        0.0036
     26 C           4.2361   -3.2537   19.8743 C.ar    1  UNL1        0.0714
     27 C           3.0858   -2.4319   19.3730 C.ar    1  UNL1        0.0074
     28 C           2.8173   -1.0791   19.9628 C.ar    1  UNL1        0.0692
     29 C           4.5047   -4.6065   19.2846 C.3     1  UNL1        0.4186
     30 F           4.7733   -5.9593   18.6948 F       1  UNL1       -0.1659
     31 F           3.0837   -4.6820   18.8103 F       1  UNL1       -0.1659
     32 F           5.9257   -4.5311   19.7588 F       1  UNL1       -0.1659
     33 C           1.6669   -0.2573   19.4615 C.3     1  UNL1        0.4183
     34 F           0.5165    0.5645   18.9603 F       1  UNL1       -0.1659
     35 F           0.7786   -0.8626   20.5077 F       1  UNL1       -0.1659
     36 F           2.5552    0.3480   18.4153 F       1  UNL1       -0.1659
@<TRIPOS>BOND
     1    22    21    1
     2    22    23    1
     3    23    24   ar
     4    24    25   ar
     5    25    26   ar
     6    26    29    1
     7    29    30    1
     8    29    31    1
     9    29    32    1
    10    26    27   ar
    11    27    28   ar
    12    28    33    1
    13    33    34    1
    14    33    35    1
    15    33    36    1
    16    22     1    1
    17     1     2   ar
    18     2     3   ar
    19     3     6    1
    20     6     7   am
    21     7     8    2
    22     7    10    1
    23    10    11   ar
    24    11    12   ar
    25    12    15    1
    26    15    16   ar
    27    16    17   ar
    28    17    18   ar
    29    18    19   ar
    30    19    20   ar
    31    12    13   ar
    32    13    14   ar
    33     3     4   ar
    34     4     5   ar
    35    28    23   ar
    36     5     1   ar
    37    14    10   ar
    38    20    15   ar
    39     6     9    1
@<TRIPOS>MOLECULE
*****
 36 39 0 0 0
SMALL
GASTEIGER

@<TRIPOS>ATOM
      1 N           2.4042    0.8507   22.9352 N.ar    1  UNL1       -0.2459
      2 C           2.7993    0.6115   24.3623 C.ar    1  UNL1        0.1116
      3 C           1.5858    0.8167   25.2198 C.ar    1  UNL1        0.0908
      4 C           0.4408    1.1829   24.3227 C.ar    1  UNL1        0.1363
      5 N           0.9466    1.2039   22.9107 N.ar    1  UNL1       -0.1661
      6 N           1.5276    0.6799   26.7125 N.am    1  UNL1       -0.2766
      7 C           1.4689    1.9048   27.5761 C.2     1  UNL1        0.2706
      8 O           1.4683    3.2667   26.9472 O.2     1  UNL1       -0.2680
      9 H           1.5280   -0.2139   27.1252 H       1  UNL1        0.1553
     10 C           1.4107    1.7680   29.0688 C.ar    1  UNL1        0.1764
     11 C           1.4912    2.8902   30.0608 C.ar    1  UNL1        0.0688
     12 C           1.3920    2.3006   31.4366 C.ar    1  UNL1        0.1945
     13 O           1.2503    0.8141   31.2947 O.2     1  UNL1       -0.3517
     14 N           1.2618    0.4848   29.8313 N.ar    1  UNL1       -0.0722
     15 C           1.4283    3.0636   32.7275 C.ar    1  UNL1        0.1184
     16 C           0.7192    4.3807   32.8404 C.ar    1  UNL1        0.0223
     17 C           0.7554    5.1438   34.1312 C.ar    1  UNL1        0.0032
     18 C           1.5007    4.5898   35.3093 C.ar    1  UNL1        0.0207
     19 C           2.2097    3.2728   35.1964 C.ar    1  UNL1        0.0989
     20 N           2.1735    2.5097   33.9055 N.ar    1  UNL1       -0.2407
     21 C           3.9357    1.9922   21.1740 C.3     1  UNL1        0.0312
     22 C           3.3081    0.7539   21.7420 C.3     1  UNL1        0.1274
     23 C           3.5843   -0.5814   21.1168 C.ar    1  UNL1        0.0038
     24 C           4.7039   -1.4348   21.6346 C.ar    1  UNL1       -0.0025
     25 C           4.9801   -2.7700   21.0093 C.ar    1  UNL1        0.0036
     26 C           4.1366   -3.2518   19.8664 C.ar    1  UNL1        0.0714
     27 C           3.0170   -2.3985   19.3486 C.ar    1  UNL1        0.0074
     28 C           2.7408   -1.0633   19.9738 C.ar    1  UNL1        0.0692
     29 C           4.4128   -4.5871   19.2412 C.3     1  UNL1        0.4186
     30 F           4.6891   -5.9223   18.6159 F       1  UNL1       -0.1659
     31 F           3.5304   -5.2464   20.2593 F       1  UNL1       -0.1659
     32 F           5.2953   -3.9278   18.2231 F       1  UNL1       -0.1659
     33 C           1.6211   -0.2098   19.4560 C.3     1  UNL1        0.4183
     34 F           0.5016    0.6436   18.9383 F       1  UNL1       -0.1659
     35 F           2.5654    0.4433   18.4907 F       1  UNL1       -0.1659
     36 F           0.6769   -0.8629   20.4214 F       1  UNL1       -0.1659
@<TRIPOS>BOND
     1    22    21    1
     2    22    23    1
     3    23    24   ar
     4    24    25   ar
     5    25    26   ar
     6    26    29    1
     7    29    30    1
     8    29    31    1
     9    29    32    1
    10    26    27   ar
    11    27    28   ar
    12    28    33    1
    13    33    34    1
    14    33    35    1
    15    33    36    1
    16    22     1    1
    17     1     2   ar
    18     2     3   ar
    19     3     6    1
    20     6     7   am
    21     7     8    2
    22     7    10    1
    23    10    11   ar
    24    11    12   ar
    25    12    15    1
    26    15    16   ar
    27    16    17   ar
    28    17    18   ar
    29    18    19   ar
    30    19    20   ar
    31    12    13   ar
    32    13    14   ar
    33     3     4   ar
    34     4     5   ar
    35    28    23   ar
    36     5     1   ar
    37    14    10   ar
    38    20    15   ar
    39     6     9    1
@<TRIPOS>MOLECULE
*****
 36 39 0 0 0
SMALL
GASTEIGER

@<TRIPOS>ATOM
      1 N           4.7984    0.6805   33.2994 N.ar    1  UNL1       -0.2459
      2 C           5.7882   -0.1995   32.5952 C.ar    1  UNL1        0.1116
      3 C           5.0336   -1.0692   31.6339 C.ar    1  UNL1        0.0908
      4 C           3.5774   -0.7267   31.7439 C.ar    1  UNL1        0.1363
      5 N           3.4321    0.3547   32.7732 N.ar    1  UNL1       -0.1661
      6 N           5.6305   -2.1003   30.7226 N.am    1  UNL1       -0.2766
      7 C           6.1609   -3.3843   31.2883 C.2     1  UNL1        0.2706
      8 O           6.0945   -3.6370   32.7654 O.2     1  UNL1       -0.2680
      9 H           5.6741   -1.9344   29.7531 H       1  UNL1        0.1553
     10 C           6.7578   -4.4154   30.3770 C.ar    1  UNL1        0.1764
     11 C           6.7485   -4.3781   28.8775 C.ar    1  UNL1        0.0688
     12 C           7.4537   -5.6046   28.3790 C.ar    1  UNL1        0.1945
     13 O           7.8988   -6.3999   29.5704 O.2     1  UNL1       -0.3517
     14 N           7.4687   -5.6649   30.8053 N.ar    1  UNL1       -0.0722
     15 C           7.6749   -5.9714   26.9415 C.ar    1  UNL1        0.1184
     16 C           8.1010   -7.3634   26.5796 C.ar    1  UNL1        0.0223
     17 C           8.3222   -7.7302   25.1421 C.ar    1  UNL1        0.0032
     18 C           8.1174   -6.7050   24.0664 C.ar    1  UNL1        0.0207
     19 C           7.6914   -5.3131   24.4283 C.ar    1  UNL1        0.0989
     20 N           7.4702   -4.9462   25.8658 N.ar    1  UNL1       -0.2407
     21 C           6.3023    2.6111   34.1719 C.3     1  UNL1        0.0312
     22 C           5.1187    1.7063   34.3459 C.3     1  UNL1        0.1274
     23 C           4.2553    1.8272   35.5666 C.ar    1  UNL1        0.0038
     24 C           3.0827    2.7625   35.5662 C.ar    1  UNL1       -0.0025
     25 C           2.2194    2.8834   36.7868 C.ar    1  UNL1        0.0036
     26 C           2.5287    2.0690   38.0079 C.ar    1  UNL1        0.0714
     27 C           3.7013    1.1336   38.0083 C.ar    1  UNL1        0.0074
     28 C           4.5646    1.0127   36.7877 C.ar    1  UNL1        0.0692
     29 C           1.6652    2.1899   39.2286 C.3     1  UNL1        0.4186
     30 F           0.8019    2.3108   40.4492 F       1  UNL1       -0.1659
     31 F           0.8637    1.0044   38.7792 F       1  UNL1       -0.1659
     32 F           2.4668    3.3754   39.6780 F       1  UNL1       -0.1659
     33 C           5.7373    0.0774   36.7881 C.3     1  UNL1        0.4183
     34 F           6.9099   -0.8580   36.7884 F       1  UNL1       -0.1659
     35 F           4.9099   -0.9601   36.0889 F       1  UNL1       -0.1659
     36 F           6.5647    1.1149   37.4873 F       1  UNL1       -0.1659
@<TRIPOS>BOND
     1    22    21    1
     2    22    23    1
     3    23    24   ar
     4    24    25   ar
     5    25    26   ar
     6    26    29    1
     7    29    30    1
     8    29    31    1
     9    29    32    1
    10    26    27   ar
    11    27    28   ar
    12    28    33    1
    13    33    34    1
    14    33    35    1
    15    33    36    1
    16    22     1    1
    17     1     2   ar
    18     2     3   ar
    19     3     6    1
    20     6     7   am
    21     7     8    2
    22     7    10    1
    23    10    11   ar
    24    11    12   ar
    25    12    15    1
    26    15    16   ar
    27    16    17   ar
    28    17    18   ar
    29    18    19   ar
    30    19    20   ar
    31    12    13   ar
    32    13    14   ar
    33     3     4   ar
    34     4     5   ar
    35    28    23   ar
    36     5     1   ar
    37    14    10   ar
    38    20    15   ar
    39     6     9    1
@<TRIPOS>MOLECULE
*****
 36 39 0 0 0
SMALL
GASTEIGER

@<TRIPOS>ATOM
      1 N           3.5383    2.3927   34.1531 N.ar    1  UNL1       -0.2459
      2 C           4.4210    1.9052   33.0427 C.ar    1  UNL1        0.1116
      3 C           3.5444    1.5264   31.8859 C.ar    1  UNL1        0.0908
      4 C           2.1199    1.7799   32.2814 C.ar    1  UNL1        0.1363
      5 N           2.1161    2.3153   33.6826 N.ar    1  UNL1       -0.1661
      6 N           4.0105    0.9886   30.5655 N.am    1  UNL1       -0.2766
      7 C           3.4590   -0.3059   30.0461 C.2     1  UNL1        0.2706
      8 O           2.4413   -1.0628   30.8471 O.2     1  UNL1       -0.2680
      9 H           4.6784    1.4854   30.0397 H       1  UNL1        0.1553
     10 C           3.9251   -0.8437   28.7257 C.ar    1  UNL1        0.1764
     11 C           3.3179   -0.5433   27.3874 C.ar    1  UNL1        0.0688
     12 C           4.0978   -1.2903   26.3463 C.ar    1  UNL1        0.1945
     13 O           5.1870   -2.0524   27.0412 O.2     1  UNL1       -0.3517
     14 N           5.0803   -1.7764   28.5118 N.ar    1  UNL1       -0.0722
     15 C           3.8347   -1.2774   24.8696 C.ar    1  UNL1        0.1184
     16 C           4.5155   -2.2731   23.9778 C.ar    1  UNL1        0.0223
     17 C           4.2524   -2.2602   22.5012 C.ar    1  UNL1        0.0032
     18 C           3.3085   -1.2518   21.9162 C.ar    1  UNL1        0.0207
     19 C           2.6278   -0.2562   22.8080 C.ar    1  UNL1        0.0989
     20 N           2.8908   -0.2690   24.2848 N.ar    1  UNL1       -0.2407
     21 C           5.2204    3.7343   35.6094 C.3     1  UNL1        0.0312
     22 C           3.9972    2.8733   35.4979 C.3     1  UNL1        0.1274
     23 C           3.2328    2.4929   36.7312 C.ar    1  UNL1        0.0038
     24 C           2.0543    3.3128   37.1659 C.ar    1  UNL1       -0.0025
     25 C           1.2900    2.9324   38.3992 C.ar    1  UNL1        0.0036
     26 C           1.7041    1.7321   39.1978 C.ar    1  UNL1        0.0714
     27 C           2.8826    0.9122   38.7631 C.ar    1  UNL1        0.0074
     28 C           3.6469    1.2926   37.5298 C.ar    1  UNL1        0.0692
     29 C           0.9397    1.3516   40.4311 C.3     1  UNL1        0.4186
     30 F           0.1754    0.9713   41.6644 F       1  UNL1       -0.1659
     31 F           1.0748   -0.0974   40.0680 F       1  UNL1       -0.1659
     32 F           0.8047    2.8007   40.7943 F       1  UNL1       -0.1659
     33 C           4.8254    0.4727   37.0951 C.3     1  UNL1        0.4183
     34 F           6.0039   -0.3472   36.6604 F       1  UNL1       -0.1659
     35 F           5.7298    1.3301   37.9297 F       1  UNL1       -0.1659
     36 F           3.9210   -0.3848   36.2604 F       1  UNL1       -0.1659
@<TRIPOS>BOND
     1    22    21    1
     2    22    23    1
     3    23    24   ar
     4    24    25   ar
     5    25    26   ar
     6    26    29    1
     7    29    30    1
     8    29    31    1
     9    29    32    1
    10    26    27   ar
    11    27    28   ar
    12    28    33    1
    13    33    34    1
    14    33    35    1
    15    33    36    1
    16    22     1    1
    17     1     2   ar
    18     2     3   ar
    19     3     6    1
    20     6     7   am
    21     7     8    2
    22     7    10    1
    23    10    11   ar
    24    11    12   ar
    25    12    15    1
    26    15    16   ar
    27    16    17   ar
    28    17    18   ar
    29    18    19   ar
    30    19    20   ar
    31    12    13   ar
    32    13    14   ar
    33     3     4   ar
    34     4     5   ar
    35    28    23   ar
    36     5     1   ar
    37    14    10   ar
    38    20    15   ar
    39     6     9    1
@<TRIPOS>MOLECULE
*****
 36 39 0 0 0
SMALL
GASTEIGER

@<TRIPOS>ATOM
      1 N           2.4010    1.3211   22.0587 N.ar    1  UNL1       -0.2459
      2 C           1.3902    2.4018   21.8127 C.ar    1  UNL1        0.1116
      3 C           0.3800    2.3525   22.9204 C.ar    1  UNL1        0.0908
      4 C           0.7664    1.2414   23.8510 C.ar    1  UNL1        0.1363
      5 N           2.0154    0.6040   23.3184 N.ar    1  UNL1       -0.1661
      6 N          -0.8080    3.2558   23.0710 N.am    1  UNL1       -0.2766
      7 C          -1.8487    3.3124   21.9922 C.2     1  UNL1        0.2706
      8 O          -1.7014    2.4656   20.7628 O.2     1  UNL1       -0.2680
      9 H          -0.9048    3.8115   23.8779 H       1  UNL1        0.1553
     10 C          -3.0367    4.2156   22.1429 C.ar    1  UNL1        0.1764
     11 C          -3.9903    4.2325   23.3006 C.ar    1  UNL1        0.0688
     12 C          -5.0227    5.2880   23.0354 C.ar    1  UNL1        0.1945
     13 O          -4.7071    5.9234   21.7138 O.2     1  UNL1       -0.3517
     14 N          -3.4797    5.2606   21.1621 N.ar    1  UNL1       -0.0722
     15 C          -6.1693    5.6452   23.9341 C.ar    1  UNL1        0.1184
     16 C          -7.5654    5.2373   23.5669 C.ar    1  UNL1        0.0223
     17 C          -8.7119    5.5946   24.4655 C.ar    1  UNL1        0.0032
     18 C          -8.4626    6.3598   25.7314 C.ar    1  UNL1        0.0207
     19 C          -7.0666    6.7677   26.0985 C.ar    1  UNL1        0.0989
     20 N          -5.9199    6.4104   25.1999 N.ar    1  UNL1       -0.2407
     21 C           4.5441    2.1040   20.8161 C.3     1  UNL1        0.0312
     22 C           3.5887    1.0119   21.1963 C.3     1  UNL1        0.1274
     23 C           3.8211   -0.3894   20.7142 C.ar    1  UNL1        0.0038
     24 C           4.8692   -1.2424   21.3651 C.ar    1  UNL1       -0.0025
     25 C           5.1015   -2.6436   20.8829 C.ar    1  UNL1        0.0036
     26 C           4.2856   -3.1919   19.7499 C.ar    1  UNL1        0.0714
     27 C           3.2375   -2.3389   19.0990 C.ar    1  UNL1        0.0074
     28 C           3.0052   -0.9376   19.5811 C.ar    1  UNL1        0.0692
     29 C           4.5179   -4.5932   19.2677 C.3     1  UNL1        0.4186
     30 F           4.7502   -5.9945   18.7856 F       1  UNL1       -0.1659
     31 F           5.9275   -4.5349   19.7773 F       1  UNL1       -0.1659
     32 F           3.1084   -4.6515   18.7582 F       1  UNL1       -0.1659
     33 C           1.9570   -0.0845   18.9302 C.3     1  UNL1        0.4183
     34 F           0.9088    0.7685   18.2794 F       1  UNL1       -0.1659
     35 F           0.9362   -0.5971   19.9024 F       1  UNL1       -0.1659
     36 F           2.9778    0.4281   17.9581 F       1  UNL1       -0.1659
@<TRIPOS>BOND
     1    22    21    1
     2    22    23    1
     3    23    24   ar
     4    24    25   ar
     5    25    26   ar
     6    26    29    1
     7    29    30    1
     8    29    31    1
     9    29    32    1
    10    26    27   ar
    11    27    28   ar
    12    28    33    1
    13    33    34    1
    14    33    35    1
    15    33    36    1
    16    22     1    1
    17     1     2   ar
    18     2     3   ar
    19     3     6    1
    20     6     7   am
    21     7     8    2
    22     7    10    1
    23    10    11   ar
    24    11    12   ar
    25    12    15    1
    26    15    16   ar
    27    16    17   ar
    28    17    18   ar
    29    18    19   ar
    30    19    20   ar
    31    12    13   ar
    32    13    14   ar
    33     3     4   ar
    34     4     5   ar
    35    28    23   ar
    36     5     1   ar
    37    14    10   ar
    38    20    15   ar
    39     6     9    1
@<TRIPOS>MOLECULE
*****
 36 39 0 0 0
SMALL
GASTEIGER

@<TRIPOS>ATOM
      1 N           6.6914   -2.9250   22.4184 N.ar    1  UNL1       -0.2459
      2 C           5.6789   -2.5178   23.4475 C.ar    1  UNL1        0.1116
      3 C           6.1664   -2.9840   24.7873 C.ar    1  UNL1        0.0908
      4 C           7.4802   -3.6794   24.5862 C.ar    1  UNL1        0.1363
      5 N           7.8046   -3.6429   23.1221 N.ar    1  UNL1       -0.1661
      6 N           5.4636   -2.7891   26.0980 N.am    1  UNL1       -0.2766
      7 C           5.3799   -1.4213   26.7080 C.2     1  UNL1        0.2706
      8 O           5.9991   -0.2484   26.0072 O.2     1  UNL1       -0.2680
      9 H           5.0572   -3.5588   26.5579 H       1  UNL1        0.1553
     10 C           4.6771   -1.2263   28.0187 C.ar    1  UNL1        0.1764
     11 C           5.3344   -1.0918   29.3602 C.ar    1  UNL1        0.0688
     12 C           4.2570   -0.9140   30.3886 C.ar    1  UNL1        0.1945
     13 O           2.9338   -0.9386   29.6827 O.2     1  UNL1       -0.3517
     14 N           3.1933   -1.1316   28.2179 N.ar    1  UNL1       -0.0722
     15 C           4.4662   -0.7419   31.8640 C.ar    1  UNL1        0.1184
     16 C           5.0645    0.5277   32.3936 C.ar    1  UNL1        0.0223
     17 C           5.2736    0.6999   33.8688 C.ar    1  UNL1        0.0032
     18 C           4.8846   -0.3975   34.8147 C.ar    1  UNL1        0.0207
     19 C           4.2863   -1.6669   34.2851 C.ar    1  UNL1        0.0989
     20 N           4.0771   -1.8392   32.8097 N.ar    1  UNL1       -0.2407
     21 C           7.6981   -3.1351   20.0325 C.3     1  UNL1        0.0312
     22 C           6.6056   -2.6607   20.9444 C.3     1  UNL1        0.1274
     23 C           5.4273   -1.9220   20.3821 C.ar    1  UNL1        0.0038
     24 C           5.3324   -0.4330   20.5363 C.ar    1  UNL1       -0.0025
     25 C           4.1541    0.3056   19.9741 C.ar    1  UNL1        0.0036
     26 C           3.0708   -0.4449   19.2577 C.ar    1  UNL1        0.0714
     27 C           3.1656   -1.9339   19.1036 C.ar    1  UNL1        0.0074
     28 C           4.3439   -2.6725   19.6658 C.ar    1  UNL1        0.0692
     29 C           1.8924    0.2938   18.6955 C.3     1  UNL1        0.4186
     30 F           0.7142    1.0325   18.1333 F       1  UNL1       -0.1659
     31 F           0.9696   -0.5401   19.5339 F       1  UNL1       -0.1659
     32 F           2.8153    1.1277   17.8571 F       1  UNL1       -0.1659
     33 C           4.4388   -4.1616   19.5117 C.3     1  UNL1        0.4183
     34 F           4.5338   -5.6506   19.3576 F       1  UNL1       -0.1659
     35 F           4.9770   -3.9835   18.1230 F       1  UNL1       -0.1659
     36 F           3.9006   -4.3396   20.9004 F       1  UNL1       -0.1659
@<TRIPOS>BOND
     1    22    21    1
     2    22    23    1
     3    23    24   ar
     4    24    25   ar
     5    25    26   ar
     6    26    29    1
     7    29    30    1
     8    29    31    1
     9    29    32    1
    10    26    27   ar
    11    27    28   ar
    12    28    33    1
    13    33    34    1
    14    33    35    1
    15    33    36    1
    16    22     1    1
    17     1     2   ar
    18     2     3   ar
    19     3     6    1
    20     6     7   am
    21     7     8    2
    22     7    10    1
    23    10    11   ar
    24    11    12   ar
    25    12    15    1
    26    15    16   ar
    27    16    17   ar
    28    17    18   ar
    29    18    19   ar
    30    19    20   ar
    31    12    13   ar
    32    13    14   ar
    33     3     4   ar
    34     4     5   ar
    35    28    23   ar
    36     5     1   ar
    37    14    10   ar
    38    20    15   ar
    39     6     9    1
@<TRIPOS>MOLECULE
*****
 36 39 0 0 0
SMALL
GASTEIGER

@<TRIPOS>ATOM
      1 N           2.6358    0.4611   18.8340 N.ar    1  UNL1       -0.2459
      2 C           1.4284    0.2837   19.7061 C.ar    1  UNL1        0.1116
      3 C           0.8549    1.6413   19.9857 C.ar    1  UNL1        0.0908
      4 C           1.7080    2.6578   19.2864 C.ar    1  UNL1        0.1363
      5 N           2.8086    1.9284   18.5746 N.ar    1  UNL1       -0.1661
      6 N          -0.3585    1.9314   20.8185 N.am    1  UNL1       -0.2766
      7 C          -1.4025    2.8841   20.3161 C.2     1  UNL1        0.2706
      8 O          -1.2332    3.5466   18.9810 O.2     1  UNL1       -0.2680
      9 H          -0.4696    1.4966   21.6947 H       1  UNL1        0.1553
     10 C          -2.6159    3.1742   21.1488 C.ar    1  UNL1        0.1764
     11 C          -2.6172    3.7396   22.5382 C.ar    1  UNL1        0.0688
     12 C          -4.0432    3.8647   22.9864 C.ar    1  UNL1        0.1945
     13 O          -4.9233    3.3766   21.8741 O.2     1  UNL1       -0.3517
     14 N          -4.0412    2.9498   20.7383 N.ar    1  UNL1       -0.0722
     15 C          -4.5076    4.3864   24.3139 C.ar    1  UNL1        0.1184
     16 C          -3.9716    3.7918   25.5825 C.ar    1  UNL1        0.0223
     17 C          -4.4360    4.3134   26.9099 C.ar    1  UNL1        0.0032
     18 C          -5.4364    5.4296   26.9689 C.ar    1  UNL1        0.0207
     19 C          -5.9724    6.0241   25.7004 C.ar    1  UNL1        0.0989
     20 N          -5.5080    5.5025   24.3728 N.ar    1  UNL1       -0.2407
     21 C           3.6246   -0.8725   16.8356 C.3     1  UNL1        0.0312
     22 C           3.5159   -0.6361   18.3128 C.3     1  UNL1        0.1274
     23 C           4.2873   -1.4968   19.2689 C.ar    1  UNL1        0.0038
     24 C           3.6760   -2.7580   19.8034 C.ar    1  UNL1       -0.0025
     25 C           4.4474   -3.6187   20.7595 C.ar    1  UNL1        0.0036
     26 C           5.8301   -3.2182   21.1810 C.ar    1  UNL1        0.0714
     27 C           6.4414   -1.9570   20.6466 C.ar    1  UNL1        0.0074
     28 C           5.6700   -1.0963   19.6905 C.ar    1  UNL1        0.0692
     29 C           6.6016   -4.0789   22.1372 C.3     1  UNL1        0.4186
     30 F           7.3729   -4.9396   23.0933 F       1  UNL1       -0.1659
     31 F           7.6743   -4.2640   21.1052 F       1  UNL1       -0.1659
     32 F           5.5289   -3.8939   23.1692 F       1  UNL1       -0.1659
     33 C           6.2813    0.1649   19.1559 C.3     1  UNL1        0.4183
     34 F           6.8925    1.4261   18.6215 F       1  UNL1       -0.1659
     35 F           5.6632    0.9412   20.2808 F       1  UNL1       -0.1659
     36 F           6.8994   -0.6113   18.0311 F       1  UNL1       -0.1659
@<TRIPOS>BOND
     1    22    21    1
     2    22    23    1
     3    23    24   ar
     4    24    25   ar
     5    25    26   ar
     6    26    29    1
     7    29    30    1
     8    29    31    1
     9    29    32    1
    10    26    27   ar
    11    27    28   ar
    12    28    33    1
    13    33    34    1
    14    33    35    1
    15    33    36    1
    16    22     1    1
    17     1     2   ar
    18     2     3   ar
    19     3     6    1
    20     6     7   am
    21     7     8    2
    22     7    10    1
    23    10    11   ar
    24    11    12   ar
    25    12    15    1
    26    15    16   ar
    27    16    17   ar
    28    17    18   ar
    29    18    19   ar
    30    19    20   ar
    31    12    13   ar
    32    13    14   ar
    33     3     4   ar
    34     4     5   ar
    35    28    23   ar
    36     5     1   ar
    37    14    10   ar
    38    20    15   ar
    39     6     9    1
