@<TRIPOS>MOLECULE
*****
 29 31 0 0 0
SMALL
GASTEIGER

@<TRIPOS>ATOM
      1 C          -7.7968  -19.7111   20.1080 C.2     1  UNL1        0.2296
      2 O          -7.0332  -20.6998   19.2779 O.2     1  UNL1       -0.2745
      3 N          -7.2846  -19.3133   21.4606 N.am    1  UNL1       -0.2543
      4 C          -8.0483  -18.3245   22.2908 C.ar    1  UNL1        0.0565
      5 C          -7.3954  -17.0450   22.7227 C.ar    1  UNL1        0.0445
      6 C          -8.1591  -16.0563   23.5528 C.ar    1  UNL1        0.1415
      7 F          -7.5061  -14.7768   23.9848 F       1  UNL1       -0.2041
      8 C          -9.5757  -16.3471   23.9510 C.ar    1  UNL1        0.0328
      9 C         -10.2287  -17.6266   23.5191 C.ar    1  UNL1        0.0406
     10 C          -9.4649  -18.6153   22.6889 C.ar    1  UNL1        0.0181
     11 C         -11.6453  -17.9173   23.9173 C.ar    1  UNL1        0.1807
     12 N         -12.8767  -17.4430   23.2040 N.ar    1  UNL1       -0.1083
     13 N         -14.0718  -17.9660   23.9446 N.ar    1  UNL1       -0.0229
     14 N         -13.5789  -18.7635   25.1155 N.ar    1  UNL1       -0.0464
     15 N         -12.0793  -18.7334   25.0986 N.ar    1  UNL1       -0.2388
     16 H         -11.4844  -19.1723   25.7488 H       1  UNL1        0.1923
     17 C         -10.2697  -19.9967   19.3640 C.3     1  UNL1        0.0101
     18 C          -9.0728  -19.1202   19.5857 C.3     1  UNL1        0.0856
     19 C          -6.0087  -19.9042   21.9829 C.3     1  UNL1        0.1247
     20 C          -4.6898  -19.3065   21.5913 C.ar    1  UNL1       -0.0020
     21 C          -3.9066  -18.5011   22.5853 C.ar    1  UNL1       -0.0027
     22 C          -2.5878  -17.9035   22.1936 C.ar    1  UNL1        0.0036
     23 C          -2.0521  -18.1112   20.8080 C.ar    1  UNL1        0.0714
     24 C          -2.8353  -18.9165   19.8140 C.ar    1  UNL1        0.0036
     25 C          -4.1541  -19.5141   20.2057 C.ar    1  UNL1       -0.0027
     26 C          -0.7332  -17.5134   20.4164 C.3     1  UNL1        0.4186
     27 F           0.5856  -16.9157   20.0248 F       1  UNL1       -0.1659
     28 F          -0.3390  -18.8076   19.7686 F       1  UNL1       -0.1659
     29 F          -1.1274  -16.2193   21.0641 F       1  UNL1       -0.1659
@<TRIPOS>BOND
     1    17    18    1
     2    18     1    1
     3     1     2    2
     4     1     3   am
     5     3    19    1
     6    19    20    1
     7    20    21   ar
     8    21    22   ar
     9    22    23   ar
    10    23    26    1
    11    26    27    1
    12    26    28    1
    13    26    29    1
    14    23    24   ar
    15    24    25   ar
    16     3     4    1
    17     4     5   ar
    18     5     6   ar
    19     6     7    1
    20     6     8   ar
    21     8     9   ar
    22     9    11    1
    23    11    12   ar
    24    12    13   ar
    25    13    14   ar
    26    14    15   ar
    27     9    10   ar
    28    25    20   ar
    29    10     4   ar
    30    15    11   ar
    31    15    16    1
@<TRIPOS>MOLECULE
*****
 29 31 0 0 0
SMALL
GASTEIGER

@<TRIPOS>ATOM
      1 C          -6.8820  -16.9662   23.0601 C.2     1  UNL1        0.2296
      2 O          -5.4754  -16.6997   23.5078 O.2     1  UNL1       -0.2745
      3 N          -7.2419  -18.2978   22.4706 N.am    1  UNL1       -0.2543
      4 C          -8.6485  -18.5643   22.0229 C.ar    1  UNL1        0.0565
      5 C          -8.9203  -18.9667   20.6037 C.ar    1  UNL1        0.0445
      6 C         -10.3269  -19.2332   20.1560 C.ar    1  UNL1        0.1415
      7 F         -10.5987  -19.6357   18.7367 F       1  UNL1       -0.2041
      8 C         -11.4616  -19.0973   21.1275 C.ar    1  UNL1        0.0328
      9 C         -11.1899  -18.6948   22.5466 C.ar    1  UNL1        0.0406
     10 C          -9.7833  -18.4283   22.9943 C.ar    1  UNL1        0.0181
     11 C         -12.3246  -18.5588   23.5181 C.ar    1  UNL1        0.1807
     12 N         -13.7080  -18.0765   23.1961 N.ar    1  UNL1       -0.1083
     13 N         -14.5136  -18.1009   24.4611 N.ar    1  UNL1       -0.0229
     14 N         -13.6282  -18.5983   25.5650 N.ar    1  UNL1       -0.0464
     15 N         -12.2754  -18.8813   24.9822 N.ar    1  UNL1       -0.2388
     16 H         -11.4925  -19.2194   25.4742 H       1  UNL1        0.1923
     17 C          -8.3302  -15.4207   24.5648 C.3     1  UNL1        0.0101
     18 C          -7.9288  -15.9012   23.2017 C.3     1  UNL1        0.0856
     19 C          -6.1952  -19.3628   22.3289 C.3     1  UNL1        0.1247
     20 C          -4.9105  -19.0617   21.6155 C.ar    1  UNL1       -0.0020
     21 C          -3.6372  -18.9128   22.3943 C.ar    1  UNL1       -0.0027
     22 C          -2.3526  -18.6117   21.6808 C.ar    1  UNL1        0.0036
     23 C          -2.3412  -18.4594   20.1886 C.ar    1  UNL1        0.0714
     24 C          -3.6145  -18.6082   19.4099 C.ar    1  UNL1        0.0036
     25 C          -4.8991  -18.9093   20.1233 C.ar    1  UNL1       -0.0027
     26 C          -1.0565  -18.1583   19.4752 C.3     1  UNL1        0.4186
     27 F           0.2281  -17.8571   18.7619 F       1  UNL1       -0.1659
     28 F          -1.7830  -18.1679   18.1629 F       1  UNL1       -0.1659
     29 F          -0.3301  -18.1486   20.7875 F       1  UNL1       -0.1659
@<TRIPOS>BOND
     1    17    18    1
     2    18     1    1
     3     1     2    2
     4     1     3   am
     5     3    19    1
     6    19    20    1
     7    20    21   ar
     8    21    22   ar
     9    22    23   ar
    10    23    26    1
    11    26    27    1
    12    26    28    1
    13    26    29    1
    14    23    24   ar
    15    24    25   ar
    16     3     4    1
    17     4     5   ar
    18     5     6   ar
    19     6     7    1
    20     6     8   ar
    21     8     9   ar
    22     9    11    1
    23    11    12   ar
    24    12    13   ar
    25    13    14   ar
    26    14    15   ar
    27     9    10   ar
    28    25    20   ar
    29    10     4   ar
    30    15    11   ar
    31    15    16    1
@<TRIPOS>MOLECULE
*****
 29 31 0 0 0
SMALL
GASTEIGER

@<TRIPOS>ATOM
      1 C          -7.2057  -15.6439   26.2248 C.2     1  UNL1        0.2296
      2 O          -5.9395  -15.0416   26.7577 O.2     1  UNL1       -0.2745
      3 N          -7.3031  -16.0266   24.7777 N.am    1  UNL1       -0.2543
      4 C          -8.5694  -16.6288   24.2448 C.ar    1  UNL1        0.0565
      5 C          -9.2519  -17.7303   25.0003 C.ar    1  UNL1        0.0445
      6 C         -10.5181  -18.3325   24.4674 C.ar    1  UNL1        0.1415
      7 F         -11.2007  -19.4340   25.2230 F       1  UNL1       -0.2041
      8 C         -11.1018  -17.8332   23.1790 C.ar    1  UNL1        0.0328
      9 C         -10.4193  -16.7318   22.4235 C.ar    1  UNL1        0.0406
     10 C          -9.1531  -16.1296   22.9564 C.ar    1  UNL1        0.0181
     11 C         -11.0030  -16.2325   21.1350 C.ar    1  UNL1        0.1807
     12 N         -12.4055  -16.4616   20.6552 N.ar    1  UNL1       -0.1083
     13 N         -12.5560  -15.7872   19.3238 N.ar    1  UNL1       -0.0229
     14 N         -11.2464  -15.1412   18.9808 N.ar    1  UNL1       -0.0464
     15 N         -10.2866  -15.4165   20.1002 N.ar    1  UNL1       -0.2388
     16 H          -9.3507  -15.1145   20.1475 H       1  UNL1        0.1923
     17 C          -8.8484  -14.7538   28.0302 C.3     1  UNL1        0.0101
     18 C          -8.3746  -15.8634   27.1390 C.3     1  UNL1        0.0856
     19 C          -6.1344  -15.8070   23.8635 C.3     1  UNL1        0.1247
     20 C          -5.5740  -16.9529   23.0741 C.ar    1  UNL1       -0.0020
     21 C          -4.0944  -17.1986   23.0557 C.ar    1  UNL1       -0.0027
     22 C          -3.5342  -18.3444   22.2663 C.ar    1  UNL1        0.0036
     23 C          -4.4536  -19.2445   21.4953 C.ar    1  UNL1        0.0714
     24 C          -5.9332  -18.9988   21.5136 C.ar    1  UNL1        0.0036
     25 C          -6.4934  -17.8530   22.3030 C.ar    1  UNL1       -0.0027
     26 C          -3.8932  -20.3904   20.7058 C.3     1  UNL1        0.4186
     27 F          -3.3330  -21.5362   19.9164 F       1  UNL1       -0.1659
     28 F          -2.5699  -20.2144   21.3897 F       1  UNL1       -0.1659
     29 F          -5.2166  -20.5663   20.0220 F       1  UNL1       -0.1659
@<TRIPOS>BOND
     1    17    18    1
     2    18     1    1
     3     1     2    2
     4     1     3   am
     5     3    19    1
     6    19    20    1
     7    20    21   ar
     8    21    22   ar
     9    22    23   ar
    10    23    26    1
    11    26    27    1
    12    26    28    1
    13    26    29    1
    14    23    24   ar
    15    24    25   ar
    16     3     4    1
    17     4     5   ar
    18     5     6   ar
    19     6     7    1
    20     6     8   ar
    21     8     9   ar
    22     9    11    1
    23    11    12   ar
    24    12    13   ar
    25    13    14   ar
    26    14    15   ar
    27     9    10   ar
    28    25    20   ar
    29    10     4   ar
    30    15    11   ar
    31    15    16    1
@<TRIPOS>MOLECULE
*****
 29 31 0 0 0
SMALL
GASTEIGER

@<TRIPOS>ATOM
      1 C          -8.3259  -19.4952   19.9845 C.2     1  UNL1        0.2296
      2 O          -7.7126  -20.4929   19.0473 O.2     1  UNL1       -0.2745
      3 N          -7.6821  -19.2175   21.3106 N.am    1  UNL1       -0.2543
      4 C          -8.2955  -18.2198   22.2478 C.ar    1  UNL1        0.0565
      5 C          -9.7681  -17.9410   22.1876 C.ar    1  UNL1        0.0445
      6 C         -10.3815  -16.9433   23.1248 C.ar    1  UNL1        0.1415
      7 F         -11.8542  -16.6645   23.0647 F       1  UNL1       -0.2041
      8 C          -9.5222  -16.2244   24.1222 C.ar    1  UNL1        0.0328
      9 C          -8.0496  -16.5032   24.1824 C.ar    1  UNL1        0.0406
     10 C          -7.4363  -17.5008   23.2452 C.ar    1  UNL1        0.0181
     11 C          -7.1903  -15.7842   25.1798 C.ar    1  UNL1        0.1807
     12 N          -7.5318  -15.5324   26.6185 N.ar    1  UNL1       -0.1083
     13 N          -6.3912  -14.7834   27.2415 N.ar    1  UNL1       -0.0229
     14 N          -5.3447  -14.5724   26.1878 N.ar    1  UNL1       -0.0464
     15 N          -5.8386  -15.1909   24.9136 N.ar    1  UNL1       -0.2388
     16 H          -5.3596  -15.2050   24.0536 H       1  UNL1        0.1923
     17 C         -10.8710  -19.5329   19.4634 C.3     1  UNL1        0.0101
     18 C          -9.5831  -18.7752   19.5957 C.3     1  UNL1        0.0856
     19 C          -6.4250  -19.9374   21.6994 C.3     1  UNL1        0.1247
     20 C          -5.0877  -19.3364   21.3820 C.ar    1  UNL1       -0.0020
     21 C          -4.6424  -19.2086   19.9554 C.ar    1  UNL1       -0.0027
     22 C          -3.3053  -18.6076   19.6382 C.ar    1  UNL1        0.0036
     23 C          -2.4134  -18.1344   20.7475 C.ar    1  UNL1        0.0714
     24 C          -2.8587  -18.2623   22.1741 C.ar    1  UNL1        0.0036
     25 C          -4.1958  -18.8633   22.4914 C.ar    1  UNL1       -0.0027
     26 C          -1.0761  -17.5334   20.4302 C.3     1  UNL1        0.4186
     27 F           0.2611  -16.9324   20.1128 F       1  UNL1       -0.1659
     28 F          -1.4426  -16.3058   21.2103 F       1  UNL1       -0.1659
     29 F          -0.7096  -18.7610   19.6500 F       1  UNL1       -0.1659
@<TRIPOS>BOND
     1    17    18    1
     2    18     1    1
     3     1     2    2
     4     1     3   am
     5     3    19    1
     6    19    20    1
     7    20    21   ar
     8    21    22   ar
     9    22    23   ar
    10    23    26    1
    11    26    27    1
    12    26    28    1
    13    26    29    1
    14    23    24   ar
    15    24    25   ar
    16     3     4    1
    17     4     5   ar
    18     5     6   ar
    19     6     7    1
    20     6     8   ar
    21     8     9   ar
    22     9    11    1
    23    11    12   ar
    24    12    13   ar
    25    13    14   ar
    26    14    15   ar
    27     9    10   ar
    28    25    20   ar
    29    10     4   ar
    30    15    11   ar
    31    15    16    1
@<TRIPOS>MOLECULE
*****
 29 31 0 0 0
SMALL
GASTEIGER

@<TRIPOS>ATOM
      1 C          -7.0763  -20.1965   20.2515 C.2     1  UNL1        0.2296
      2 O          -6.2131  -21.3209   19.7610 O.2     1  UNL1       -0.2745
      3 N          -6.6606  -19.4013   21.4536 N.am    1  UNL1       -0.2543
      4 C          -7.5238  -18.2769   21.9441 C.ar    1  UNL1        0.0565
      5 C          -7.1726  -17.5610   23.2146 C.ar    1  UNL1        0.0445
      6 C          -8.0359  -16.4367   23.7051 C.ar    1  UNL1        0.1415
      7 F          -7.6847  -15.7207   24.9756 F       1  UNL1       -0.2041
      8 C          -9.2503  -16.0282   22.9251 C.ar    1  UNL1        0.0328
      9 C          -9.6014  -16.7440   21.6546 C.ar    1  UNL1        0.0406
     10 C          -8.7382  -17.8684   21.1641 C.ar    1  UNL1        0.0181
     11 C         -10.8158  -16.3356   20.8746 C.ar    1  UNL1        0.1807
     12 N         -12.2419  -16.5620   21.2808 N.ar    1  UNL1       -0.1083
     13 N         -13.1248  -15.9953   20.2087 N.ar    1  UNL1       -0.0229
     14 N         -12.2444  -15.4186   19.1399 N.ar    1  UNL1       -0.0464
     15 N         -10.8174  -15.6289   19.5515 N.ar    1  UNL1       -0.2388
     16 H         -10.0215  -15.3518   19.0426 H       1  UNL1        0.1923
     17 C          -8.8322  -20.7362   18.4143 C.3     1  UNL1        0.0101
     18 C          -8.3552  -19.8673   19.5400 C.3     1  UNL1        0.0856
     19 C          -5.3818  -19.7305   22.1650 C.3     1  UNL1        0.1247
     20 C          -4.0875  -19.1351   21.6955 C.ar    1  UNL1       -0.0020
     21 C          -3.4822  -17.9786   22.4344 C.ar    1  UNL1       -0.0027
     22 C          -2.1880  -17.3832   21.9648 C.ar    1  UNL1        0.0036
     23 C          -1.4991  -17.9443   20.7563 C.ar    1  UNL1        0.0714
     24 C          -2.1044  -19.1008   20.0173 C.ar    1  UNL1        0.0036
     25 C          -3.3986  -19.6962   20.4869 C.ar    1  UNL1       -0.0027
     26 C          -0.2049  -17.3489   20.2867 C.3     1  UNL1        0.4186
     27 F           1.0893  -16.7535   19.8172 F       1  UNL1       -0.1659
     28 F           0.2279  -18.6916   19.7769 F       1  UNL1       -0.1659
     29 F          -0.6377  -16.0063   20.7965 F       1  UNL1       -0.1659
@<TRIPOS>BOND
     1    17    18    1
     2    18     1    1
     3     1     2    2
     4     1     3   am
     5     3    19    1
     6    19    20    1
     7    20    21   ar
     8    21    22   ar
     9    22    23   ar
    10    23    26    1
    11    26    27    1
    12    26    28    1
    13    26    29    1
    14    23    24   ar
    15    24    25   ar
    16     3     4    1
    17     4     5   ar
    18     5     6   ar
    19     6     7    1
    20     6     8   ar
    21     8     9   ar
    22     9    11    1
    23    11    12   ar
    24    12    13   ar
    25    13    14   ar
    26    14    15   ar
    27     9    10   ar
    28    25    20   ar
    29    10     4   ar
    30    15    11   ar
    31    15    16    1
@<TRIPOS>MOLECULE
*****
 29 31 0 0 0
SMALL
GASTEIGER

@<TRIPOS>ATOM
      1 C          -7.2630  -20.7074   20.1304 C.2     1  UNL1        0.2296
      2 O          -6.0714  -21.4487   19.6007 O.2     1  UNL1       -0.2745
      3 N          -7.1868  -20.0174   21.4600 N.am    1  UNL1       -0.2543
      4 C          -8.3785  -19.2761   21.9897 C.ar    1  UNL1        0.0565
      5 C          -8.7748  -19.4239   23.4288 C.ar    1  UNL1        0.0445
      6 C          -9.9664  -18.6826   23.9585 C.ar    1  UNL1        0.1415
      7 F         -10.3628  -18.8303   25.3976 F       1  UNL1       -0.2041
      8 C         -10.7618  -17.7937   23.0490 C.ar    1  UNL1        0.0328
      9 C         -10.3655  -17.6459   21.6099 C.ar    1  UNL1        0.0406
     10 C          -9.1739  -18.3872   21.0802 C.ar    1  UNL1        0.0181
     11 C         -11.1608  -16.7570   20.7004 C.ar    1  UNL1        0.1807
     12 N         -10.6052  -15.8787   19.6187 N.ar    1  UNL1       -0.1083
     13 N         -11.7524  -15.1691   18.9627 N.ar    1  UNL1       -0.0229
     14 N         -13.0171  -15.6088   19.6389 N.ar    1  UNL1       -0.0464
     15 N         -12.6515  -16.5902   20.7128 N.ar    1  UNL1       -0.2388
     16 H         -13.2796  -17.0449   21.3193 H       1  UNL1        0.1923
     17 C          -8.5395  -20.0043   17.9795 C.3     1  UNL1        0.0101
     18 C          -8.5309  -20.6562   19.3304 C.3     1  UNL1        0.0856
     19 C          -5.9190  -20.0686   22.2600 C.3     1  UNL1        0.1247
     20 C          -4.7237  -19.2748   21.8228 C.ar    1  UNL1       -0.0020
     21 C          -4.2229  -19.3879   20.4134 C.ar    1  UNL1       -0.0027
     22 C          -3.0277  -18.5941   19.9762 C.ar    1  UNL1        0.0036
     23 C          -2.3331  -17.6872   20.9484 C.ar    1  UNL1        0.0714
     24 C          -2.8339  -17.5741   22.3578 C.ar    1  UNL1        0.0036
     25 C          -4.0292  -18.3679   22.7950 C.ar    1  UNL1       -0.0027
     26 C          -1.1378  -16.8934   20.5111 C.3     1  UNL1        0.4186
     27 F           0.0575  -16.0996   20.0739 F       1  UNL1       -0.1659
     28 F          -1.4086  -15.8898   21.5926 F       1  UNL1       -0.1659
     29 F          -0.8670  -17.8969   19.4297 F       1  UNL1       -0.1659
@<TRIPOS>BOND
     1    17    18    1
     2    18     1    1
     3     1     2    2
     4     1     3   am
     5     3    19    1
     6    19    20    1
     7    20    21   ar
     8    21    22   ar
     9    22    23   ar
    10    23    26    1
    11    26    27    1
    12    26    28    1
    13    26    29    1
    14    23    24   ar
    15    24    25   ar
    16     3     4    1
    17     4     5   ar
    18     5     6   ar
    19     6     7    1
    20     6     8   ar
    21     8     9   ar
    22     9    11    1
    23    11    12   ar
    24    12    13   ar
    25    13    14   ar
    26    14    15   ar
    27     9    10   ar
    28    25    20   ar
    29    10     4   ar
    30    15    11   ar
    31    15    16    1
@<TRIPOS>MOLECULE
*****
 29 31 0 0 0
SMALL
GASTEIGER

@<TRIPOS>ATOM
      1 C          -7.1509  -15.8282   25.6060 C.2     1  UNL1        0.2296
      2 O          -6.4673  -14.9895   26.6448 O.2     1  UNL1       -0.2745
      3 N          -6.4985  -16.0514   24.2739 N.am    1  UNL1       -0.2543
      4 C          -7.1822  -16.8902   23.2351 C.ar    1  UNL1        0.0565
      5 C          -6.5607  -18.1784   22.7832 C.ar    1  UNL1        0.0445
      6 C          -7.2444  -19.0171   21.7444 C.ar    1  UNL1        0.1415
      7 F          -6.6230  -20.3054   21.2925 F       1  UNL1       -0.2041
      8 C          -8.5496  -18.5676   21.1575 C.ar    1  UNL1        0.0328
      9 C          -9.1711  -17.2794   21.6094 C.ar    1  UNL1        0.0406
     10 C          -8.4874  -16.4407   22.6482 C.ar    1  UNL1        0.0181
     11 C         -10.4763  -16.8298   21.0225 C.ar    1  UNL1        0.1807
     12 N         -10.6480  -16.0168   19.7737 N.ar    1  UNL1       -0.1083
     13 N         -12.1168  -15.7989   19.5608 N.ar    1  UNL1       -0.0229
     14 N         -12.8528  -16.4773   20.6780 N.ar    1  UNL1       -0.0464
     15 N         -11.8389  -17.1144   21.5814 N.ar    1  UNL1       -0.2388
     16 H         -12.0336  -17.6290   22.3978 H       1  UNL1        0.1923
     17 C          -8.7733  -17.0005   27.2624 C.3     1  UNL1        0.0101
     18 C          -8.4870  -16.4437   25.8993 C.3     1  UNL1        0.0856
     19 C          -5.1624  -15.4359   23.9806 C.3     1  UNL1        0.1247
     20 C          -4.1500  -16.1913   23.1716 C.ar    1  UNL1       -0.0020
     21 C          -3.9875  -17.6699   23.3649 C.ar    1  UNL1       -0.0027
     22 C          -2.9751  -18.4252   22.5560 C.ar    1  UNL1        0.0036
     23 C          -2.1251  -17.7020   21.5538 C.ar    1  UNL1        0.0714
     24 C          -2.2876  -16.2235   21.3604 C.ar    1  UNL1        0.0036
     25 C          -3.3000  -15.4681   22.1693 C.ar    1  UNL1       -0.0027
     26 C          -1.1126  -18.4575   20.7448 C.3     1  UNL1        0.4186
     27 F          -0.1002  -19.2129   19.9359 F       1  UNL1       -0.1659
     28 F          -0.4055  -17.1726   20.4299 F       1  UNL1       -0.1659
     29 F          -1.8197  -19.7423   21.0597 F       1  UNL1       -0.1659
@<TRIPOS>BOND
     1    17    18    1
     2    18     1    1
     3     1     2    2
     4     1     3   am
     5     3    19    1
     6    19    20    1
     7    20    21   ar
     8    21    22   ar
     9    22    23   ar
    10    23    26    1
    11    26    27    1
    12    26    28    1
    13    26    29    1
    14    23    24   ar
    15    24    25   ar
    16     3     4    1
    17     4     5   ar
    18     5     6   ar
    19     6     7    1
    20     6     8   ar
    21     8     9   ar
    22     9    11    1
    23    11    12   ar
    24    12    13   ar
    25    13    14   ar
    26    14    15   ar
    27     9    10   ar
    28    25    20   ar
    29    10     4   ar
    30    15    11   ar
    31    15    16    1
@<TRIPOS>MOLECULE
*****
 29 31 0 0 0
SMALL
GASTEIGER

@<TRIPOS>ATOM
      1 C           8.2902   -1.7068   21.3604 C.2     1  UNL1        0.2296
      2 O           9.3893   -1.3509   22.3171 O.2     1  UNL1       -0.2745
      3 N           6.9834   -2.2287   21.8799 N.am    1  UNL1       -0.2543
      4 C           5.8843   -2.5846   20.9231 C.ar    1  UNL1        0.0565
      5 C           5.8794   -3.9260   20.2519 C.ar    1  UNL1        0.0445
      6 C           4.7804   -4.2819   19.2951 C.ar    1  UNL1        0.1415
      7 F           4.7755   -5.6233   18.6239 F       1  UNL1       -0.2041
      8 C           3.6862   -3.2963   19.0096 C.ar    1  UNL1        0.0328
      9 C           3.6911   -1.9549   19.6808 C.ar    1  UNL1        0.0406
     10 C           4.7902   -1.5991   20.6376 C.ar    1  UNL1        0.0181
     11 C           2.5970   -0.9694   19.3953 C.ar    1  UNL1        0.1807
     12 N           1.3217   -0.8186   20.1706 N.ar    1  UNL1       -0.1083
     13 N           0.5226    0.2824   19.5388 N.ar    1  UNL1       -0.0229
     14 N           1.3039    0.8121   18.3730 N.ar    1  UNL1       -0.0464
     15 N           2.5859    0.0384   18.2844 N.ar    1  UNL1       -0.2388
     16 H           3.2955    0.1692   17.6146 H       1  UNL1        0.1923
     17 C           9.2183   -2.6006   19.1043 C.3     1  UNL1        0.0101
     18 C           8.4980   -1.5409   19.8841 C.3     1  UNL1        0.0856
     19 C           6.7757   -2.3947   23.3561 C.3     1  UNL1        0.1247
     20 C           7.0813   -3.7079   24.0136 C.ar    1  UNL1       -0.0020
     21 C           7.8497   -4.7588   23.2686 C.ar    1  UNL1       -0.0027
     22 C           8.1553   -6.0719   23.9261 C.ar    1  UNL1        0.0036
     23 C           7.6924   -6.3341   25.3286 C.ar    1  UNL1        0.0714
     24 C           6.9240   -5.2832   26.0736 C.ar    1  UNL1        0.0036
     25 C           6.6184   -3.9701   25.4161 C.ar    1  UNL1       -0.0027
     26 C           7.9980   -7.6473   25.9861 C.3     1  UNL1        0.4186
     27 F           8.3037   -8.9604   26.6435 F       1  UNL1       -0.1659
     28 F           7.3225   -7.1768   27.2399 F       1  UNL1       -0.1659
     29 F           8.6735   -8.1178   24.7322 F       1  UNL1       -0.1659
@<TRIPOS>BOND
     1    17    18    1
     2    18     1    1
     3     1     2    2
     4     1     3   am
     5     3    19    1
     6    19    20    1
     7    20    21   ar
     8    21    22   ar
     9    22    23   ar
    10    23    26    1
    11    26    27    1
    12    26    28    1
    13    26    29    1
    14    23    24   ar
    15    24    25   ar
    16     3     4    1
    17     4     5   ar
    18     5     6   ar
    19     6     7    1
    20     6     8   ar
    21     8     9   ar
    22     9    11    1
    23    11    12   ar
    24    12    13   ar
    25    13    14   ar
    26    14    15   ar
    27     9    10   ar
    28    25    20   ar
    29    10     4   ar
    30    15    11   ar
    31    15    16    1
@<TRIPOS>MOLECULE
*****
 29 31 0 0 0
SMALL
GASTEIGER

@<TRIPOS>ATOM
      1 C           7.0928   -2.2159   18.8391 C.2     1  UNL1        0.2296
      2 O           6.8787   -2.2828   17.3560 O.2     1  UNL1       -0.2745
      3 N           5.9353   -2.4082   19.7735 N.am    1  UNL1       -0.2543
      4 C           6.1494   -2.3413   21.2567 C.ar    1  UNL1        0.0565
      5 C           6.0395   -1.0274   21.9718 C.ar    1  UNL1        0.0445
      6 C           6.2537   -0.9605   23.4549 C.ar    1  UNL1        0.1415
      7 F           6.1437    0.3535   24.1701 F       1  UNL1       -0.2041
      8 C           6.5778   -2.2076   24.2228 C.ar    1  UNL1        0.0328
      9 C           6.6878   -3.5215   23.5077 C.ar    1  UNL1        0.0406
     10 C           6.4736   -3.5884   22.0246 C.ar    1  UNL1        0.0181
     11 C           7.0119   -4.7686   24.2757 C.ar    1  UNL1        0.1807
     12 N           7.7553   -5.9602   23.7490 N.ar    1  UNL1       -0.1083
     13 N           7.8524   -6.9711   24.8529 N.ar    1  UNL1       -0.0229
     14 N           7.1691   -6.4042   26.0619 N.ar    1  UNL1       -0.0464
     15 N           6.6497   -5.0430   25.7051 N.ar    1  UNL1       -0.2388
     16 H           6.1574   -4.4362   26.3041 H       1  UNL1        0.1923
     17 C           9.4051   -3.1004   19.6273 C.3     1  UNL1        0.0101
     18 C           8.4646   -1.9567   19.3879 C.3     1  UNL1        0.0856
     19 C           4.5635   -2.6674   19.2247 C.3     1  UNL1        0.1247
     20 C           3.5259   -1.5847   19.2568 C.ar    1  UNL1       -0.0020
     21 C           3.4789   -0.5583   18.1640 C.ar    1  UNL1       -0.0027
     22 C           2.4413    0.5244   18.1962 C.ar    1  UNL1        0.0036
     23 C           1.4507    0.5808   19.3211 C.ar    1  UNL1        0.0714
     24 C           1.4977   -0.4456   20.4140 C.ar    1  UNL1        0.0036
     25 C           2.5353   -1.5283   20.3818 C.ar    1  UNL1       -0.0027
     26 C           0.4131    1.6636   19.3533 C.3     1  UNL1        0.4186
     27 F          -0.6245    2.7463   19.3854 F       1  UNL1       -0.1659
     28 F           0.4311    1.7253   17.8547 F       1  UNL1       -0.1659
     29 F           0.3951    1.6018   20.8518 F       1  UNL1       -0.1659
@<TRIPOS>BOND
     1    17    18    1
     2    18     1    1
     3     1     2    2
     4     1     3   am
     5     3    19    1
     6    19    20    1
     7    20    21   ar
     8    21    22   ar
     9    22    23   ar
    10    23    26    1
    11    26    27    1
    12    26    28    1
    13    26    29    1
    14    23    24   ar
    15    24    25   ar
    16     3     4    1
    17     4     5   ar
    18     5     6   ar
    19     6     7    1
    20     6     8   ar
    21     8     9   ar
    22     9    11    1
    23    11    12   ar
    24    12    13   ar
    25    13    14   ar
    26    14    15   ar
    27     9    10   ar
    28    25    20   ar
    29    10     4   ar
    30    15    11   ar
    31    15    16    1
