@<TRIPOS>MOLECULE
*****
 27 30 0 0 0
SMALL
GASTEIGER

@<TRIPOS>ATOM
      1 C         -13.5065   -4.6831   18.5694 C.ar    1  UNL1        0.2035
      2 N         -13.7165   -3.2209   18.3091 N.ar    1  UNL1       -0.2133
      3 C         -12.5571   -2.2720   18.3821 C.ar    1  UNL1        0.1065
      4 C         -11.1876   -2.7854   18.7152 C.ar    1  UNL1        0.0815
      5 C         -10.9776   -4.2476   18.9755 C.ar    1  UNL1        0.2646
      6 O          -9.6081   -4.7610   19.3086 O.2     1  UNL1       -0.2668
      7 N         -12.1371   -5.1965   18.9025 N.ar    1  UNL1       -0.2667
      8 C         -11.9271   -6.6588   19.1627 C.3     1  UNL1        0.1363
      9 C         -14.0755   -6.1635   16.0228 C.3     1  UNL1        0.0233
     10 C         -14.9505   -6.3722   17.2232 C.3     1  UNL1        0.0953
     11 C         -16.1099   -7.3210   17.1503 C.3     1  UNL1        0.1106
     12 N         -16.9849   -7.5296   18.3506 N.pl3   1  UNL1       -0.3041
     13 C         -16.7005   -6.7895   19.6239 C.3     1  UNL1        0.1123
     14 C         -15.5410   -5.8407   19.6968 C.3     1  UNL1        0.1149
     15 N         -14.6660   -5.6320   18.4964 N.pl3   1  UNL1       -0.2777
     16 C         -18.1444   -8.4785   18.2777 C.ar    1  UNL1        0.0479
     17 C         -19.1181   -8.5618   19.4157 C.ar    1  UNL1        0.0145
     18 C         -20.2775   -9.5107   19.3428 C.ar    1  UNL1        0.0013
     19 C         -20.4634  -10.3762   18.1318 C.ar    1  UNL1        0.0001
     20 C         -19.4898  -10.2929   16.9938 C.ar    1  UNL1        0.0013
     21 C         -18.3303   -9.3440   17.0668 C.ar    1  UNL1        0.0145
     22 C         -12.7671   -0.8098   18.1219 C.ar    1  UNL1        0.1024
     23 C         -11.7318   -0.0252   17.3718 C.ar    1  UNL1        0.0414
     24 C         -11.9419    1.4371   17.1116 C.ar    1  UNL1        0.1023
     25 N         -13.1872    2.1147   17.6014 N.ar    1  UNL1       -0.2224
     26 C         -14.2225    1.3301   18.3515 C.ar    1  UNL1        0.1989
     27 N         -14.0125   -0.1321   18.6117 N.ar    1  UNL1       -0.2224
@<TRIPOS>BOND
     1    10     9    1
     2    10    11    1
     3    11    12    1
     4    12    16    1
     5    16    17   ar
     6    17    18   ar
     7    18    19   ar
     8    19    20   ar
     9    20    21   ar
    10    12    13    1
    11    13    14    1
    12    14    15    1
    13    15     1    1
    14     1     2   ar
    15     2     3   ar
    16     3    22    1
    17    22    23   ar
    18    23    24   ar
    19    24    25   ar
    20    25    26   ar
    21    26    27   ar
    22     3     4   ar
    23     4     5   ar
    24     5     6    2
    25     5     7   ar
    26     7     8    1
    27    15    10    1
    28     7     1   ar
    29    21    16   ar
    30    27    22   ar
@<TRIPOS>MOLECULE
*****
 27 30 0 0 0
SMALL
GASTEIGER

@<TRIPOS>ATOM
      1 C         -12.7461   -4.0129   17.1698 C.ar    1  UNL1        0.2035
      2 N         -13.2174   -2.5964   17.3151 N.ar    1  UNL1       -0.2133
      3 C         -12.2393   -1.4650   17.2005 C.ar    1  UNL1        0.1065
      4 C         -10.7897   -1.7501   16.9404 C.ar    1  UNL1        0.0815
      5 C         -10.3184   -3.1667   16.7951 C.ar    1  UNL1        0.2646
      6 O          -8.8689   -3.4519   16.5351 O.2     1  UNL1       -0.2668
      7 N         -11.2966   -4.2981   16.9098 N.ar    1  UNL1       -0.2667
      8 C         -10.8252   -5.7147   16.7644 C.3     1  UNL1        0.1363
      9 C         -13.2422   -5.3029   19.8325 C.3     1  UNL1        0.0233
     10 C         -13.9723   -5.7893   18.6158 C.3     1  UNL1        0.0953
     11 C         -14.9505   -6.9207   18.7304 C.3     1  UNL1        0.1106
     12 N         -15.6806   -7.4071   17.5137 N.pl3   1  UNL1       -0.3041
     13 C         -15.4326   -6.7621   16.1824 C.3     1  UNL1        0.1123
     14 C         -14.4544   -5.6307   16.0678 C.3     1  UNL1        0.1149
     15 N         -13.7243   -5.1444   17.2845 N.pl3   1  UNL1       -0.2777
     16 C         -16.6588   -8.5385   17.6284 C.ar    1  UNL1        0.0479
     17 C         -16.3070   -9.7556   18.4315 C.ar    1  UNL1        0.0145
     18 C         -17.2851  -10.8869   18.5462 C.ar    1  UNL1        0.0013
     19 C         -18.6151  -10.8013   17.8578 C.ar    1  UNL1        0.0001
     20 C         -18.9669   -9.5842   17.0547 C.ar    1  UNL1        0.0013
     21 C         -17.9887   -8.4528   16.9401 C.ar    1  UNL1        0.0145
     22 C         -12.7107   -0.0484   17.3458 C.ar    1  UNL1        0.1024
     23 C         -13.8623    0.2695   18.2527 C.ar    1  UNL1        0.0414
     24 C         -14.3337    1.6861   18.3981 C.ar    1  UNL1        0.1023
     25 N         -13.6534    2.7848   17.6365 N.ar    1  UNL1       -0.2224
     26 C         -12.5016    2.4669   16.7295 C.ar    1  UNL1        0.1989
     27 N         -12.0303    1.0503   16.5842 N.ar    1  UNL1       -0.2224
@<TRIPOS>BOND
     1    10     9    1
     2    10    11    1
     3    11    12    1
     4    12    16    1
     5    16    17   ar
     6    17    18   ar
     7    18    19   ar
     8    19    20   ar
     9    20    21   ar
    10    12    13    1
    11    13    14    1
    12    14    15    1
    13    15     1    1
    14     1     2   ar
    15     2     3   ar
    16     3    22    1
    17    22    23   ar
    18    23    24   ar
    19    24    25   ar
    20    25    26   ar
    21    26    27   ar
    22     3     4   ar
    23     4     5   ar
    24     5     6    2
    25     5     7   ar
    26     7     8    1
    27    15    10    1
    28     7     1   ar
    29    21    16   ar
    30    27    22   ar
@<TRIPOS>MOLECULE
*****
 27 30 0 0 0
SMALL
GASTEIGER

@<TRIPOS>ATOM
      1 C         -13.6987   -2.1428   18.2299 C.ar    1  UNL1        0.2035
      2 N         -14.5512   -0.9537   18.5605 N.ar    1  UNL1       -0.2133
      3 C         -13.9884    0.4310   18.4346 C.ar    1  UNL1        0.1065
      4 C         -12.5729    0.6266   17.9781 C.ar    1  UNL1        0.0815
      5 C         -11.7204   -0.5625   17.6474 C.ar    1  UNL1        0.2646
      6 O         -10.3051   -0.3669   17.1909 O.2     1  UNL1       -0.2668
      7 N         -12.2834   -1.9472   17.7733 N.ar    1  UNL1       -0.2667
      8 C         -11.4309   -3.1363   17.4427 C.3     1  UNL1        0.1363
      9 C         -13.6986   -3.5258   20.8921 C.3     1  UNL1        0.0233
     10 C         -14.2616   -4.2189   19.6869 C.3     1  UNL1        0.0953
     11 C         -14.8245   -5.6036   19.8127 C.3     1  UNL1        0.1106
     12 N         -15.3875   -6.2967   18.6075 N.pl3   1  UNL1       -0.3041
     13 C         -15.3875   -5.6053   17.2764 C.3     1  UNL1        0.1123
     14 C         -14.8246   -4.2206   17.1505 C.3     1  UNL1        0.1149
     15 N         -14.2617   -3.5275   18.3558 N.pl3   1  UNL1       -0.2777
     16 C         -15.9504   -7.6814   18.7334 C.ar    1  UNL1        0.0479
     17 C         -15.3201   -8.8182   17.9847 C.ar    1  UNL1        0.0145
     18 C         -15.8830  -10.2029   18.1106 C.ar    1  UNL1        0.0013
     19 C         -17.0762  -10.4508   18.9852 C.ar    1  UNL1        0.0001
     20 C         -17.7065   -9.3140   19.7338 C.ar    1  UNL1        0.0013
     21 C         -17.1436   -7.9293   19.6079 C.ar    1  UNL1        0.0145
     22 C         -14.8408    1.6200   18.7653 C.ar    1  UNL1        0.1024
     23 C         -16.0896    1.4450   19.5776 C.ar    1  UNL1        0.0414
     24 C         -16.9421    2.6341   19.9082 C.ar    1  UNL1        0.1023
     25 N         -16.5458    3.9982   19.4266 N.ar    1  UNL1       -0.2224
     26 C         -15.2970    4.1733   18.6143 C.ar    1  UNL1        0.1989
     27 N         -14.4445    2.9842   18.2836 N.ar    1  UNL1       -0.2224
@<TRIPOS>BOND
     1    10     9    1
     2    10    11    1
     3    11    12    1
     4    12    16    1
     5    16    17   ar
     6    17    18   ar
     7    18    19   ar
     8    19    20   ar
     9    20    21   ar
    10    12    13    1
    11    13    14    1
    12    14    15    1
    13    15     1    1
    14     1     2   ar
    15     2     3   ar
    16     3    22    1
    17    22    23   ar
    18    23    24   ar
    19    24    25   ar
    20    25    26   ar
    21    26    27   ar
    22     3     4   ar
    23     4     5   ar
    24     5     6    2
    25     5     7   ar
    26     7     8    1
    27    15    10    1
    28     7     1   ar
    29    21    16   ar
    30    27    22   ar
@<TRIPOS>MOLECULE
*****
 27 30 0 0 0
SMALL
GASTEIGER

@<TRIPOS>ATOM
      1 C         -14.1082   -5.2163   18.1647 C.ar    1  UNL1        0.2035
      2 N         -15.2371   -6.2040   18.1531 N.ar    1  UNL1       -0.2133
      3 C         -14.9517   -7.6674   17.9890 C.ar    1  UNL1        0.1065
      4 C         -13.5373   -8.1432   17.8366 C.ar    1  UNL1        0.0815
      5 C         -12.4084   -7.1555   17.8482 C.ar    1  UNL1        0.2646
      6 O         -10.9940   -7.6312   17.6958 O.2     1  UNL1       -0.2668
      7 N         -12.6939   -5.6921   18.0123 N.ar    1  UNL1       -0.2667
      8 C         -11.5650   -4.7044   18.0239 C.3     1  UNL1        0.1363
      9 C         -14.3148   -4.0270   20.9112 C.3     1  UNL1        0.0233
     10 C         -14.4970   -3.1583   19.7020 C.3     1  UNL1        0.0953
     11 C         -14.7826   -1.6949   19.8660 C.3     1  UNL1        0.1106
     12 N         -14.9648   -0.8261   18.6568 N.pl3   1  UNL1       -0.3041
     13 C         -14.8615   -1.4208   17.2837 C.3     1  UNL1        0.1123
     14 C         -14.5760   -2.8841   17.1196 C.3     1  UNL1        0.1149
     15 N         -14.3938   -3.7529   18.3288 N.pl3   1  UNL1       -0.2777
     16 C         -15.2503    0.6373   18.8209 C.ar    1  UNL1        0.0479
     17 C         -16.2151    1.1000   19.8722 C.ar    1  UNL1        0.0145
     18 C         -16.5006    2.5633   20.0363 C.ar    1  UNL1        0.0013
     19 C         -15.8214    3.5642   19.1491 C.ar    1  UNL1        0.0001
     20 C         -14.8566    3.1015   18.0978 C.ar    1  UNL1        0.0013
     21 C         -14.5711    1.6381   17.9337 C.ar    1  UNL1        0.0145
     22 C         -16.0805   -8.6551   17.9774 C.ar    1  UNL1        0.1024
     23 C         -17.3882   -8.2920   17.3385 C.ar    1  UNL1        0.0414
     24 C         -18.5170   -9.2797   17.3268 C.ar    1  UNL1        0.1023
     25 N         -18.3383  -10.6304   17.9542 N.ar    1  UNL1       -0.2224
     26 C         -17.0306  -10.9935   18.5932 C.ar    1  UNL1        0.1989
     27 N         -15.9017  -10.0059   18.6048 N.ar    1  UNL1       -0.2224
@<TRIPOS>BOND
     1    10     9    1
     2    10    11    1
     3    11    12    1
     4    12    16    1
     5    16    17   ar
     6    17    18   ar
     7    18    19   ar
     8    19    20   ar
     9    20    21   ar
    10    12    13    1
    11    13    14    1
    12    14    15    1
    13    15     1    1
    14     1     2   ar
    15     2     3   ar
    16     3    22    1
    17    22    23   ar
    18    23    24   ar
    19    24    25   ar
    20    25    26   ar
    21    26    27   ar
    22     3     4   ar
    23     4     5   ar
    24     5     6    2
    25     5     7   ar
    26     7     8    1
    27    15    10    1
    28     7     1   ar
    29    21    16   ar
    30    27    22   ar
@<TRIPOS>MOLECULE
*****
 27 30 0 0 0
SMALL
GASTEIGER

@<TRIPOS>ATOM
      1 C          -0.5311    2.3068   21.1981 C.ar    1  UNL1        0.2035
      2 N          -1.7166    2.6026   20.3279 N.ar    1  UNL1       -0.2133
      3 C          -2.8630    3.4041   20.8694 C.ar    1  UNL1        0.1065
      4 C          -2.8241    3.9098   22.2811 C.ar    1  UNL1        0.0815
      5 C          -1.6387    3.6139   23.1513 C.ar    1  UNL1        0.2646
      6 O          -1.5997    4.1196   24.5629 O.2     1  UNL1       -0.2668
      7 N          -0.4921    2.8124   22.6098 N.ar    1  UNL1       -0.2667
      8 C           0.6933    2.5166   23.4799 C.3     1  UNL1        0.1363
      9 C           1.8619    3.7013   20.0453 C.3     1  UNL1        0.0233
     10 C           1.8118    2.2026   20.0802 C.3     1  UNL1        0.0953
     11 C           2.9583    1.4011   19.5387 C.3     1  UNL1        0.1106
     12 N           2.9083   -0.0977   19.5736 N.pl3   1  UNL1       -0.3041
     13 C           1.7118   -0.7950   20.1500 C.3     1  UNL1        0.1123
     14 C           0.5654    0.0065   20.6915 C.3     1  UNL1        0.1149
     15 N           0.6154    1.5053   20.6566 N.pl3   1  UNL1       -0.2777
     16 C           4.0548   -0.8992   19.0321 C.ar    1  UNL1        0.0479
     17 C           5.2793   -0.2029   18.5166 C.ar    1  UNL1        0.0145
     18 C           6.4257   -1.0043   17.9751 C.ar    1  UNL1        0.0013
     19 C           6.3478   -2.5021   17.9490 C.ar    1  UNL1        0.0001
     20 C           5.1232   -3.1984   18.4645 C.ar    1  UNL1        0.0013
     21 C           3.9767   -2.3969   19.0061 C.ar    1  UNL1        0.0145
     22 C          -4.0485    3.6999   19.9992 C.ar    1  UNL1        0.1024
     23 C          -5.4178    3.7952   20.6041 C.ar    1  UNL1        0.0414
     24 C          -6.6032    4.0910   19.7340 C.ar    1  UNL1        0.1023
     25 N          -6.4194    4.2915   18.2589 N.ar    1  UNL1       -0.2224
     26 C          -5.0500    4.1962   17.6539 C.ar    1  UNL1        0.1989
     27 N          -3.8646    3.9004   18.5241 N.ar    1  UNL1       -0.2224
@<TRIPOS>BOND
     1    10     9    1
     2    10    11    1
     3    11    12    1
     4    12    16    1
     5    16    17   ar
     6    17    18   ar
     7    18    19   ar
     8    19    20   ar
     9    20    21   ar
    10    12    13    1
    11    13    14    1
    12    14    15    1
    13    15     1    1
    14     1     2   ar
    15     2     3   ar
    16     3    22    1
    17    22    23   ar
    18    23    24   ar
    19    24    25   ar
    20    25    26   ar
    21    26    27   ar
    22     3     4   ar
    23     4     5   ar
    24     5     6    2
    25     5     7   ar
    26     7     8    1
    27    15    10    1
    28     7     1   ar
    29    21    16   ar
    30    27    22   ar
@<TRIPOS>MOLECULE
*****
 27 30 0 0 0
SMALL
GASTEIGER

@<TRIPOS>ATOM
      1 C          -0.4068    2.6264   20.1598 C.ar    1  UNL1        0.2035
      2 N          -1.7437    2.7267   20.8326 N.ar    1  UNL1       -0.2133
      3 C          -2.7170    3.7879   20.4125 C.ar    1  UNL1        0.1065
      4 C          -2.3534    4.7488   19.3195 C.ar    1  UNL1        0.0815
      5 C          -1.0165    4.6485   18.6467 C.ar    1  UNL1        0.2646
      6 O          -0.6529    5.6093   17.5537 O.2     1  UNL1       -0.2668
      7 N          -0.0432    3.5872   19.0668 N.ar    1  UNL1       -0.2667
      8 C           1.2937    3.4868   18.3940 C.3     1  UNL1        0.1363
      9 C           1.5478    3.1733   22.3689 C.3     1  UNL1        0.0233
     10 C           1.5438    1.8386   21.6845 C.3     1  UNL1        0.0953
     11 C           2.5170    0.7773   22.1046 C.3     1  UNL1        0.1106
     12 N           2.5129   -0.5574   21.4202 N.pl3   1  UNL1       -0.3041
     13 C           1.5356   -0.8309   20.3157 C.3     1  UNL1        0.1123
     14 C           0.5624    0.2303   19.8955 C.3     1  UNL1        0.1149
     15 N           0.5664    1.5651   20.5799 N.pl3   1  UNL1       -0.2777
     16 C           3.4862   -1.6187   21.8404 C.ar    1  UNL1        0.0479
     17 C           3.9430   -1.6949   23.2671 C.ar    1  UNL1        0.0145
     18 C           4.9163   -2.7561   23.6873 C.ar    1  UNL1        0.0013
     19 C           5.4327   -3.7412   22.6808 C.ar    1  UNL1        0.0001
     20 C           4.9758   -3.6650   21.2541 C.ar    1  UNL1        0.0013
     21 C           4.0025   -2.6037   20.8339 C.ar    1  UNL1        0.0145
     22 C          -4.0539    3.8883   21.0853 C.ar    1  UNL1        0.1024
     23 C          -4.2097    3.4540   22.5125 C.ar    1  UNL1        0.0414
     24 C          -5.5466    3.5544   23.1853 C.ar    1  UNL1        0.1023
     25 N          -6.7276    4.0891   22.4309 N.ar    1  UNL1       -0.2224
     26 C          -6.5718    4.5234   21.0036 C.ar    1  UNL1        0.1989
     27 N          -5.2349    4.4230   20.3308 N.ar    1  UNL1       -0.2224
@<TRIPOS>BOND
     1    10     9    1
     2    10    11    1
     3    11    12    1
     4    12    16    1
     5    16    17   ar
     6    17    18   ar
     7    18    19   ar
     8    19    20   ar
     9    20    21   ar
    10    12    13    1
    11    13    14    1
    12    14    15    1
    13    15     1    1
    14     1     2   ar
    15     2     3   ar
    16     3    22    1
    17    22    23   ar
    18    23    24   ar
    19    24    25   ar
    20    25    26   ar
    21    26    27   ar
    22     3     4   ar
    23     4     5   ar
    24     5     6    2
    25     5     7   ar
    26     7     8    1
    27    15    10    1
    28     7     1   ar
    29    21    16   ar
    30    27    22   ar
@<TRIPOS>MOLECULE
*****
 27 30 0 0 0
SMALL
GASTEIGER

@<TRIPOS>ATOM
      1 C           6.1030   -2.1723   20.8185 C.ar    1  UNL1        0.2035
      2 N           6.1502   -3.0502   22.0339 N.ar    1  UNL1       -0.2133
      3 C           7.3259   -3.9534   22.2615 C.ar    1  UNL1        0.1065
      4 C           8.4545   -3.9788   21.2737 C.ar    1  UNL1        0.0815
      5 C           8.4073   -3.1009   20.0583 C.ar    1  UNL1        0.2646
      6 O           9.5359   -3.1262   19.0705 O.2     1  UNL1       -0.2668
      7 N           7.2315   -2.1976   19.8308 N.ar    1  UNL1       -0.2667
      8 C           7.1843   -1.3197   18.6154 C.3     1  UNL1        0.1363
      9 C           3.6592   -3.2135   19.4242 C.3     1  UNL1        0.0233
     10 C           3.7054   -1.7896   19.8938 C.3     1  UNL1        0.0953
     11 C           2.5297   -0.8864   19.6663 C.3     1  UNL1        0.1106
     12 N           2.5758    0.5374   20.1359 N.pl3   1  UNL1       -0.3041
     13 C           3.7976    1.0580   20.8331 C.3     1  UNL1        0.1123
     14 C           4.9733    0.1548   21.0606 C.3     1  UNL1        0.1149
     15 N           4.9272   -1.2690   20.5910 N.pl3   1  UNL1       -0.2777
     16 C           1.4000    1.4407   19.9084 C.ar    1  UNL1        0.0479
     17 C           0.4157    1.6835   21.0139 C.ar    1  UNL1        0.0145
     18 C          -0.7600    2.5867   20.7864 C.ar    1  UNL1        0.0013
     19 C          -0.9516    3.2472   19.4533 C.ar    1  UNL1        0.0001
     20 C           0.0327    3.0044   18.3477 C.ar    1  UNL1        0.0013
     21 C           1.2085    2.1011   18.5753 C.ar    1  UNL1        0.0145
     22 C           7.3731   -4.8313   23.4768 C.ar    1  UNL1        0.1024
     23 C           6.8234   -4.3360   24.7816 C.ar    1  UNL1        0.0414
     24 C           6.8706   -5.2139   25.9969 C.ar    1  UNL1        0.1023
     25 N           7.4674   -6.5871   25.9075 N.ar    1  UNL1       -0.2224
     26 C           8.0171   -7.0825   24.6027 C.ar    1  UNL1        0.1989
     27 N           7.9700   -6.2046   23.3873 N.ar    1  UNL1       -0.2224
@<TRIPOS>BOND
     1    10     9    1
     2    10    11    1
     3    11    12    1
     4    12    16    1
     5    16    17   ar
     6    17    18   ar
     7    18    19   ar
     8    19    20   ar
     9    20    21   ar
    10    12    13    1
    11    13    14    1
    12    14    15    1
    13    15     1    1
    14     1     2   ar
    15     2     3   ar
    16     3    22    1
    17    22    23   ar
    18    23    24   ar
    19    24    25   ar
    20    25    26   ar
    21    26    27   ar
    22     3     4   ar
    23     4     5   ar
    24     5     6    2
    25     5     7   ar
    26     7     8    1
    27    15    10    1
    28     7     1   ar
    29    21    16   ar
    30    27    22   ar
@<TRIPOS>MOLECULE
*****
 27 30 0 0 0
SMALL
GASTEIGER

@<TRIPOS>ATOM
      1 C         -13.9059   -4.3796   18.8266 C.ar    1  UNL1        0.2035
      2 N         -14.7824   -5.5968   18.8365 N.ar    1  UNL1       -0.2133
      3 C         -14.1678   -6.9631   18.9094 C.ar    1  UNL1        0.1065
      4 C         -12.6765   -7.1123   18.9725 C.ar    1  UNL1        0.0815
      5 C         -11.7999   -5.8951   18.9626 C.ar    1  UNL1        0.2646
      6 O         -10.3087   -6.0441   19.0256 O.2     1  UNL1       -0.2668
      7 N         -12.4147   -4.5287   18.8897 N.ar    1  UNL1       -0.2667
      8 C         -11.5382   -3.3115   18.8798 C.3     1  UNL1        0.1363
      9 C         -14.2193   -3.0154   16.1732 C.3     1  UNL1        0.0233
     10 C         -14.6773   -2.3312   17.4270 C.3     1  UNL1        0.0953
     11 C         -15.2921   -0.9649   17.3542 C.3     1  UNL1        0.1106
     12 N         -15.7501   -0.2807   18.6080 N.pl3   1  UNL1       -0.3041
     13 C         -15.5934   -0.9628   19.9347 C.3     1  UNL1        0.1123
     14 C         -14.9787   -2.3291   20.0075 C.3     1  UNL1        0.1149
     15 N         -14.5206   -3.0133   18.7537 N.pl3   1  UNL1       -0.2777
     16 C         -16.3649    1.0856   18.5351 C.ar    1  UNL1        0.0479
     17 C         -15.6955    2.2462   19.2096 C.ar    1  UNL1        0.0145
     18 C         -16.3101    3.6125   19.1368 C.ar    1  UNL1        0.0013
     19 C         -17.5943    3.8183   18.3893 C.ar    1  UNL1        0.0001
     20 C         -18.2637    2.6577   17.7147 C.ar    1  UNL1        0.0013
     21 C         -17.6489    1.2914   17.7876 C.ar    1  UNL1        0.0145
     22 C         -15.0443   -8.1803   18.9193 C.ar    1  UNL1        0.1024
     23 C         -16.3282   -8.1737   19.6948 C.ar    1  UNL1        0.0414
     24 C         -17.2047   -9.3909   19.7047 C.ar    1  UNL1        0.1023
     25 N         -16.7974  -10.6147   18.9391 N.ar    1  UNL1       -0.2224
     26 C         -15.5134  -10.6214   18.1635 C.ar    1  UNL1        0.1989
     27 N         -14.6368   -9.4042   18.1536 N.ar    1  UNL1       -0.2224
@<TRIPOS>BOND
     1    10     9    1
     2    10    11    1
     3    11    12    1
     4    12    16    1
     5    16    17   ar
     6    17    18   ar
     7    18    19   ar
     8    19    20   ar
     9    20    21   ar
    10    12    13    1
    11    13    14    1
    12    14    15    1
    13    15     1    1
    14     1     2   ar
    15     2     3   ar
    16     3    22    1
    17    22    23   ar
    18    23    24   ar
    19    24    25   ar
    20    25    26   ar
    21    26    27   ar
    22     3     4   ar
    23     4     5   ar
    24     5     6    2
    25     5     7   ar
    26     7     8    1
    27    15    10    1
    28     7     1   ar
    29    21    16   ar
    30    27    22   ar
@<TRIPOS>MOLECULE
*****
 27 30 0 0 0
SMALL
GASTEIGER

@<TRIPOS>ATOM
      1 C           3.2825    2.4450   34.1549 C.ar    1  UNL1        0.2035
      2 N           2.4559    2.0848   35.3536 N.ar    1  UNL1       -0.2133
      3 C           3.0140    2.2722   36.7333 C.ar    1  UNL1        0.1065
      4 C           4.3987    2.8199   36.9142 C.ar    1  UNL1        0.0815
      5 C           5.2253    3.1800   35.7155 C.ar    1  UNL1        0.2646
      6 O           6.6100    3.7276   35.8964 O.2     1  UNL1       -0.2668
      7 N           4.6672    2.9926   34.3358 N.ar    1  UNL1       -0.2667
      8 C           5.4938    3.3528   33.1371 C.3     1  UNL1        0.1363
      9 C           3.6626   -0.1646   32.7247 C.3     1  UNL1        0.0233
     10 C           2.9145    0.9528   32.0602 C.3     1  UNL1        0.0953
     11 C           2.3564    0.7654   30.6806 C.3     1  UNL1        0.1106
     12 N           1.6082    1.8828   30.0160 N.pl3   1  UNL1       -0.3041
     13 C           1.4181    3.1876   30.7311 C.3     1  UNL1        0.1123
     14 C           1.9762    3.3750   32.1107 C.3     1  UNL1        0.1149
     15 N           2.7244    2.2576   32.7752 N.pl3   1  UNL1       -0.2777
     16 C           1.0500    1.6954   28.6363 C.ar    1  UNL1        0.0479
     17 C          -0.4087    1.9314   28.3790 C.ar    1  UNL1        0.0145
     18 C          -0.9669    1.7440   26.9994 C.ar    1  UNL1        0.0013
     19 C          -0.0662    1.3205   25.8771 C.ar    1  UNL1        0.0001
     20 C           1.3926    1.0845   26.1344 C.ar    1  UNL1        0.0013
     21 C           1.9507    1.2719   27.5141 C.ar    1  UNL1        0.0145
     22 C           2.1874    1.9121   37.9320 C.ar    1  UNL1        0.1024
     23 C           2.4646    0.6418   38.6800 C.ar    1  UNL1        0.0414
     24 C           1.6380    0.2817   39.8788 C.ar    1  UNL1        0.1023
     25 N           0.5341    1.1917   40.3295 N.ar    1  UNL1       -0.2224
     26 C           0.2568    2.4620   39.5814 C.ar    1  UNL1        0.1989
     27 N           1.0834    2.8222   38.3827 N.ar    1  UNL1       -0.2224
@<TRIPOS>BOND
     1    10     9    1
     2    10    11    1
     3    11    12    1
     4    12    16    1
     5    16    17   ar
     6    17    18   ar
     7    18    19   ar
     8    19    20   ar
     9    20    21   ar
    10    12    13    1
    11    13    14    1
    12    14    15    1
    13    15     1    1
    14     1     2   ar
    15     2     3   ar
    16     3    22    1
    17    22    23   ar
    18    23    24   ar
    19    24    25   ar
    20    25    26   ar
    21    26    27   ar
    22     3     4   ar
    23     4     5   ar
    24     5     6    2
    25     5     7   ar
    26     7     8    1
    27    15    10    1
    28     7     1   ar
    29    21    16   ar
    30    27    22   ar
