@<TRIPOS>MOLECULE
*****
 28 30 0 0 0
SMALL
GASTEIGER

@<TRIPOS>ATOM
      1 O          -5.5302  -20.4889   21.9415 O.3     1  UNL1       -0.4689
      2 C          -4.5291  -19.3935   22.1601 C.ar    1  UNL1        0.1422
      3 C          -3.0868  -19.6155   21.8133 C.ar    1  UNL1        0.0371
      4 C          -2.0856  -18.5201   22.0319 C.ar    1  UNL1        0.0062
      5 C          -2.5268  -17.2027   22.5973 C.ar    1  UNL1        0.0371
      6 C          -3.9692  -16.9807   22.9442 C.ar    1  UNL1        0.1416
      7 C          -4.9703  -18.0761   22.7255 C.ar    1  UNL1        0.0738
      8 O          -4.4105  -15.6633   23.5096 O.3     1  UNL1       -0.4754
      9 C          -5.6087  -15.5970   24.4097 C.3     1  UNL1        0.2057
     10 C          -5.4261  -15.4847   25.8943 C.3     1  UNL1        0.0561
     11 C          -6.5624  -15.0210   26.7567 C.3     1  UNL1        0.1072
     12 C          -7.6621  -15.9728   27.1240 C.3     1  UNL1        0.3979
     13 F          -8.7617  -16.9245   27.4913 F       1  UNL1       -0.1700
     14 F          -6.7023  -16.7550   27.9707 F       1  UNL1       -0.1700
     15 F          -8.6219  -15.1906   26.2773 F       1  UNL1       -0.1700
     16 C          -6.5717  -20.3505   20.8709 C.3     1  UNL1        0.2506
     17 C          -8.4384  -19.4692   18.6940 C.3     1  UNL1        0.0358
     18 C          -8.8728  -19.4000   20.1281 C.2     1  UNL1        0.0342
     19 C          -7.9394  -19.8406   21.2166 C.2     1  UNL1        0.1013
     20 N          -8.3738  -19.7714   22.6506 N.2     1  UNL1       -0.2501
     21 C          -9.7415  -19.2616   22.9963 C.2     1  UNL1        0.0661
     22 C         -10.1758  -19.1924   24.4303 C.3     1  UNL1        0.0718
     23 C         -11.5435  -18.6826   24.7759 C.2     1  UNL1       -0.0198
     24 C         -12.4769  -18.2419   23.6875 C.2     1  UNL1       -0.0040
     25 C         -12.0425  -18.3111   22.2534 C.2     1  UNL1        0.0040
     26 C         -10.6749  -18.8209   21.9078 C.2     1  UNL1        0.0525
     27 C         -10.2405  -18.8902   20.4737 C.2     1  UNL1        0.1940
     28 O         -11.1738  -18.4495   19.3853 O.2     1  UNL1       -0.2868
@<TRIPOS>BOND
     1    17    18    1
     2    18    19    2
     3    19    16    1
     4    16     1    1
     5     1     2    1
     6     2     3   ar
     7     3     4   ar
     8     4     5   ar
     9     5     6   ar
    10     6     8    1
    11     8     9    1
    12     9    10    1
    13    10    11    1
    14    11    12    1
    15    12    13    1
    16    12    14    1
    17    12    15    1
    18     6     7   ar
    19    19    20    1
    20    20    21    2
    21    21    22    1
    22    22    23    1
    23    23    24    2
    24    24    25    1
    25    25    26    2
    26    26    27    1
    27    27    28    2
    28    27    18    1
    29     7     2   ar
    30    26    21    1
@<TRIPOS>MOLECULE
*****
 28 30 0 0 0
SMALL
GASTEIGER

@<TRIPOS>ATOM
      1 O          -4.6399  -15.9834   23.8893 O.3     1  UNL1       -0.4689
      2 C          -5.8155  -15.8034   24.8033 C.ar    1  UNL1        0.1422
      3 C          -5.5973  -15.5735   26.2694 C.ar    1  UNL1        0.0371
      4 C          -6.7730  -15.3934   27.1835 C.ar    1  UNL1        0.0062
      5 C          -8.1668  -15.4433   26.6314 C.ar    1  UNL1        0.0371
      6 C          -8.3849  -15.6732   25.1652 C.ar    1  UNL1        0.1416
      7 C          -7.2093  -15.8532   24.2512 C.ar    1  UNL1        0.0738
      8 O          -9.7787  -15.7231   24.6132 O.3     1  UNL1       -0.4754
      9 C         -10.0883  -16.6002   23.4363 C.3     1  UNL1        0.2057
     10 C         -11.3237  -17.4511   23.4395 C.3     1  UNL1        0.0561
     11 C         -11.3844  -18.6819   24.2946 C.3     1  UNL1        0.1072
     12 C         -10.2617  -19.6760   24.2589 C.3     1  UNL1        0.3979
     13 F          -9.1389  -20.6701   24.2233 F       1  UNL1       -0.1700
     14 F          -9.7169  -19.1066   25.5352 F       1  UNL1       -0.1700
     15 F         -10.8064  -20.2455   22.9826 F       1  UNL1       -0.1700
     16 C          -4.1632  -17.3629   23.5433 C.3     1  UNL1        0.2506
     17 C          -2.6384  -19.3019   21.8359 C.3     1  UNL1        0.0358
     18 C          -4.1160  -19.1321   21.6412 C.2     1  UNL1        0.0342
     19 C          -4.8784  -18.1626   22.4949 C.2     1  UNL1        0.1013
     20 N          -6.3560  -17.9928   22.3003 N.2     1  UNL1       -0.2501
     21 C          -7.0712  -18.7924   21.2519 C.2     1  UNL1        0.0661
     22 C          -8.5488  -18.6226   21.0573 C.3     1  UNL1        0.0718
     23 C          -9.2639  -19.4223   20.0089 C.2     1  UNL1       -0.0198
     24 C          -8.5015  -20.3918   19.1552 C.2     1  UNL1       -0.0040
     25 C          -7.0239  -20.5616   19.3499 C.2     1  UNL1        0.0040
     26 C          -6.3088  -19.7619   20.3982 C.2     1  UNL1        0.0525
     27 C          -4.8311  -19.9317   20.5929 C.2     1  UNL1        0.1940
     28 O          -4.0687  -20.9012   19.7392 O.2     1  UNL1       -0.2868
@<TRIPOS>BOND
     1    17    18    1
     2    18    19    2
     3    19    16    1
     4    16     1    1
     5     1     2    1
     6     2     3   ar
     7     3     4   ar
     8     4     5   ar
     9     5     6   ar
    10     6     8    1
    11     8     9    1
    12     9    10    1
    13    10    11    1
    14    11    12    1
    15    12    13    1
    16    12    14    1
    17    12    15    1
    18     6     7   ar
    19    19    20    1
    20    20    21    2
    21    21    22    1
    22    22    23    1
    23    23    24    2
    24    24    25    1
    25    25    26    2
    26    26    27    1
    27    27    28    2
    28    27    18    1
    29     7     2   ar
    30    26    21    1
@<TRIPOS>MOLECULE
*****
 28 30 0 0 0
SMALL
GASTEIGER

@<TRIPOS>ATOM
      1 O          -5.0479  -14.9767   23.6211 O.3     1  UNL1       -0.4689
      2 C          -6.2155  -15.3007   24.5052 C.ar    1  UNL1        0.1422
      3 C          -6.0620  -15.2563   25.9967 C.ar    1  UNL1        0.0371
      4 C          -7.2296  -15.5804   26.8809 C.ar    1  UNL1        0.0062
      5 C          -8.5507  -15.9489   26.2736 C.ar    1  UNL1        0.0371
      6 C          -8.7042  -15.9933   24.7821 C.ar    1  UNL1        0.1416
      7 C          -7.5366  -15.6693   23.8979 C.ar    1  UNL1        0.0738
      8 O         -10.0253  -16.3619   24.1748 O.3     1  UNL1       -0.4754
      9 C         -10.2695  -17.7655   23.7052 C.3     1  UNL1        0.2057
     10 C         -11.6203  -18.3923   23.8852 C.3     1  UNL1        0.0561
     11 C         -12.8271  -17.7690   23.2489 C.3     1  UNL1        0.1072
     12 C         -12.6924  -17.0272   21.9521 C.3     1  UNL1        0.3979
     13 F         -12.5578  -16.2854   20.6554 F       1  UNL1       -0.1700
     14 F         -12.5785  -18.3305   21.2184 F       1  UNL1       -0.1700
     15 F         -12.8064  -15.7239   22.6858 F       1  UNL1       -0.1700
     16 C          -3.8771  -15.9117   23.5522 C.3     1  UNL1        0.2506
     17 C          -1.6222  -16.3058   21.6130 C.3     1  UNL1        0.0358
     18 C          -2.7717  -17.2694   21.6326 C.2     1  UNL1        0.0342
     19 C          -3.8991  -17.0724   22.6022 C.2     1  UNL1        0.1013
     20 N          -5.0485  -18.0359   22.6218 N.2     1  UNL1       -0.2501
     21 C          -5.0705  -19.1966   21.6718 C.2     1  UNL1        0.0661
     22 C          -6.2199  -20.1601   21.6914 C.3     1  UNL1        0.0718
     23 C          -6.2418  -21.3207   20.7415 C.2     1  UNL1       -0.0198
     24 C          -5.1144  -21.5178   19.7719 C.2     1  UNL1       -0.0040
     25 C          -3.9650  -20.5543   19.7523 C.2     1  UNL1        0.0040
     26 C          -3.9431  -19.3937   20.7022 C.2     1  UNL1        0.0525
     27 C          -2.7936  -18.4300   20.6826 C.2     1  UNL1        0.1940
     28 O          -1.6662  -18.6271   19.7131 O.2     1  UNL1       -0.2868
@<TRIPOS>BOND
     1    17    18    1
     2    18    19    2
     3    19    16    1
     4    16     1    1
     5     1     2    1
     6     2     3   ar
     7     3     4   ar
     8     4     5   ar
     9     5     6   ar
    10     6     8    1
    11     8     9    1
    12     9    10    1
    13    10    11    1
    14    11    12    1
    15    12    13    1
    16    12    14    1
    17    12    15    1
    18     6     7   ar
    19    19    20    1
    20    20    21    2
    21    21    22    1
    22    22    23    1
    23    23    24    2
    24    24    25    1
    25    25    26    2
    26    26    27    1
    27    27    28    2
    28    27    18    1
    29     7     2   ar
    30    26    21    1
@<TRIPOS>MOLECULE
*****
 28 30 0 0 0
SMALL
GASTEIGER

@<TRIPOS>ATOM
      1 O          -6.6069  -20.2987   21.2624 O.3     1  UNL1       -0.4689
      2 C          -5.2993  -19.6203   21.5449 C.ar    1  UNL1        0.1422
      3 C          -4.0612  -20.0431   20.8112 C.ar    1  UNL1        0.0371
      4 C          -2.7535  -19.3647   21.0937 C.ar    1  UNL1        0.0062
      5 C          -2.6840  -18.2636   22.1099 C.ar    1  UNL1        0.0371
      6 C          -3.9222  -17.8408   22.8436 C.ar    1  UNL1        0.1416
      7 C          -5.2298  -18.5192   22.5611 C.ar    1  UNL1        0.0738
      8 O          -3.8526  -16.7397   23.8598 O.3     1  UNL1       -0.4754
      9 C          -4.9942  -15.7770   24.0018 C.3     1  UNL1        0.2057
     10 C          -5.6085  -15.5355   25.3488 C.3     1  UNL1        0.0561
     11 C          -7.0899  -15.3353   25.4724 C.3     1  UNL1        0.1072
     12 C          -7.8129  -15.8202   26.6939 C.3     1  UNL1        0.3979
     13 F          -8.5359  -16.3052   27.9154 F       1  UNL1       -0.1700
     14 F          -6.7757  -15.1746   27.5642 F       1  UNL1       -0.1700
     15 F          -8.8501  -16.4659   25.8237 F       1  UNL1       -0.1700
     16 C          -7.6375  -20.4216   22.3454 C.3     1  UNL1        0.2506
     17 C          -9.6080  -20.5295   24.6049 C.3     1  UNL1        0.0358
     18 C          -9.8621  -19.6317   23.4304 C.2     1  UNL1        0.0342
     19 C          -8.8768  -19.5777   22.3006 C.2     1  UNL1        0.1013
     20 N          -9.1309  -18.6800   21.1261 N.2     1  UNL1       -0.2501
     21 C         -10.3702  -17.8361   21.0814 C.2     1  UNL1        0.0661
     22 C         -10.6243  -16.9383   19.9069 C.3     1  UNL1        0.0718
     23 C         -11.8636  -16.0945   19.8622 C.2     1  UNL1       -0.0198
     24 C         -12.8488  -16.1484   20.9919 C.2     1  UNL1       -0.0040
     25 C         -12.5948  -17.0462   22.1664 C.2     1  UNL1        0.0040
     26 C         -11.3555  -17.8900   22.2111 C.2     1  UNL1        0.0525
     27 C         -11.1014  -18.7878   23.3857 C.2     1  UNL1        0.1940
     28 O         -12.0866  -18.8418   24.5154 O.2     1  UNL1       -0.2868
@<TRIPOS>BOND
     1    17    18    1
     2    18    19    2
     3    19    16    1
     4    16     1    1
     5     1     2    1
     6     2     3   ar
     7     3     4   ar
     8     4     5   ar
     9     5     6   ar
    10     6     8    1
    11     8     9    1
    12     9    10    1
    13    10    11    1
    14    11    12    1
    15    12    13    1
    16    12    14    1
    17    12    15    1
    18     6     7   ar
    19    19    20    1
    20    20    21    2
    21    21    22    1
    22    22    23    1
    23    23    24    2
    24    24    25    1
    25    25    26    2
    26    26    27    1
    27    27    28    2
    28    27    18    1
    29     7     2   ar
    30    26    21    1
@<TRIPOS>MOLECULE
*****
 28 30 0 0 0
SMALL
GASTEIGER

@<TRIPOS>ATOM
      1 O          -9.1746  -18.6232   19.8625 O.3     1  UNL1       -0.4689
      2 C          -7.8445  -19.0847   20.3799 C.ar    1  UNL1        0.1422
      3 C          -7.2897  -20.4092   19.9464 C.ar    1  UNL1        0.0371
      4 C          -5.9596  -20.8708   20.4639 C.ar    1  UNL1        0.0062
      5 C          -5.1843  -20.0079   21.4148 C.ar    1  UNL1        0.0371
      6 C          -5.7391  -18.6833   21.8483 C.ar    1  UNL1        0.1416
      7 C          -7.0692  -18.2218   21.3309 C.ar    1  UNL1        0.0738
      8 O          -4.9638  -17.8204   22.7992 O.3     1  UNL1       -0.4754
      9 C          -3.4934  -18.0477   22.9897 C.3     1  UNL1        0.2057
     10 C          -2.5014  -17.1719   22.2834 C.3     1  UNL1        0.0561
     11 C          -1.6611  -17.7332   21.1748 C.3     1  UNL1        0.1072
     12 C          -2.3052  -18.5101   20.0651 C.3     1  UNL1        0.3979
     13 F          -2.9493  -19.2871   18.9554 F       1  UNL1       -0.1700
     14 F          -1.9041  -19.7932   20.7306 F       1  UNL1       -0.1700
     15 F          -2.7063  -17.2271   19.3996 F       1  UNL1       -0.1700
     16 C         -10.1158  -17.8841   20.7669 C.3     1  UNL1        0.2506
     17 C         -10.7389  -20.2535   22.4982 C.3     1  UNL1        0.0358
     18 C         -10.1600  -19.0110   23.1075 C.2     1  UNL1        0.0342
     19 C          -9.8484  -17.8263   22.2418 C.2     1  UNL1        0.1013
     20 N          -9.2695  -16.5838   22.8509 N.2     1  UNL1       -0.2501
     21 C          -9.0022  -16.5260   24.3258 C.2     1  UNL1        0.0661
     22 C          -8.4233  -15.2835   24.9350 C.3     1  UNL1        0.0718
     23 C          -8.1560  -15.2257   26.4098 C.2     1  UNL1       -0.0198
     24 C          -8.4675  -16.4104   27.2755 C.2     1  UNL1       -0.0040
     25 C          -9.0464  -17.6529   26.6663 C.2     1  UNL1        0.0040
     26 C          -9.3137  -17.7107   25.1915 C.2     1  UNL1        0.0525
     27 C          -9.8927  -18.9532   24.5823 C.2     1  UNL1        0.1940
     28 O         -10.2042  -20.1379   25.4480 O.2     1  UNL1       -0.2868
@<TRIPOS>BOND
     1    17    18    1
     2    18    19    2
     3    19    16    1
     4    16     1    1
     5     1     2    1
     6     2     3   ar
     7     3     4   ar
     8     4     5   ar
     9     5     6   ar
    10     6     8    1
    11     8     9    1
    12     9    10    1
    13    10    11    1
    14    11    12    1
    15    12    13    1
    16    12    14    1
    17    12    15    1
    18     6     7   ar
    19    19    20    1
    20    20    21    2
    21    21    22    1
    22    22    23    1
    23    23    24    2
    24    24    25    1
    25    25    26    2
    26    26    27    1
    27    27    28    2
    28    27    18    1
    29     7     2   ar
    30    26    21    1
@<TRIPOS>MOLECULE
*****
 28 30 0 0 0
SMALL
GASTEIGER

@<TRIPOS>ATOM
      1 O          -7.1573  -14.5157   24.5504 O.3     1  UNL1       -0.4689
      2 C          -6.0122  -15.4797   24.6479 C.ar    1  UNL1        0.1422
      3 C          -5.5064  -15.9097   25.9930 C.ar    1  UNL1        0.0371
      4 C          -4.3612  -16.8737   26.0906 C.ar    1  UNL1        0.0062
      5 C          -3.7220  -17.4076   24.8431 C.ar    1  UNL1        0.0371
      6 C          -4.2278  -16.9775   23.4980 C.ar    1  UNL1        0.1416
      7 C          -5.3729  -16.0136   23.4004 C.ar    1  UNL1        0.0738
      8 O          -3.5885  -17.5115   22.2505 O.3     1  UNL1       -0.4754
      9 C          -4.1852  -18.6961   21.5500 C.3     1  UNL1        0.2057
     10 C          -5.0229  -19.6767   22.3159 C.3     1  UNL1        0.0561
     11 C          -6.4863  -19.8094   22.0143 C.3     1  UNL1        0.1072
     12 C          -7.0004  -19.4961   20.6405 C.3     1  UNL1        0.3979
     13 F          -7.5144  -19.1827   19.2666 F       1  UNL1       -0.1700
     14 F          -7.3078  -18.0938   21.0753 F       1  UNL1       -0.1700
     15 F          -6.6929  -20.8984   20.2056 F       1  UNL1       -0.1700
     16 C          -8.5488  -14.9682   24.8804 C.3     1  UNL1        0.2506
     17 C          -8.8545  -17.4197   26.5824 C.3     1  UNL1        0.0358
     18 C          -9.2403  -17.4598   25.1334 C.2     1  UNL1        0.0342
     19 C          -9.0875  -16.2341   24.2824 C.2     1  UNL1        0.1013
     20 N          -9.4733  -16.2741   22.8334 N.2     1  UNL1       -0.2501
     21 C         -10.0119  -17.5399   22.2354 C.2     1  UNL1        0.0661
     22 C         -10.3977  -17.5800   20.7865 C.3     1  UNL1        0.0718
     23 C         -10.9364  -18.8458   20.1885 C.2     1  UNL1       -0.0198
     24 C         -11.0892  -20.0715   21.0395 C.2     1  UNL1       -0.0040
     25 C         -10.7034  -20.0315   22.4885 C.2     1  UNL1        0.0040
     26 C         -10.1648  -18.7657   23.0864 C.2     1  UNL1        0.0525
     27 C          -9.7790  -18.7256   24.5354 C.2     1  UNL1        0.1940
     28 O          -9.9318  -19.9513   25.3864 O.2     1  UNL1       -0.2868
@<TRIPOS>BOND
     1    17    18    1
     2    18    19    2
     3    19    16    1
     4    16     1    1
     5     1     2    1
     6     2     3   ar
     7     3     4   ar
     8     4     5   ar
     9     5     6   ar
    10     6     8    1
    11     8     9    1
    12     9    10    1
    13    10    11    1
    14    11    12    1
    15    12    13    1
    16    12    14    1
    17    12    15    1
    18     6     7   ar
    19    19    20    1
    20    20    21    2
    21    21    22    1
    22    22    23    1
    23    23    24    2
    24    24    25    1
    25    25    26    2
    26    26    27    1
    27    27    28    2
    28    27    18    1
    29     7     2   ar
    30    26    21    1
@<TRIPOS>MOLECULE
*****
 28 30 0 0 0
SMALL
GASTEIGER

@<TRIPOS>ATOM
      1 O         -11.2273  -19.3110   22.6685 O.3     1  UNL1       -0.4689
      2 C         -10.2284  -19.5194   21.5691 C.ar    1  UNL1        0.1422
      3 C         -10.6866  -19.5865   20.1424 C.ar    1  UNL1        0.0371
      4 C          -9.6877  -19.7949   19.0429 C.ar    1  UNL1        0.0062
      5 C          -8.2307  -19.9361   19.3702 C.ar    1  UNL1        0.0371
      6 C          -7.7725  -19.8690   20.7970 C.ar    1  UNL1        0.1416
      7 C          -8.7714  -19.6606   21.8964 C.ar    1  UNL1        0.0738
      8 O          -6.3155  -20.0102   21.1243 O.3     1  UNL1       -0.4754
      9 C          -5.2807  -19.4354   20.2029 C.3     1  UNL1        0.2057
     10 C          -3.8674  -19.9349   20.2575 C.3     1  UNL1        0.0561
     11 C          -2.9591  -19.4958   21.3675 C.3     1  UNL1        0.1072
     12 C          -3.3220  -18.3075   22.2079 C.3     1  UNL1        0.3979
     13 F          -3.6849  -17.1191   23.0482 F       1  UNL1       -0.1700
     14 F          -4.0095  -19.2108   23.1883 F       1  UNL1       -0.1700
     15 F          -2.6344  -17.4041   21.2274 F       1  UNL1       -0.1700
     16 C         -11.3760  -17.9587   23.3004 C.3     1  UNL1        0.2506
     17 C          -9.8410  -16.2319   21.3868 C.3     1  UNL1        0.0358
     18 C          -9.3949  -16.3498   22.8141 C.2     1  UNL1        0.0342
     19 C         -10.1624  -17.2132   23.7709 C.2     1  UNL1        0.1013
     20 N          -9.7163  -17.3311   25.1982 N.2     1  UNL1       -0.2501
     21 C          -8.5027  -16.5855   25.6687 C.2     1  UNL1        0.0661
     22 C          -8.0566  -16.7034   27.0960 C.3     1  UNL1        0.0718
     23 C          -6.8430  -15.9579   27.5664 C.2     1  UNL1       -0.0198
     24 C          -6.0755  -15.0945   26.6096 C.2     1  UNL1       -0.0040
     25 C          -6.5216  -14.9766   25.1824 C.2     1  UNL1        0.0040
     26 C          -7.7352  -15.7221   24.7119 C.2     1  UNL1        0.0525
     27 C          -8.1813  -15.6043   23.2846 C.2     1  UNL1        0.1940
     28 O          -7.4138  -14.7409   22.3278 O.2     1  UNL1       -0.2868
@<TRIPOS>BOND
     1    17    18    1
     2    18    19    2
     3    19    16    1
     4    16     1    1
     5     1     2    1
     6     2     3   ar
     7     3     4   ar
     8     4     5   ar
     9     5     6   ar
    10     6     8    1
    11     8     9    1
    12     9    10    1
    13    10    11    1
    14    11    12    1
    15    12    13    1
    16    12    14    1
    17    12    15    1
    18     6     7   ar
    19    19    20    1
    20    20    21    2
    21    21    22    1
    22    22    23    1
    23    23    24    2
    24    24    25    1
    25    25    26    2
    26    26    27    1
    27    27    28    2
    28    27    18    1
    29     7     2   ar
    30    26    21    1
@<TRIPOS>MOLECULE
*****
 28 30 0 0 0
SMALL
GASTEIGER

@<TRIPOS>ATOM
      1 O          -9.3638  -16.5112   25.1192 O.3     1  UNL1       -0.4689
      2 C          -7.9496  -16.0602   25.3348 C.ar    1  UNL1        0.1422
      3 C          -7.4902  -15.6621   26.7061 C.ar    1  UNL1        0.0371
      4 C          -6.0759  -15.2110   26.9218 C.ar    1  UNL1        0.0062
      5 C          -5.1212  -15.1579   25.7661 C.ar    1  UNL1        0.0371
      6 C          -5.5806  -15.5560   24.3948 C.ar    1  UNL1        0.1416
      7 C          -6.9948  -16.0071   24.1792 C.ar    1  UNL1        0.0738
      8 O          -4.6259  -15.5029   23.2391 O.3     1  UNL1       -0.4754
      9 C          -3.4929  -16.4826   23.1566 C.3     1  UNL1        0.2057
     10 C          -3.7488  -17.8885   22.7007 C.3     1  UNL1        0.0561
     11 C          -2.8693  -18.5102   21.6567 C.3     1  UNL1        0.1072
     12 C          -3.3541  -19.6964   20.8771 C.3     1  UNL1        0.3979
     13 F          -3.8388  -20.8827   20.0975 F       1  UNL1       -0.1700
     14 F          -4.1325  -20.1632   22.0713 F       1  UNL1       -0.1700
     15 F          -2.5756  -19.2297   19.6829 F       1  UNL1       -0.1700
     16 C         -10.0744  -16.1677   23.8437 C.3     1  UNL1        0.2506
     17 C         -12.1815  -16.1882   21.7083 C.3     1  UNL1        0.0358
     18 C         -10.9617  -17.0497   21.5666 C.2     1  UNL1        0.0342
     19 C          -9.9081  -17.0394   22.6343 C.2     1  UNL1        0.1013
     20 N          -8.6884  -17.9009   22.4927 N.2     1  UNL1       -0.2501
     21 C          -8.5221  -18.7726   21.2833 C.2     1  UNL1        0.0661
     22 C          -7.3023  -19.6340   21.1416 C.3     1  UNL1        0.0718
     23 C          -7.1361  -20.5056   19.9323 C.2     1  UNL1       -0.0198
     24 C          -8.1896  -20.5159   18.8646 C.2     1  UNL1       -0.0040
     25 C          -9.4094  -19.6545   19.0062 C.2     1  UNL1        0.0040
     26 C          -9.5756  -18.7828   20.2156 C.2     1  UNL1        0.0525
     27 C         -10.7954  -17.9213   20.3573 C.2     1  UNL1        0.1940
     28 O         -11.8490  -17.9316   19.2896 O.2     1  UNL1       -0.2868
@<TRIPOS>BOND
     1    17    18    1
     2    18    19    2
     3    19    16    1
     4    16     1    1
     5     1     2    1
     6     2     3   ar
     7     3     4   ar
     8     4     5   ar
     9     5     6   ar
    10     6     8    1
    11     8     9    1
    12     9    10    1
    13    10    11    1
    14    11    12    1
    15    12    13    1
    16    12    14    1
    17    12    15    1
    18     6     7   ar
    19    19    20    1
    20    20    21    2
    21    21    22    1
    22    22    23    1
    23    23    24    2
    24    24    25    1
    25    25    26    2
    26    26    27    1
    27    27    28    2
    28    27    18    1
    29     7     2   ar
    30    26    21    1
@<TRIPOS>MOLECULE
*****
 28 30 0 0 0
SMALL
GASTEIGER

@<TRIPOS>ATOM
      1 O          -6.0915  -16.3958   23.5990 O.3     1  UNL1       -0.4689
      2 C          -5.8494  -17.6968   22.8927 C.ar    1  UNL1        0.1422
      3 C          -7.0078  -18.4919   22.3675 C.ar    1  UNL1        0.0371
      4 C          -6.7658  -19.7929   21.6612 C.ar    1  UNL1        0.0062
      5 C          -5.3653  -20.2988   21.4801 C.ar    1  UNL1        0.0371
      6 C          -4.2069  -19.5036   22.0053 C.ar    1  UNL1        0.1416
      7 C          -4.4489  -18.2026   22.7115 C.ar    1  UNL1        0.0738
      8 O          -2.8064  -20.0094   21.8241 O.3     1  UNL1       -0.4754
      9 C          -2.1195  -19.8573   20.4993 C.3     1  UNL1        0.2057
     10 C          -2.6209  -18.8518   19.5056 C.3     1  UNL1        0.0561
     11 C          -2.0967  -17.4466   19.5308 C.3     1  UNL1        0.1072
     12 C          -0.6703  -17.1851   19.9143 C.3     1  UNL1        0.3979
     13 F           0.7560  -16.9235   20.2979 F       1  UNL1       -0.1700
     14 F          -0.2061  -17.9840   18.7327 F       1  UNL1       -0.1700
     15 F          -1.1346  -16.3861   21.0959 F       1  UNL1       -0.1700
     16 C          -7.3918  -16.1580   24.3080 C.3     1  UNL1        0.2506
     17 C          -9.4998  -17.8647   25.5899 C.3     1  UNL1        0.0358
     18 C          -9.7436  -17.2599   24.2390 C.2     1  UNL1        0.0342
     19 C          -8.6896  -16.4065   23.5981 C.2     1  UNL1        0.1013
     20 N          -8.9333  -15.8017   22.2472 N.2     1  UNL1       -0.2501
     21 C         -10.2311  -16.0502   21.5373 C.2     1  UNL1        0.0661
     22 C         -10.4749  -15.4453   20.1865 C.3     1  UNL1        0.0718
     23 C         -11.7726  -15.6938   19.4766 C.2     1  UNL1       -0.0198
     24 C         -12.8267  -16.5472   20.1175 C.2     1  UNL1       -0.0040
     25 C         -12.5830  -17.1520   21.4683 C.2     1  UNL1        0.0040
     26 C         -11.2852  -16.9035   22.1782 C.2     1  UNL1        0.0525
     27 C         -11.0414  -17.5084   23.5291 C.2     1  UNL1        0.1940
     28 O         -12.0954  -18.3617   24.1700 O.2     1  UNL1       -0.2868
@<TRIPOS>BOND
     1    17    18    1
     2    18    19    2
     3    19    16    1
     4    16     1    1
     5     1     2    1
     6     2     3   ar
     7     3     4   ar
     8     4     5   ar
     9     5     6   ar
    10     6     8    1
    11     8     9    1
    12     9    10    1
    13    10    11    1
    14    11    12    1
    15    12    13    1
    16    12    14    1
    17    12    15    1
    18     6     7   ar
    19    19    20    1
    20    20    21    2
    21    21    22    1
    22    22    23    1
    23    23    24    2
    24    24    25    1
    25    25    26    2
    26    26    27    1
    27    27    28    2
    28    27    18    1
    29     7     2   ar
    30    26    21    1
