@<TRIPOS>MOLECULE
*****
 22 25 0 0 0
SMALL
GASTEIGER

@<TRIPOS>ATOM
      1 C          -8.8466  -17.8857   20.9049 C.2     1  UNL1        0.3428
      2 O          -8.4249  -19.0052   20.0000 O.2     1  UNL1       -0.2448
      3 C         -14.2085  -18.5343   25.5375 C.3     1  UNL1        0.0268
      4 C         -13.1733  -18.3330   24.4709 C.2     1  UNL1       -0.0380
      5 C         -11.7653  -18.7991   24.6948 C.2     1  UNL1       -0.0081
      6 C         -10.7300  -18.5978   23.6282 C.2     1  UNL1        0.0008
      7 C         -11.1028  -17.9304   22.3376 C.2     1  UNL1        0.0216
      8 C         -10.3040  -17.5975   21.1124 C.2     1  UNL1        0.0958
      9 C         -11.2183  -16.9256   20.1313 C.2     1  UNL1        0.1049
     10 N         -12.5823  -16.8434   20.7500 N.2     1  UNL1       -0.2476
     11 C         -12.5108  -17.4644   22.1137 C.2     1  UNL1        0.0633
     12 C         -13.5461  -17.6657   23.1803 C.3     1  UNL1        0.0678
     13 O          -7.8109  -17.0545   21.6023 O.3     1  UNL1       -0.4454
     14 C          -8.2250  -15.8507   22.3955 C.3     1  UNL1        0.2087
     15 C          -7.7765  -15.6998   23.8190 C.3     1  UNL1        0.0445
     16 C          -6.3318  -15.4389   24.1265 C.3     1  UNL1        0.0210
     17 C          -5.8832  -15.2880   25.5499 C.3     1  UNL1        0.0722
     18 N          -6.8795  -15.3980   26.6658 N.3     1  UNL1       -0.2727
     19 C          -8.3242  -15.6590   26.3583 C.3     1  UNL1        0.0722
     20 C          -8.7728  -15.8098   24.9349 C.3     1  UNL1        0.0210
     21 C          -7.1727  -15.4879   25.9017 C.3     1  UNL1        0.0722
     22 C          -7.5782  -15.6243   24.6145 C.3     1  UNL1        0.0210
@<TRIPOS>BOND
     1     3     4    1
     2     4     5    2
     3     5     6    1
     4     6     7    2
     5     7     8    1
     6     8     1    1
     7     1     2    2
     8     1    13    1
     9    13    14    1
    10    14    15    1
    11    15    16    1
    12    16    17    1
    13    17    18    1
    14    18    19    1
    15    19    20    1
    16    18    21    1
    17    21    22    1
    18     8     9    2
    19     9    10    1
    20    10    11    2
    21    11    12    1
    22    12     4    1
    23    11     7    1
    24    20    15    1
    25    22    15    1
@<TRIPOS>MOLECULE
*****
 22 25 0 0 0
SMALL
GASTEIGER

@<TRIPOS>ATOM
      1 C          -8.8712  -18.6473   20.4681 C.2     1  UNL1        0.3428
      2 O          -8.6494  -19.7573   19.4840 O.2     1  UNL1       -0.2448
      3 C         -13.9749  -18.4441   25.4222 C.3     1  UNL1        0.0268
      4 C         -12.9901  -18.4127   24.2912 C.2     1  UNL1       -0.0380
      5 C         -11.6448  -19.0569   24.4500 C.2     1  UNL1       -0.0081
      6 C         -10.6600  -19.0255   23.3189 C.2     1  UNL1        0.0008
      7 C         -11.0205  -18.3499   22.0292 C.2     1  UNL1        0.0216
      8 C         -10.2620  -18.1607   20.7490 C.2     1  UNL1        0.0958
      9 C         -11.1385  -17.3996   19.7990 C.2     1  UNL1        0.1049
     10 N         -12.4387  -17.1183   20.4921 N.2     1  UNL1       -0.2476
     11 C         -12.3657  -17.7057   21.8704 C.2     1  UNL1        0.0633
     12 C         -13.3505  -17.7371   23.0014 C.3     1  UNL1        0.0678
     13 O          -7.7022  -18.0238   21.1714 O.3     1  UNL1       -0.4454
     14 C          -6.8554  -18.8487   22.0948 C.3     1  UNL1        0.2087
     15 C          -5.4832  -19.2801   21.6694 C.3     1  UNL1        0.0445
     16 C          -4.2789  -18.8031   22.4257 C.3     1  UNL1        0.0210
     17 C          -2.9066  -19.2345   22.0004 C.3     1  UNL1        0.0722
     18 N          -2.7387  -20.1430   20.8187 N.3     1  UNL1       -0.2727
     19 C          -3.9430  -20.6200   20.0624 C.3     1  UNL1        0.0722
     20 C          -5.3153  -20.1886   20.4877 C.3     1  UNL1        0.0210
     21 C          -3.5107  -19.9335   21.0141 C.3     1  UNL1        0.0722
     22 C          -4.7515  -19.5434   21.3987 C.3     1  UNL1        0.0210
@<TRIPOS>BOND
     1     3     4    1
     2     4     5    2
     3     5     6    1
     4     6     7    2
     5     7     8    1
     6     8     1    1
     7     1     2    2
     8     1    13    1
     9    13    14    1
    10    14    15    1
    11    15    16    1
    12    16    17    1
    13    17    18    1
    14    18    19    1
    15    19    20    1
    16    18    21    1
    17    21    22    1
    18     8     9    2
    19     9    10    1
    20    10    11    2
    21    11    12    1
    22    12     4    1
    23    11     7    1
    24    20    15    1
    25    22    15    1
@<TRIPOS>MOLECULE
*****
 22 25 0 0 0
SMALL
GASTEIGER

@<TRIPOS>ATOM
      1 C          -8.1446  -18.9243   20.3644 C.2     1  UNL1        0.3428
      2 O          -8.9506  -19.0083   19.1022 O.2     1  UNL1       -0.2448
      3 C         -14.0298  -17.9267   24.2376 C.3     1  UNL1        0.0268
      4 C         -12.7366  -18.2136   23.5337 C.2     1  UNL1       -0.0380
      5 C         -12.5035  -17.6867   22.1488 C.2     1  UNL1       -0.0081
      6 C         -11.2104  -17.9737   21.4450 C.2     1  UNL1        0.0008
      7 C         -10.1503  -18.7875   22.1261 C.2     1  UNL1        0.0216
      8 C          -8.7861  -19.2291   21.6856 C.2     1  UNL1        0.0958
      9 C          -8.1760  -20.0289   22.7984 C.2     1  UNL1        0.1049
     10 N          -9.1632  -20.0816   23.9265 N.2     1  UNL1       -0.2476
     11 C         -10.3834  -19.3143   23.5110 C.2     1  UNL1        0.0633
     12 C         -11.6765  -19.0274   24.2148 C.3     1  UNL1        0.0678
     13 O          -6.6970  -18.5356   20.3054 O.3     1  UNL1       -0.4454
     14 C          -5.6433  -19.5903   20.1401 C.3     1  UNL1        0.2087
     15 C          -4.2026  -19.2570   20.3916 C.3     1  UNL1        0.0445
     16 C          -3.3304  -18.7982   19.2608 C.3     1  UNL1        0.0210
     17 C          -1.8897  -18.4650   19.5123 C.3     1  UNL1        0.0722
     18 N          -1.3211  -18.5905   20.8946 N.3     1  UNL1       -0.2727
     19 C          -2.1933  -19.0493   22.0255 C.3     1  UNL1        0.0722
     20 C          -3.6341  -19.3826   21.7740 C.3     1  UNL1        0.0210
     21 C          -2.1164  -18.7844   20.8057 C.3     1  UNL1        0.0722
     22 C          -3.4192  -19.0858   20.5782 C.3     1  UNL1        0.0210
@<TRIPOS>BOND
     1     3     4    1
     2     4     5    2
     3     5     6    1
     4     6     7    2
     5     7     8    1
     6     8     1    1
     7     1     2    2
     8     1    13    1
     9    13    14    1
    10    14    15    1
    11    15    16    1
    12    16    17    1
    13    17    18    1
    14    18    19    1
    15    19    20    1
    16    18    21    1
    17    21    22    1
    18     8     9    2
    19     9    10    1
    20    10    11    2
    21    11    12    1
    22    12     4    1
    23    11     7    1
    24    20    15    1
    25    22    15    1
@<TRIPOS>MOLECULE
*****
 22 25 0 0 0
SMALL
GASTEIGER

@<TRIPOS>ATOM
      1 C          -6.9743  -19.1477   21.7218 C.2     1  UNL1        0.3428
      2 O          -6.3201  -17.9405   22.3257 O.2     1  UNL1       -0.2448
      3 C         -13.6701  -17.9396   23.8045 C.3     1  UNL1        0.0268
      4 C         -12.3116  -18.2139   23.2308 C.2     1  UNL1       -0.0380
      5 C         -11.1031  -18.1876   24.1190 C.2     1  UNL1       -0.0081
      6 C          -9.7446  -18.4620   23.5453 C.2     1  UNL1        0.0008
      7 C          -9.5945  -18.7625   22.0835 C.2     1  UNL1        0.0216
      8 C          -8.3927  -19.0701   21.2402 C.2     1  UNL1        0.0958
      9 C          -8.8584  -19.2865   19.8308 C.2     1  UNL1        0.1049
     10 N         -10.3481  -19.1126   19.8030 N.2     1  UNL1       -0.2476
     11 C         -10.8030  -18.7888   21.1953 C.2     1  UNL1        0.0633
     12 C         -12.1615  -18.5145   21.7690 C.3     1  UNL1        0.0678
     13 O          -6.2098  -20.4325   21.5994 O.3     1  UNL1       -0.4454
     14 C          -5.1870  -20.5962   20.5145 C.3     1  UNL1        0.2087
     15 C          -3.9862  -19.6982   20.4740 C.3     1  UNL1        0.0445
     16 C          -3.7775  -18.7770   19.3088 C.3     1  UNL1        0.0210
     17 C          -2.5767  -17.8790   19.2682 C.3     1  UNL1        0.0722
     18 N          -1.5846  -17.9021   20.3931 N.3     1  UNL1       -0.2727
     19 C          -1.7934  -18.8232   21.5583 C.3     1  UNL1        0.0722
     20 C          -2.9942  -19.7213   21.5989 C.3     1  UNL1        0.0210
     21 C          -2.2273  -18.4125   20.4598 C.3     1  UNL1        0.0722
     22 C          -3.3131  -19.2245   20.4963 C.3     1  UNL1        0.0210
@<TRIPOS>BOND
     1     3     4    1
     2     4     5    2
     3     5     6    1
     4     6     7    2
     5     7     8    1
     6     8     1    1
     7     1     2    2
     8     1    13    1
     9    13    14    1
    10    14    15    1
    11    15    16    1
    12    16    17    1
    13    17    18    1
    14    18    19    1
    15    19    20    1
    16    18    21    1
    17    21    22    1
    18     8     9    2
    19     9    10    1
    20    10    11    2
    21    11    12    1
    22    12     4    1
    23    11     7    1
    24    20    15    1
    25    22    15    1
@<TRIPOS>MOLECULE
*****
 22 25 0 0 0
SMALL
GASTEIGER

@<TRIPOS>ATOM
      1 C         -11.0012  -18.0796   23.2997 C.2     1  UNL1        0.3428
      2 O         -12.4526  -18.3890   23.5177 O.2     1  UNL1       -0.2448
      3 C          -5.2481  -20.8193   20.1330 C.3     1  UNL1        0.0268
      4 C          -6.5115  -20.2120   20.6669 C.2     1  UNL1       -0.0380
      5 C          -6.7455  -20.1476   22.1471 C.2     1  UNL1       -0.0081
      6 C          -8.0089  -19.5403   22.6810 C.2     1  UNL1        0.0008
      7 C          -9.0383  -18.9975   21.7346 C.2     1  UNL1        0.0216
      8 C         -10.3696  -18.3460   21.9655 C.2     1  UNL1        0.0958
      9 C         -10.9584  -18.0078   20.6280 C.2     1  UNL1        0.1049
     10 N          -9.9910  -18.4502   19.5704 N.2     1  UNL1       -0.2476
     11 C          -8.8043  -19.0619   20.2544 C.2     1  UNL1        0.0633
     12 C          -7.5409  -19.6691   19.7206 C.3     1  UNL1        0.0678
     13 O         -10.1813  -17.5037   24.4160 O.3     1  UNL1       -0.4454
     14 C          -9.5272  -16.1638   24.2522 C.3     1  UNL1        0.2087
     15 C          -8.2244  -15.8763   24.9378 C.3     1  UNL1        0.0445
     16 C          -8.1907  -15.6518   26.4205 C.3     1  UNL1        0.0210
     17 C          -6.8879  -15.3643   27.1062 C.3     1  UNL1        0.0722
     18 N          -5.6188  -15.3013   26.3090 N.3     1  UNL1       -0.2727
     19 C          -5.6525  -15.5257   24.8263 C.3     1  UNL1        0.0722
     20 C          -6.9553  -15.8133   24.1407 C.3     1  UNL1        0.0210
     21 C          -6.3086  -15.4619   25.8891 C.3     1  UNL1        0.0722
     22 C          -7.4866  -15.7219   25.2692 C.3     1  UNL1        0.0210
@<TRIPOS>BOND
     1     3     4    1
     2     4     5    2
     3     5     6    1
     4     6     7    2
     5     7     8    1
     6     8     1    1
     7     1     2    2
     8     1    13    1
     9    13    14    1
    10    14    15    1
    11    15    16    1
    12    16    17    1
    13    17    18    1
    14    18    19    1
    15    19    20    1
    16    18    21    1
    17    21    22    1
    18     8     9    2
    19     9    10    1
    20    10    11    2
    21    11    12    1
    22    12     4    1
    23    11     7    1
    24    20    15    1
    25    22    15    1
@<TRIPOS>MOLECULE
*****
 22 25 0 0 0
SMALL
GASTEIGER

@<TRIPOS>ATOM
      1 C          -6.3963  -18.8350   21.3899 C.2     1  UNL1        0.3428
      2 O          -6.3949  -18.6303   19.9040 O.2     1  UNL1       -0.2448
      3 C         -13.1920  -17.9584   23.3086 C.3     1  UNL1        0.0268
      4 C         -11.7271  -18.0335   22.9949 C.2     1  UNL1       -0.0380
      5 C         -11.2210  -19.0511   22.0160 C.2     1  UNL1       -0.0081
      6 C          -9.7560  -19.1262   21.7023 C.2     1  UNL1        0.0008
      7 C          -8.7973  -18.1838   22.3676 C.2     1  UNL1        0.0216
      8 C          -7.3101  -18.0220   22.2582 C.2     1  UNL1        0.0958
      9 C          -6.8971  -16.9045   23.1696 C.2     1  UNL1        0.1049
     10 N          -8.1290  -16.3756   23.8422 N.2     1  UNL1       -0.2476
     11 C          -9.3035  -17.1663   23.3466 C.2     1  UNL1        0.0633
     12 C         -10.7684  -17.0911   23.6602 C.3     1  UNL1        0.0678
     13 O          -5.4838  -19.8528   22.0075 O.3     1  UNL1       -0.4454
     14 C          -4.2188  -19.4138   22.6835 C.3     1  UNL1        0.2087
     15 C          -3.2339  -18.5550   21.9470 C.3     1  UNL1        0.0445
     16 C          -2.9690  -17.1527   22.4090 C.3     1  UNL1        0.0210
     17 C          -1.9841  -16.2938   21.6726 C.3     1  UNL1        0.0722
     18 N          -1.2642  -16.8372   20.4741 N.3     1  UNL1       -0.2727
     19 C          -1.5291  -18.2395   20.0121 C.3     1  UNL1        0.0722
     20 C          -2.5140  -19.0984   20.7486 C.3     1  UNL1        0.0210
     21 C          -1.7949  -17.3456   20.8453 C.3     1  UNL1        0.0722
     22 C          -2.6855  -18.1222   21.5113 C.3     1  UNL1        0.0210
@<TRIPOS>BOND
     1     3     4    1
     2     4     5    2
     3     5     6    1
     4     6     7    2
     5     7     8    1
     6     8     1    1
     7     1     2    2
     8     1    13    1
     9    13    14    1
    10    14    15    1
    11    15    16    1
    12    16    17    1
    13    17    18    1
    14    18    19    1
    15    19    20    1
    16    18    21    1
    17    21    22    1
    18     8     9    2
    19     9    10    1
    20    10    11    2
    21    11    12    1
    22    12     4    1
    23    11     7    1
    24    20    15    1
    25    22    15    1
@<TRIPOS>MOLECULE
*****
 22 25 0 0 0
SMALL
GASTEIGER

@<TRIPOS>ATOM
      1 C          -8.6641  -18.7457   23.2273 C.2     1  UNL1        0.3428
      2 O          -9.3850  -19.9011   23.8560 O.2     1  UNL1       -0.2448
      3 C          -2.3308  -18.9731   19.9918 C.3     1  UNL1        0.0268
      4 C          -3.7258  -18.9467   20.5424 C.2     1  UNL1       -0.0380
      5 C          -3.9485  -18.7405   22.0114 C.2     1  UNL1       -0.0081
      6 C          -5.3435  -18.7141   22.5621 C.2     1  UNL1        0.0008
      7 C          -6.5158  -18.8939   21.6438 C.2     1  UNL1        0.0216
      8 C          -7.9943  -18.9144   21.8958 C.2     1  UNL1        0.0958
      9 C          -8.6854  -19.1333   20.5826 C.2     1  UNL1        0.1049
     10 N          -7.6341  -19.2481   19.5190 N.2     1  UNL1       -0.2476
     11 C          -6.2931  -19.1001   20.1748 C.2     1  UNL1        0.0633
     12 C          -4.8981  -19.1265   19.6242 C.3     1  UNL1        0.0678
     13 O          -8.6131  -17.4215   23.9301 O.3     1  UNL1       -0.4454
     14 C          -9.7530  -16.4560   23.7945 C.3     1  UNL1        0.2087
     15 C         -10.7342  -16.6071   22.6700 C.3     1  UNL1        0.0445
     16 C         -11.9730  -17.4309   22.8613 C.3     1  UNL1        0.0210
     17 C         -12.9543  -17.5821   21.7369 C.3     1  UNL1        0.0722
     18 N         -12.6966  -16.9094   20.4211 N.3     1  UNL1       -0.2727
     19 C         -11.4577  -16.0857   20.2299 C.3     1  UNL1        0.0722
     20 C         -10.4765  -15.9345   21.3543 C.3     1  UNL1        0.0210
     21 C         -12.1299  -16.7975   21.0079 C.3     1  UNL1        0.0722
     22 C         -11.2427  -16.6609   22.0247 C.3     1  UNL1        0.0210
@<TRIPOS>BOND
     1     3     4    1
     2     4     5    2
     3     5     6    1
     4     6     7    2
     5     7     8    1
     6     8     1    1
     7     1     2    2
     8     1    13    1
     9    13    14    1
    10    14    15    1
    11    15    16    1
    12    16    17    1
    13    17    18    1
    14    18    19    1
    15    19    20    1
    16    18    21    1
    17    21    22    1
    18     8     9    2
    19     9    10    1
    20    10    11    2
    21    11    12    1
    22    12     4    1
    23    11     7    1
    24    20    15    1
    25    22    15    1
@<TRIPOS>MOLECULE
*****
 22 25 0 0 0
SMALL
GASTEIGER

@<TRIPOS>ATOM
      1 C          -7.8918  -17.4717   21.8144 C.2     1  UNL1        0.3428
      2 O          -6.6864  -18.0292   21.1171 O.2     1  UNL1       -0.2448
      3 C         -14.4644  -18.1594   24.4525 C.3     1  UNL1        0.0268
      4 C         -13.0491  -18.1445   23.9558 C.2     1  UNL1       -0.0380
      5 C         -12.5469  -16.9783   23.1572 C.2     1  UNL1       -0.0081
      6 C         -11.1316  -16.9634   22.6605 C.2     1  UNL1        0.0008
      7 C         -10.2185  -18.1145   22.9624 C.2     1  UNL1        0.0216
      8 C          -8.7849  -18.3781   22.6087 C.2     1  UNL1        0.0958
      9 C          -8.4011  -19.7071   23.1887 C.2     1  UNL1        0.1049
     10 N          -9.5976  -20.2650   23.9009 N.2     1  UNL1       -0.2476
     11 C         -10.7208  -19.2806   23.7610 C.2     1  UNL1        0.0633
     12 C         -12.1361  -19.2956   24.2577 C.3     1  UNL1        0.0678
     13 O          -8.2041  -16.0078   21.7173 O.3     1  UNL1       -0.4454
     14 C          -7.4411  -15.0213   22.5507 C.3     1  UNL1        0.2087
     15 C          -7.2884  -15.2452   24.0260 C.3     1  UNL1        0.0445
     16 C          -8.5044  -15.3735   24.8949 C.3     1  UNL1        0.0210
     17 C          -8.3518  -15.5975   26.3702 C.3     1  UNL1        0.0722
     18 N          -6.9832  -15.6932   26.9767 N.3     1  UNL1       -0.2727
     19 C          -5.7673  -15.5649   26.1077 C.3     1  UNL1        0.0722
     20 C          -5.9198  -15.3409   24.6324 C.3     1  UNL1        0.0210
     21 C          -7.0166  -15.5698   26.1632 C.3     1  UNL1        0.0722
     22 C          -7.1546  -15.3673   24.8292 C.3     1  UNL1        0.0210
@<TRIPOS>BOND
     1     3     4    1
     2     4     5    2
     3     5     6    1
     4     6     7    2
     5     7     8    1
     6     8     1    1
     7     1     2    2
     8     1    13    1
     9    13    14    1
    10    14    15    1
    11    15    16    1
    12    16    17    1
    13    17    18    1
    14    18    19    1
    15    19    20    1
    16    18    21    1
    17    21    22    1
    18     8     9    2
    19     9    10    1
    20    10    11    2
    21    11    12    1
    22    12     4    1
    23    11     7    1
    24    20    15    1
    25    22    15    1
@<TRIPOS>MOLECULE
*****
 22 25 0 0 0
SMALL
GASTEIGER

@<TRIPOS>ATOM
      1 C          -9.3481  -18.2078   20.9724 C.2     1  UNL1        0.3428
      2 O         -10.4545  -17.6657   20.1168 O.2     1  UNL1       -0.2448
      3 C          -8.1627  -15.5329   27.4586 C.3     1  UNL1        0.0268
      4 C          -8.4820  -16.2070   26.1572 C.2     1  UNL1       -0.0380
      5 C          -8.0367  -15.5907   24.8643 C.2     1  UNL1       -0.0081
      6 C          -8.3560  -16.2648   23.5629 C.2     1  UNL1        0.0008
      7 C          -9.1206  -17.5552   23.5545 C.2     1  UNL1        0.0216
      8 C          -9.5782  -18.4435   22.4357 C.2     1  UNL1        0.0958
      9 C         -10.3063  -19.6088   23.0373 C.2     1  UNL1        0.1049
     10 N         -10.2988  -19.4408   24.5278 N.2     1  UNL1       -0.2476
     11 C          -9.5659  -18.1715   24.8474 C.2     1  UNL1        0.0633
     12 C          -9.2466  -17.4974   26.1488 C.3     1  UNL1        0.0678
     13 O          -8.0114  -18.5142   20.3644 O.3     1  UNL1       -0.4454
     14 C          -7.2456  -19.7253   20.8081 C.3     1  UNL1        0.2087
     15 C          -5.7926  -19.6061   21.1609 C.3     1  UNL1        0.0445
     16 C          -4.7525  -20.2266   20.2759 C.3     1  UNL1        0.0210
     17 C          -3.2994  -20.1075   20.6286 C.3     1  UNL1        0.0722
     18 N          -2.8864  -19.3678   21.8665 N.3     1  UNL1       -0.2727
     19 C          -3.9264  -18.7473   22.7515 C.3     1  UNL1        0.0722
     20 C          -5.3795  -18.8664   22.3988 C.3     1  UNL1        0.0210
     21 C          -3.6947  -19.4067   21.7144 C.3     1  UNL1        0.0722
     22 C          -5.0086  -19.5144   21.3954 C.3     1  UNL1        0.0210
@<TRIPOS>BOND
     1     3     4    1
     2     4     5    2
     3     5     6    1
     4     6     7    2
     5     7     8    1
     6     8     1    1
     7     1     2    2
     8     1    13    1
     9    13    14    1
    10    14    15    1
    11    15    16    1
    12    16    17    1
    13    17    18    1
    14    18    19    1
    15    19    20    1
    16    18    21    1
    17    21    22    1
    18     8     9    2
    19     9    10    1
    20    10    11    2
    21    11    12    1
    22    12     4    1
    23    11     7    1
    24    20    15    1
    25    22    15    1
