@<TRIPOS>MOLECULE
*****
 23 24 0 0 0
SMALL
GASTEIGER

@<TRIPOS>ATOM
      1 O          -7.2828  -17.6620   21.1531 O.2     1  UNL1       -0.2751
      2 C          -7.5704  -19.0123   21.7396 C.2     1  UNL1        0.2224
      3 N          -6.4397  -19.9278   22.1046 N.am    1  UNL1       -0.3060
      4 H          -6.6285  -20.8141   22.4895 H       1  UNL1        0.1494
      5 C          -5.0213  -19.4930   21.8832 C.3     1  UNL1        0.0717
      6 C          -4.3537  -18.5813   22.8697 C.3     1  UNL1        0.0220
      7 C          -2.9352  -18.1465   22.6482 C.3     1  UNL1        0.0309
      8 C          -2.1845  -18.6233   21.4403 C.3     1  UNL1        0.1106
      9 O          -0.7660  -18.1885   21.2189 O.3     1  UNL1       -0.3845
     10 C          -2.8521  -19.5350   20.4539 C.3     1  UNL1        0.0309
     11 C          -4.2705  -19.9698   20.6753 C.3     1  UNL1        0.0220
     12 H          -0.4311  -18.5835   20.3987 H       1  UNL1        0.2103
     13 C          -8.9889  -19.4472   21.9610 C.3     1  UNL1        0.0850
     14 C          -9.4413  -19.8618   23.3297 C.3     1  UNL1        0.0096
     15 C          -9.5305  -18.8460   24.4298 C.3     1  UNL1        0.0008
     16 C         -10.2532  -17.5519   24.1990 C.3     1  UNL1        0.0047
     17 C          -9.4764  -16.2936   23.9474 C.3     1  UNL1        0.0264
     18 C          -8.2502  -15.9945   24.7580 C.ar    1  UNL1       -0.0222
     19 C          -8.3554  -15.8329   26.2455 C.ar    1  UNL1       -0.0043
     20 C          -7.1291  -15.5338   27.0559 C.ar    1  UNL1       -0.0003
     21 C          -5.7977  -15.3963   26.3789 C.ar    1  UNL1       -0.0000
     22 C          -5.6925  -15.5580   24.8914 C.ar    1  UNL1       -0.0003
     23 C          -6.9187  -15.8571   24.0809 C.ar    1  UNL1       -0.0043
@<TRIPOS>BOND
     1     1     2    2
     2     2    13    1
     3    13    14    1
     4    14    15    1
     5    15    16    1
     6    16    17    1
     7    17    18    1
     8    18    19   ar
     9    19    20   ar
    10    20    21   ar
    11    21    22   ar
    12    22    23   ar
    13     2     3   am
    14     5     3    1
    15     5     6    1
    16     6     7    1
    17     7     8    1
    18     8     9    1
    19     8    10    1
    20    10    11    1
    21    23    18   ar
    22    11     5    1
    23     3     4    1
    24     9    12    1
@<TRIPOS>MOLECULE
*****
 23 24 0 0 0
SMALL
GASTEIGER

@<TRIPOS>ATOM
      1 O          -7.3616  -17.4483   21.2800 O.2     1  UNL1       -0.2751
      2 C          -7.7347  -18.8754   21.0077 C.2     1  UNL1        0.2224
      3 N          -6.6639  -19.9150   20.8576 N.am    1  UNL1       -0.3060
      4 H          -6.9087  -20.8516   20.6789 H       1  UNL1        0.1494
      5 C          -5.2200  -19.5275   20.9798 C.3     1  UNL1        0.0717
      6 C          -4.3798  -19.3663   19.7476 C.3     1  UNL1        0.0220
      7 C          -2.9359  -18.9787   19.8699 C.3     1  UNL1        0.0309
      8 C          -2.3321  -18.7524   21.2242 C.3     1  UNL1        0.1106
      9 O          -0.8882  -18.3648   21.3464 O.3     1  UNL1       -0.3845
     10 C          -3.1723  -18.9136   22.4563 C.3     1  UNL1        0.0309
     11 C          -4.6162  -19.3011   22.3342 C.3     1  UNL1        0.0220
     12 H          -0.6601  -18.2584   22.2832 H       1  UNL1        0.2103
     13 C          -9.1786  -19.2629   20.8855 C.3     1  UNL1        0.0850
     14 C          -9.9871  -18.7848   19.7161 C.3     1  UNL1        0.0096
     15 C         -11.3593  -18.2195   19.9339 C.3     1  UNL1        0.0008
     16 C         -11.5269  -16.7698   20.2809 C.3     1  UNL1        0.0047
     17 C         -11.8713  -16.3697   21.6849 C.3     1  UNL1        0.0264
     18 C         -11.2366  -17.0793   22.8442 C.ar    1  UNL1       -0.0222
     19 C         -11.8791  -18.3095   23.4133 C.ar    1  UNL1       -0.0043
     20 C         -11.2444  -19.0191   24.5724 C.ar    1  UNL1       -0.0003
     21 C          -9.9674  -18.4985   25.1625 C.ar    1  UNL1       -0.0000
     22 C          -9.3250  -17.2683   24.5933 C.ar    1  UNL1       -0.0003
     23 C          -9.9596  -16.5588   23.4342 C.ar    1  UNL1       -0.0043
@<TRIPOS>BOND
     1     1     2    2
     2     2    13    1
     3    13    14    1
     4    14    15    1
     5    15    16    1
     6    16    17    1
     7    17    18    1
     8    18    19   ar
     9    19    20   ar
    10    20    21   ar
    11    21    22   ar
    12    22    23   ar
    13     2     3   am
    14     5     3    1
    15     5     6    1
    16     6     7    1
    17     7     8    1
    18     8     9    1
    19     8    10    1
    20    10    11    1
    21    23    18   ar
    22    11     5    1
    23     3     4    1
    24     9    12    1
@<TRIPOS>MOLECULE
*****
 23 24 0 0 0
SMALL
GASTEIGER

@<TRIPOS>ATOM
      1 O          -7.2885  -17.6432   21.2978 O.2     1  UNL1       -0.2751
      2 C          -6.8728  -19.0090   21.7580 C.2     1  UNL1        0.2224
      3 N          -7.8508  -19.8867   22.4811 N.am    1  UNL1       -0.3060
      4 H          -7.5780  -20.7831   22.7831 H       1  UNL1        0.1494
      5 C          -9.2446  -19.3986   22.7440 C.3     1  UNL1        0.0717
      6 C         -10.2489  -19.3616   21.6305 C.3     1  UNL1        0.0220
      7 C         -11.6427  -18.8735   21.8935 C.3     1  UNL1        0.0309
      8 C         -12.0322  -18.4224   23.2700 C.3     1  UNL1        0.1106
      9 O         -13.4260  -17.9343   23.5330 O.3     1  UNL1       -0.3845
     10 C         -11.0278  -18.4594   24.3835 C.3     1  UNL1        0.0309
     11 C          -9.6341  -18.9474   24.1206 C.3     1  UNL1        0.0220
     12 H         -13.5099  -17.6833   24.4662 H       1  UNL1        0.2103
     13 C          -5.4790  -19.4970   21.4950 C.3     1  UNL1        0.0850
     14 C          -4.3963  -19.2541   22.5043 C.3     1  UNL1        0.0096
     15 C          -3.8289  -17.8766   22.6787 C.3     1  UNL1        0.0008
     16 C          -4.1215  -17.0973   23.9266 C.3     1  UNL1        0.0047
     17 C          -5.0214  -15.8987   23.8686 C.3     1  UNL1        0.0264
     18 C          -6.1113  -15.7292   24.8853 C.ar    1  UNL1       -0.0222
     19 C          -7.5487  -15.7967   24.4621 C.ar    1  UNL1       -0.0043
     20 C          -8.6385  -15.6272   25.4788 C.ar    1  UNL1       -0.0003
     21 C          -8.2908  -15.3902   26.9185 C.ar    1  UNL1       -0.0000
     22 C          -6.8533  -15.3228   27.3417 C.ar    1  UNL1       -0.0003
     23 C          -5.7636  -15.4923   26.3250 C.ar    1  UNL1       -0.0043
@<TRIPOS>BOND
     1     1     2    2
     2     2    13    1
     3    13    14    1
     4    14    15    1
     5    15    16    1
     6    16    17    1
     7    17    18    1
     8    18    19   ar
     9    19    20   ar
    10    20    21   ar
    11    21    22   ar
    12    22    23   ar
    13     2     3   am
    14     5     3    1
    15     5     6    1
    16     6     7    1
    17     7     8    1
    18     8     9    1
    19     8    10    1
    20    10    11    1
    21    23    18   ar
    22    11     5    1
    23     3     4    1
    24     9    12    1
@<TRIPOS>MOLECULE
*****
 23 24 0 0 0
SMALL
GASTEIGER

@<TRIPOS>ATOM
      1 O          -7.0818  -17.7188   21.2377 O.2     1  UNL1       -0.2751
      2 C          -7.3037  -19.0529   21.8864 C.2     1  UNL1        0.2224
      3 N          -6.1316  -19.9210   22.2362 N.am    1  UNL1       -0.3060
      4 H          -6.2772  -20.7967   22.6620 H       1  UNL1        0.1494
      5 C          -4.7375  -19.4550   21.9373 C.3     1  UNL1        0.0717
      6 C          -4.0421  -19.9200   20.6922 C.3     1  UNL1        0.0220
      7 C          -2.6479  -19.4540   20.3933 C.3     1  UNL1        0.0309
      8 C          -1.9494  -18.5229   21.3394 C.3     1  UNL1        0.1106
      9 O          -0.5552  -18.0569   21.0405 O.3     1  UNL1       -0.3845
     10 C          -2.6448  -18.0579   22.5845 C.3     1  UNL1        0.0309
     11 C          -4.0389  -18.5240   22.8834 C.3     1  UNL1        0.0220
     12 H          -0.2536  -17.4650   21.7474 H       1  UNL1        0.2103
     13 C          -8.6979  -19.5189   22.1854 C.3     1  UNL1        0.0850
     14 C          -8.9848  -20.2580   23.4587 C.3     1  UNL1        0.0096
     15 C         -10.3928  -20.3603   23.9655 C.3     1  UNL1        0.0008
     16 C         -10.9914  -19.2307   24.7503 C.3     1  UNL1        0.0047
     17 C         -12.0515  -18.3677   24.1330 C.3     1  UNL1        0.0264
     18 C         -11.7530  -17.5894   22.8858 C.ar    1  UNL1       -0.0222
     19 C         -10.5500  -16.6952   22.8297 C.ar    1  UNL1       -0.0043
     20 C         -10.2515  -15.9170   21.5826 C.ar    1  UNL1       -0.0003
     21 C         -11.1560  -16.0330   20.3917 C.ar    1  UNL1       -0.0000
     22 C         -12.3590  -16.9272   20.4478 C.ar    1  UNL1       -0.0003
     23 C         -12.6575  -17.7054   21.6949 C.ar    1  UNL1       -0.0043
@<TRIPOS>BOND
     1     1     2    2
     2     2    13    1
     3    13    14    1
     4    14    15    1
     5    15    16    1
     6    16    17    1
     7    17    18    1
     8    18    19   ar
     9    19    20   ar
    10    20    21   ar
    11    21    22   ar
    12    22    23   ar
    13     2     3   am
    14     5     3    1
    15     5     6    1
    16     6     7    1
    17     7     8    1
    18     8     9    1
    19     8    10    1
    20    10    11    1
    21    23    18   ar
    22    11     5    1
    23     3     4    1
    24     9    12    1
@<TRIPOS>MOLECULE
*****
 23 24 0 0 0
SMALL
GASTEIGER

@<TRIPOS>ATOM
      1 O          -6.7572  -18.1020   20.7206 O.2     1  UNL1       -0.2751
      2 C          -6.5858  -19.1461   21.7838 C.2     1  UNL1        0.2224
      3 N          -5.2129  -19.4981   22.2749 N.am    1  UNL1       -0.3060
      4 H          -5.1004  -20.1833   22.9728 H       1  UNL1        0.1494
      5 C          -4.0114  -18.8060   21.7027 C.3     1  UNL1        0.0717
      6 C          -3.4591  -19.2362   20.3761 C.3     1  UNL1        0.0220
      7 C          -2.2576  -18.5441   19.8038 C.3     1  UNL1        0.0309
      8 C          -1.6084  -17.4219   20.5582 C.3     1  UNL1        0.1106
      9 O          -0.4069  -16.7298   19.9860 O.3     1  UNL1       -0.3845
     10 C          -2.1607  -16.9917   21.8848 C.3     1  UNL1        0.0309
     11 C          -3.3622  -17.6837   22.4570 C.3     1  UNL1        0.0220
     12 H          -0.1138  -16.0341   20.5951 H       1  UNL1        0.2103
     13 C          -7.7874  -19.8381   22.3561 C.3     1  UNL1        0.0850
     14 C          -8.8182  -19.0510   23.1096 C.3     1  UNL1        0.0096
     15 C          -9.6318  -18.0090   22.4009 C.3     1  UNL1        0.0008
     16 C          -9.5626  -16.5764   22.8402 C.3     1  UNL1        0.0047
     17 C          -9.4484  -16.2438   24.2984 C.3     1  UNL1        0.0264
     18 C          -8.1074  -15.9313   24.8936 C.ar    1  UNL1       -0.0222
     19 C          -6.9035  -15.8089   24.0072 C.ar    1  UNL1       -0.0043
     20 C          -5.5626  -15.4964   24.6023 C.ar    1  UNL1       -0.0003
     21 C          -5.4256  -15.3062   26.0839 C.ar    1  UNL1       -0.0000
     22 C          -6.6294  -15.4285   26.9703 C.ar    1  UNL1       -0.0003
     23 C          -7.9703  -15.7411   26.3751 C.ar    1  UNL1       -0.0043
@<TRIPOS>BOND
     1     1     2    2
     2     2    13    1
     3    13    14    1
     4    14    15    1
     5    15    16    1
     6    16    17    1
     7    17    18    1
     8    18    19   ar
     9    19    20   ar
    10    20    21   ar
    11    21    22   ar
    12    22    23   ar
    13     2     3   am
    14     5     3    1
    15     5     6    1
    16     6     7    1
    17     7     8    1
    18     8     9    1
    19     8    10    1
    20    10    11    1
    21    23    18   ar
    22    11     5    1
    23     3     4    1
    24     9    12    1
@<TRIPOS>MOLECULE
*****
 23 24 0 0 0
SMALL
GASTEIGER

@<TRIPOS>ATOM
      1 O          -6.6590  -18.5538   20.0694 O.2     1  UNL1       -0.2751
      2 C          -6.9276  -19.1741   21.4085 C.2     1  UNL1        0.2224
      3 N          -8.2634  -18.9905   22.0657 N.am    1  UNL1       -0.3060
      4 H          -8.4397  -19.3976   22.9446 H       1  UNL1        0.1494
      5 C          -9.3305  -18.1865   21.3839 C.3     1  UNL1        0.0717
      6 C         -10.1430  -18.7999   20.2823 C.3     1  UNL1        0.0220
      7 C         -11.2102  -17.9959   19.6005 C.3     1  UNL1        0.0309
      8 C         -11.4647  -16.5785   20.0203 C.3     1  UNL1        0.1106
      9 O         -12.5319  -15.7744   19.3385 O.3     1  UNL1       -0.3845
     10 C         -10.6521  -15.9651   21.1219 C.3     1  UNL1        0.0309
     11 C          -9.5851  -16.7691   21.8037 C.3     1  UNL1        0.0220
     12 H         -12.5654  -14.8863   19.7271 H       1  UNL1        0.2103
     13 C          -5.8605  -19.9781   22.0903 C.3     1  UNL1        0.0850
     14 C          -4.5920  -19.3143   22.5377 C.3     1  UNL1        0.0096
     15 C          -4.4560  -17.8229   22.4536 C.3     1  UNL1        0.0008
     16 C          -4.2663  -17.0154   23.7035 C.3     1  UNL1        0.0047
     17 C          -5.0044  -15.7215   23.8797 C.3     1  UNL1        0.0264
     18 C          -6.0900  -15.6115   24.9091 C.ar    1  UNL1       -0.0222
     19 C          -5.7385  -15.5479   26.3659 C.ar    1  UNL1       -0.0043
     20 C          -6.8241  -15.4379   27.3952 C.ar    1  UNL1       -0.0003
     21 C          -8.2611  -15.3915   26.9676 C.ar    1  UNL1       -0.0000
     22 C          -8.6125  -15.4552   25.5108 C.ar    1  UNL1       -0.0003
     23 C          -7.5270  -15.5652   24.4815 C.ar    1  UNL1       -0.0043
@<TRIPOS>BOND
     1     1     2    2
     2     2    13    1
     3    13    14    1
     4    14    15    1
     5    15    16    1
     6    16    17    1
     7    17    18    1
     8    18    19   ar
     9    19    20   ar
    10    20    21   ar
    11    21    22   ar
    12    22    23   ar
    13     2     3   am
    14     5     3    1
    15     5     6    1
    16     6     7    1
    17     7     8    1
    18     8     9    1
    19     8    10    1
    20    10    11    1
    21    23    18   ar
    22    11     5    1
    23     3     4    1
    24     9    12    1
@<TRIPOS>MOLECULE
*****
 23 24 0 0 0
SMALL
GASTEIGER

@<TRIPOS>ATOM
      1 O          -7.9351  -18.7566   19.7962 O.2     1  UNL1       -0.2751
      2 C          -8.3384  -19.2789   21.1433 C.2     1  UNL1        0.2224
      3 N          -7.2903  -19.7236   22.1198 N.am    1  UNL1       -0.3060
      4 H          -7.5550  -20.0664   23.0039 H       1  UNL1        0.1494
      5 C          -5.8389  -19.6460   21.7493 C.3     1  UNL1        0.0717
      6 C          -4.9108  -18.7658   22.5328 C.3     1  UNL1        0.0220
      7 C          -3.4594  -18.6882   22.1623 C.3     1  UNL1        0.0309
      8 C          -2.9360  -19.4908   21.0082 C.3     1  UNL1        0.1106
      9 O          -1.4845  -19.4133   20.6377 O.3     1  UNL1       -0.3845
     10 C          -3.8640  -20.3711   20.2247 C.3     1  UNL1        0.0309
     11 C          -5.3155  -20.4487   20.5952 C.3     1  UNL1        0.0220
     12 H          -1.3141  -19.9889   19.8758 H       1  UNL1        0.2103
     13 C          -9.7899  -19.3565   21.5138 C.3     1  UNL1        0.0850
     14 C         -10.6967  -18.1931   21.2416 C.3     1  UNL1        0.0096
     15 C         -10.2913  -16.8117   21.6628 C.3     1  UNL1        0.0008
     16 C          -9.7157  -16.5828   23.0290 C.3     1  UNL1        0.0047
     17 C          -8.2532  -16.2896   23.1872 C.3     1  UNL1        0.0264
     18 C          -7.6943  -15.9715   24.5424 C.ar    1  UNL1       -0.0222
     19 C          -6.2614  -15.5509   24.6829 C.ar    1  UNL1       -0.0043
     20 C          -5.7026  -15.2329   26.0381 C.ar    1  UNL1       -0.0003
     21 C          -6.5767  -15.3356   27.2528 C.ar    1  UNL1       -0.0000
     22 C          -8.0096  -15.7562   27.1123 C.ar    1  UNL1       -0.0003
     23 C          -8.5684  -16.0742   25.7571 C.ar    1  UNL1       -0.0043
@<TRIPOS>BOND
     1     1     2    2
     2     2    13    1
     3    13    14    1
     4    14    15    1
     5    15    16    1
     6    16    17    1
     7    17    18    1
     8    18    19   ar
     9    19    20   ar
    10    20    21   ar
    11    21    22   ar
    12    22    23   ar
    13     2     3   am
    14     5     3    1
    15     5     6    1
    16     6     7    1
    17     7     8    1
    18     8     9    1
    19     8    10    1
    20    10    11    1
    21    23    18   ar
    22    11     5    1
    23     3     4    1
    24     9    12    1
@<TRIPOS>MOLECULE
*****
 23 24 0 0 0
SMALL
GASTEIGER

@<TRIPOS>ATOM
      1 O          -8.5607  -19.2444   23.0846 O.2     1  UNL1       -0.2751
      2 C          -8.3165  -18.4327   21.8470 C.2     1  UNL1        0.2224
      3 N          -7.8055  -17.0271   21.9606 N.am    1  UNL1       -0.3060
      4 H          -7.6453  -16.4944   21.1483 H       1  UNL1        0.1494
      5 C          -7.5387  -16.4330   23.3118 C.3     1  UNL1        0.0717
      6 C          -6.1273  -16.1980   23.7623 C.3     1  UNL1        0.0220
      7 C          -5.8605  -15.6039   25.1136 C.3     1  UNL1        0.0309
      8 C          -7.0049  -15.2449   26.0143 C.3     1  UNL1        0.1106
      9 O          -6.7381  -14.6508   27.3656 O.3     1  UNL1       -0.3845
     10 C          -8.4163  -15.4800   25.5638 C.3     1  UNL1        0.0309
     11 C          -8.6831  -16.0740   24.2126 C.3     1  UNL1        0.0220
     12 H          -7.5802  -14.4792   27.8153 H       1  UNL1        0.2103
     13 C          -8.5834  -19.0269   20.4957 C.3     1  UNL1        0.0850
     14 C          -7.4858  -19.7338   19.7572 C.3     1  UNL1        0.0096
     15 C          -6.0565  -19.5312   20.1643 C.3     1  UNL1        0.0008
     16 C          -5.0504  -20.6206   19.9378 C.3     1  UNL1        0.0047
     17 C          -3.6781  -20.5097   20.5330 C.3     1  UNL1        0.0264
     18 C          -3.0897  -19.1590   20.8148 C.ar    1  UNL1       -0.0222
     19 C          -2.3952  -18.4008   19.7227 C.ar    1  UNL1       -0.0043
     20 C          -1.8068  -17.0501   20.0045 C.ar    1  UNL1       -0.0003
     21 C          -1.9129  -16.4576   21.3784 C.ar    1  UNL1       -0.0000
     22 C          -2.6074  -17.2158   22.4705 C.ar    1  UNL1       -0.0003
     23 C          -3.1958  -18.5665   22.1887 C.ar    1  UNL1       -0.0043
@<TRIPOS>BOND
     1     1     2    2
     2     2    13    1
     3    13    14    1
     4    14    15    1
     5    15    16    1
     6    16    17    1
     7    17    18    1
     8    18    19   ar
     9    19    20   ar
    10    20    21   ar
    11    21    22   ar
    12    22    23   ar
    13     2     3   am
    14     5     3    1
    15     5     6    1
    16     6     7    1
    17     7     8    1
    18     8     9    1
    19     8    10    1
    20    10    11    1
    21    23    18   ar
    22    11     5    1
    23     3     4    1
    24     9    12    1
@<TRIPOS>MOLECULE
*****
 23 24 0 0 0
SMALL
GASTEIGER

@<TRIPOS>ATOM
      1 O          -3.6781  -18.1803   24.2700 O.2     1  UNL1       -0.2751
      2 C          -3.5894  -17.1839   23.1523 C.2     1  UNL1        0.2224
      3 N          -4.5194  -16.0074   23.1208 N.am    1  UNL1       -0.3060
      4 H          -4.4612  -15.3535   22.3872 H       1  UNL1        0.1494
      5 C          -5.5380  -15.8274   24.2070 C.3     1  UNL1        0.0717
      6 C          -6.9950  -16.0232   23.9088 C.3     1  UNL1        0.0220
      7 C          -8.0136  -15.8432   24.9951 C.3     1  UNL1        0.0309
      8 C          -7.5753  -15.4672   26.3795 C.3     1  UNL1        0.1106
      9 O          -8.5940  -15.2872   27.4658 O.3     1  UNL1       -0.3845
     10 C          -6.1183  -15.2714   26.6776 C.3     1  UNL1        0.0309
     11 C          -5.0997  -15.4514   25.5914 C.3     1  UNL1        0.0220
     12 H          -8.1464  -15.0471   28.2922 H       1  UNL1        0.2103
     13 C          -2.5707  -17.3640   22.0660 C.3     1  UNL1        0.0850
     14 C          -2.5792  -18.6084   21.2286 C.3     1  UNL1        0.0096
     15 C          -3.7591  -18.9165   20.3552 C.3     1  UNL1        0.0008
     16 C          -4.7229  -19.9962   20.7498 C.3     1  UNL1        0.0047
     17 C          -5.7840  -19.7172   21.7726 C.3     1  UNL1        0.0264
     18 C          -7.2212  -19.6186   21.3545 C.ar    1  UNL1       -0.0222
     19 C          -7.5817  -19.6356   19.8986 C.ar    1  UNL1       -0.0043
     20 C          -9.0188  -19.5370   19.4806 C.ar    1  UNL1       -0.0003
     21 C         -10.0956  -19.4214   20.5186 C.ar    1  UNL1       -0.0000
     22 C          -9.7351  -19.4045   21.9745 C.ar    1  UNL1       -0.0003
     23 C          -8.2980  -19.5030   22.3925 C.ar    1  UNL1       -0.0043
@<TRIPOS>BOND
     1     1     2    2
     2     2    13    1
     3    13    14    1
     4    14    15    1
     5    15    16    1
     6    16    17    1
     7    17    18    1
     8    18    19   ar
     9    19    20   ar
    10    20    21   ar
    11    21    22   ar
    12    22    23   ar
    13     2     3   am
    14     5     3    1
    15     5     6    1
    16     6     7    1
    17     7     8    1
    18     8     9    1
    19     8    10    1
    20    10    11    1
    21    23    18   ar
    22    11     5    1
    23     3     4    1
    24     9    12    1
