@<TRIPOS>MOLECULE
*****
 29 31 0 0 0
SMALL
GASTEIGER

@<TRIPOS>ATOM
      1 C         -13.6576  -18.4531   24.3812 C.ar    1  UNL1        0.1384
      2 C         -13.8330  -18.0790   22.9392 C.ar    1  UNL1        0.0366
      3 C         -12.6727  -18.1735   21.9933 C.ar    1  UNL1        0.0001
      4 C         -11.3369  -18.6421   22.4894 C.ar    1  UNL1       -0.0080
      5 C         -11.1615  -19.0161   23.9313 C.ar    1  UNL1       -0.0199
      6 C         -12.3218  -18.9216   24.8772 C.ar    1  UNL1        0.0324
      7 C          -9.8257  -19.4847   24.4274 C.3     1  UNL1        0.0477
      8 C          -8.6653  -19.5792   23.4816 C.3     1  UNL1        0.0984
      9 N          -8.8408  -19.2051   22.0395 N.am    1  UNL1       -0.2760
     10 C          -7.6805  -19.2996   21.0936 C.2     1  UNL1        0.2420
     11 O          -7.8559  -18.9256   19.6517 O.2     1  UNL1       -0.2734
     12 C         -10.1766  -18.7366   21.5435 C.3     1  UNL1        0.0975
     13 C         -10.3520  -18.3625   20.1015 C.3     1  UNL1        0.0224
     14 C         -10.4408  -16.9181   19.7069 C.3     1  UNL1        0.0021
     15 C         -10.4387  -19.4329   19.0542 C.3     1  UNL1        0.0021
     16 C         -14.5860  -18.4244   26.8075 C.3     1  UNL1        0.2525
     17 O         -14.8179  -18.3586   25.3270 O.3     1  UNL1       -0.4714
     18 C          -6.3447  -19.7682   21.5898 C.3     1  UNL1        0.1552
     19 N          -5.3326  -18.7722   22.0731 N.3     1  UNL1       -0.2879
     20 H          -5.7100  -18.3591   22.9259 H       1  UNL1        0.1238
     21 C          -3.9350  -19.2160   22.3887 C.3     1  UNL1        0.0961
     22 C          -2.8096  -18.8672   21.4604 C.3     1  UNL1        0.1027
     23 O          -3.0090  -20.3090   21.0978 O.3     1  UNL1       -0.3854
     24 C          -3.0011  -17.5465   22.1454 C.3     1  UNL1        0.0283
     25 C          -2.1364  -16.3778   21.7761 C.3     1  UNL1        0.0024
     26 C          -1.0803  -16.5296   20.7218 C.3     1  UNL1        0.0002
     27 C          -0.8888  -17.8503   20.0368 C.3     1  UNL1        0.0024
     28 C          -1.7535  -19.0190   20.4061 C.3     1  UNL1        0.0283
     29 H          -3.7273  -20.6807   21.6334 H       1  UNL1        0.2103
@<TRIPOS>BOND
     1    16    17    1
     2    17     1    1
     3     1     2   ar
     4     2     3   ar
     5     3     4   ar
     6     4     5   ar
     7     5     6   ar
     8     5     7    1
     9     7     8    1
    10     8     9    1
    11     9    10   am
    12    10    11    2
    13    10    18    1
    14    18    19    1
    15    19    21    1
    16    21    22    1
    17    22    23    1
    18    22    24    1
    19    24    25    1
    20    25    26    1
    21    26    27    1
    22    27    28    1
    23     9    12    1
    24    12    13    1
    25    13    14    1
    26    13    15    1
    27     6     1   ar
    28    28    22    1
    29    12     4    1
    30    19    20    1
    31    23    29    1
@<TRIPOS>MOLECULE
*****
 29 31 0 0 0
SMALL
GASTEIGER

@<TRIPOS>ATOM
      1 C           0.8586    0.6032   21.3622 C.ar    1  UNL1        0.1384
      2 C           0.8514   -0.1999   20.0953 C.ar    1  UNL1        0.0366
      3 C           1.9258   -1.2164   19.8455 C.ar    1  UNL1        0.0001
      4 C           3.0074   -1.4299   20.8626 C.ar    1  UNL1       -0.0080
      5 C           3.0146   -0.6269   22.1295 C.ar    1  UNL1       -0.0199
      6 C           1.9402    0.3897   22.3793 C.ar    1  UNL1        0.0324
      7 C           4.0962   -0.8403   23.1467 C.3     1  UNL1        0.0477
      8 C           5.1706   -1.8568   22.8969 C.3     1  UNL1        0.0984
      9 N           5.1634   -2.6599   21.6299 N.am    1  UNL1       -0.2760
     10 C           6.2377   -3.6764   21.3801 C.2     1  UNL1        0.2420
     11 O           6.2305   -4.4794   20.1132 O.2     1  UNL1       -0.2734
     12 C           4.0818   -2.4464   20.6128 C.3     1  UNL1        0.0975
     13 C           4.0746   -3.2494   19.3459 C.3     1  UNL1        0.0224
     14 C           3.3173   -4.5427   19.2820 C.3     1  UNL1        0.0021
     15 C           4.8246   -2.7592   18.1429 C.3     1  UNL1        0.0021
     16 C          -0.7062    2.4841   20.4885 C.3     1  UNL1        0.2525
     17 O          -0.2157    1.6197   21.6120 O.3     1  UNL1       -0.4714
     18 C           7.3194   -3.8899   22.3973 C.3     1  UNL1        0.1552
     19 N           7.2356   -5.0456   23.3498 N.3     1  UNL1       -0.2879
     20 H           8.1133   -5.5588   23.2680 H       1  UNL1        0.1238
     21 C           7.0139   -4.7975   24.8124 C.3     1  UNL1        0.0961
     22 C           7.2936   -5.8838   25.8083 C.3     1  UNL1        0.1027
     23 O           6.2169   -5.1344   26.5358 O.3     1  UNL1       -0.3854
     24 C           8.2730   -6.2559   24.7349 C.3     1  UNL1        0.0283
     25 C           9.1583   -7.4541   24.9100 C.3     1  UNL1        0.0024
     26 C           9.0641   -8.2802   26.1585 C.3     1  UNL1        0.0002
     27 C           8.0846   -7.9080   27.2319 C.3     1  UNL1        0.0024
     28 C           7.1994   -6.7098   27.0567 C.3     1  UNL1        0.0283
     29 H           5.9275   -4.3809   25.9978 H       1  UNL1        0.2103
@<TRIPOS>BOND
     1    16    17    1
     2    17     1    1
     3     1     2   ar
     4     2     3   ar
     5     3     4   ar
     6     4     5   ar
     7     5     6   ar
     8     5     7    1
     9     7     8    1
    10     8     9    1
    11     9    10   am
    12    10    11    2
    13    10    18    1
    14    18    19    1
    15    19    21    1
    16    21    22    1
    17    22    23    1
    18    22    24    1
    19    24    25    1
    20    25    26    1
    21    26    27    1
    22    27    28    1
    23     9    12    1
    24    12    13    1
    25    13    14    1
    26    13    15    1
    27     6     1   ar
    28    28    22    1
    29    12     4    1
    30    19    20    1
    31    23    29    1
@<TRIPOS>MOLECULE
*****
 29 31 0 0 0
SMALL
GASTEIGER

@<TRIPOS>ATOM
      1 C          -5.7764  -15.5527   24.8557 C.ar    1  UNL1        0.1384
      2 C          -4.8339  -16.6419   24.4371 C.ar    1  UNL1        0.0366
      3 C          -5.2273  -17.5974   23.3498 C.ar    1  UNL1        0.0001
      4 C          -6.5633  -17.4636   22.6811 C.ar    1  UNL1       -0.0080
      5 C          -7.5058  -16.3744   23.0997 C.ar    1  UNL1       -0.0199
      6 C          -7.1124  -15.4189   24.1870 C.ar    1  UNL1        0.0324
      7 C          -8.8419  -16.2407   22.4309 C.3     1  UNL1        0.0477
      8 C          -9.2353  -17.1962   21.3436 C.3     1  UNL1        0.0984
      9 N          -8.2927  -18.2854   20.9251 N.am    1  UNL1       -0.2760
     10 C          -8.6862  -19.2409   19.8378 C.2     1  UNL1        0.2420
     11 O          -7.7436  -20.3301   19.4192 O.2     1  UNL1       -0.2734
     12 C          -6.9567  -18.4191   21.5938 C.3     1  UNL1        0.0975
     13 C          -6.0142  -19.5083   21.1752 C.3     1  UNL1        0.0224
     14 C          -4.9952  -19.2484   20.1057 C.3     1  UNL1        0.0021
     15 C          -6.0907  -20.8576   21.8262 C.3     1  UNL1        0.0021
     16 C          -6.1784  -14.5377   27.2133 C.3     1  UNL1        0.2525
     17 O          -5.3829  -14.5972   25.9430 O.3     1  UNL1       -0.4714
     18 C         -10.0222  -19.1072   19.1690 C.3     1  UNL1        0.1552
     19 N         -11.2806  -19.2345   19.9754 N.3     1  UNL1       -0.2879
     20 H         -11.9834  -19.6460   19.3613 H       1  UNL1        0.1238
     21 C         -11.2831  -20.0426   21.2390 C.3     1  UNL1        0.0961
     22 C         -11.3177  -19.3527   22.5705 C.3     1  UNL1        0.1027
     23 O         -12.4102  -18.6076   21.8625 O.3     1  UNL1       -0.3854
     24 C         -10.2132  -20.3374   22.8160 C.3     1  UNL1        0.0283
     25 C          -9.5226  -20.3734   24.1471 C.3     1  UNL1        0.0024
     26 C          -9.9366  -19.4247   25.2327 C.3     1  UNL1        0.0002
     27 C         -11.0412  -18.4400   24.9872 C.3     1  UNL1        0.0024
     28 C         -11.7317  -18.4040   23.6560 C.3     1  UNL1        0.0283
     29 H         -12.5068  -18.9543   20.9617 H       1  UNL1        0.2103
@<TRIPOS>BOND
     1    16    17    1
     2    17     1    1
     3     1     2   ar
     4     2     3   ar
     5     3     4   ar
     6     4     5   ar
     7     5     6   ar
     8     5     7    1
     9     7     8    1
    10     8     9    1
    11     9    10   am
    12    10    11    2
    13    10    18    1
    14    18    19    1
    15    19    21    1
    16    21    22    1
    17    22    23    1
    18    22    24    1
    19    24    25    1
    20    25    26    1
    21    26    27    1
    22    27    28    1
    23     9    12    1
    24    12    13    1
    25    13    14    1
    26    13    15    1
    27     6     1   ar
    28    28    22    1
    29    12     4    1
    30    19    20    1
    31    23    29    1
@<TRIPOS>MOLECULE
*****
 29 31 0 0 0
SMALL
GASTEIGER

@<TRIPOS>ATOM
      1 C           0.5565    0.8421   20.8680 C.ar    1  UNL1        0.1384
      2 C           0.8008    0.1012   19.5869 C.ar    1  UNL1        0.0366
      3 C           1.8791   -0.9391   19.5161 C.ar    1  UNL1        0.0001
      4 C           2.7131   -1.2384   20.7264 C.ar    1  UNL1       -0.0080
      5 C           2.4688   -0.4975   22.0075 C.ar    1  UNL1       -0.0199
      6 C           1.3905    0.5428   22.0783 C.ar    1  UNL1        0.0324
      7 C           3.3029   -0.7968   23.2178 C.3     1  UNL1        0.0477
      8 C           4.3812   -1.8370   23.1470 C.3     1  UNL1        0.0984
      9 N           4.6255   -2.5780   21.8658 N.am    1  UNL1       -0.2760
     10 C           5.7038   -3.6183   21.7950 C.2     1  UNL1        0.2420
     11 O           5.9481   -4.3593   20.5139 O.2     1  UNL1       -0.2734
     12 C           3.7915   -2.2787   20.6555 C.3     1  UNL1        0.0975
     13 C           4.0357   -3.0197   19.3745 C.3     1  UNL1        0.0224
     14 C           4.9907   -2.4667   18.3585 C.3     1  UNL1        0.0021
     15 C           3.3250   -4.3138   19.1093 C.3     1  UNL1        0.0021
     16 C          -0.5486    3.0039   19.9431 C.3     1  UNL1        0.2525
     17 O          -0.5218    1.8824   20.9388 O.3     1  UNL1       -0.4714
     18 C           6.5378   -3.9176   23.0053 C.3     1  UNL1        0.1552
     19 N           7.3668   -5.1668   23.0547 N.3     1  UNL1       -0.2879
     20 H           7.8953   -5.2041   22.1831 H       1  UNL1        0.1238
     21 C           8.3520   -5.3697   24.1674 C.3     1  UNL1        0.0961
     22 C           8.2344   -6.5662   25.0644 C.3     1  UNL1        0.1027
     23 O           8.1396   -7.2345   23.7248 O.3     1  UNL1       -0.3854
     24 C           8.3700   -5.4823   26.0924 C.3     1  UNL1        0.0283
     25 C           8.3551   -5.8271   27.5522 C.3     1  UNL1        0.0024
     26 C           8.2046   -7.2557   27.9839 C.3     1  UNL1        0.0002
     27 C           8.0690   -8.3396   26.9559 C.3     1  UNL1        0.0024
     28 C           8.0839   -7.9948   25.4961 C.3     1  UNL1        0.0283
     29 H           8.2022   -6.5659   23.0248 H       1  UNL1        0.2103
@<TRIPOS>BOND
     1    16    17    1
     2    17     1    1
     3     1     2   ar
     4     2     3   ar
     5     3     4   ar
     6     4     5   ar
     7     5     6   ar
     8     5     7    1
     9     7     8    1
    10     8     9    1
    11     9    10   am
    12    10    11    2
    13    10    18    1
    14    18    19    1
    15    19    21    1
    16    21    22    1
    17    22    23    1
    18    22    24    1
    19    24    25    1
    20    25    26    1
    21    26    27    1
    22    27    28    1
    23     9    12    1
    24    12    13    1
    25    13    14    1
    26    13    15    1
    27     6     1   ar
    28    28    22    1
    29    12     4    1
    30    19    20    1
    31    23    29    1
@<TRIPOS>MOLECULE
*****
 29 31 0 0 0
SMALL
GASTEIGER

@<TRIPOS>ATOM
      1 C         -13.1460    1.0257   17.1555 C.ar    1  UNL1        0.1384
      2 C         -14.0935    0.7980   18.2958 C.ar    1  UNL1        0.0366
      3 C         -14.2001   -0.5606   18.9225 C.ar    1  UNL1        0.0001
      4 C         -13.3592   -1.6915   18.4088 C.ar    1  UNL1       -0.0080
      5 C         -12.4117   -1.4638   17.2686 C.ar    1  UNL1       -0.0199
      6 C         -12.3051   -0.1052   16.6419 C.ar    1  UNL1        0.0324
      7 C         -11.5707   -2.5948   16.7549 C.3     1  UNL1        0.0477
      8 C         -11.6773   -3.9534   17.3816 C.3     1  UNL1        0.0984
      9 N         -12.6249   -4.1811   18.5219 N.am    1  UNL1       -0.2760
     10 C         -12.7315   -5.5397   19.1486 C.2     1  UNL1        0.2420
     11 O         -13.6790   -5.7675   20.2889 O.2     1  UNL1       -0.2734
     12 C         -13.4658   -3.0502   19.0355 C.3     1  UNL1        0.0975
     13 C         -14.4133   -3.2779   20.1758 C.3     1  UNL1        0.0224
     14 C         -15.8311   -3.6846   19.9031 C.3     1  UNL1        0.0021
     15 C         -13.9430   -3.0989   21.5890 C.3     1  UNL1        0.0021
     16 C         -14.2802    3.1738   16.2339 C.3     1  UNL1        0.2525
     17 O         -13.0394    2.3844   16.5288 O.3     1  UNL1       -0.4714
     18 C         -11.8905   -6.6707   18.6349 C.3     1  UNL1        0.1552
     19 N         -12.5282   -7.9852   18.2950 N.3     1  UNL1       -0.2879
     20 H         -12.6106   -8.5069   19.1675 H       1  UNL1        0.1238
     21 C         -13.8782   -8.0172   17.6421 C.3     1  UNL1        0.0961
     22 C         -15.1132   -8.1671   18.4802 C.3     1  UNL1        0.1027
     23 O         -14.2421   -9.2130   19.1105 O.3     1  UNL1       -0.3854
     24 C         -15.5553   -7.0692   17.5588 C.3     1  UNL1        0.0283
     25 C         -16.9300   -6.4843   17.6944 C.3     1  UNL1        0.0024
     26 C         -17.8624   -6.9974   18.7513 C.3     1  UNL1        0.0002
     27 C         -17.4203   -8.0954   19.6727 C.3     1  UNL1        0.0024
     28 C         -16.0457   -8.6802   19.5371 C.3     1  UNL1        0.0283
     29 H         -13.3835   -9.2332   18.6598 H       1  UNL1        0.2103
@<TRIPOS>BOND
     1    16    17    1
     2    17     1    1
     3     1     2   ar
     4     2     3   ar
     5     3     4   ar
     6     4     5   ar
     7     5     6   ar
     8     5     7    1
     9     7     8    1
    10     8     9    1
    11     9    10   am
    12    10    11    2
    13    10    18    1
    14    18    19    1
    15    19    21    1
    16    21    22    1
    17    22    23    1
    18    22    24    1
    19    24    25    1
    20    25    26    1
    21    26    27    1
    22    27    28    1
    23     9    12    1
    24    12    13    1
    25    13    14    1
    26    13    15    1
    27     6     1   ar
    28    28    22    1
    29    12     4    1
    30    19    20    1
    31    23    29    1
@<TRIPOS>MOLECULE
*****
 29 31 0 0 0
SMALL
GASTEIGER

@<TRIPOS>ATOM
      1 C         -12.7944  -17.9038   23.2680 C.ar    1  UNL1        0.1384
      2 C         -12.2444  -16.5144   23.3984 C.ar    1  UNL1        0.0366
      3 C         -10.7661  -16.2804   23.2978 C.ar    1  UNL1        0.0001
      4 C          -9.8379  -17.4359   23.0670 C.ar    1  UNL1       -0.0080
      5 C         -10.3879  -18.8252   22.9367 C.ar    1  UNL1       -0.0199
      6 C         -11.8661  -19.0592   23.0372 C.ar    1  UNL1        0.0324
      7 C          -9.4597  -19.9808   22.7058 C.3     1  UNL1        0.0477
      8 C          -7.9814  -19.7468   22.6053 C.3     1  UNL1        0.0984
      9 N          -7.4314  -18.3573   22.7356 N.am    1  UNL1       -0.2760
     10 C          -5.9532  -18.1233   22.6351 C.2     1  UNL1        0.2420
     11 O          -5.4032  -16.7340   22.7655 O.2     1  UNL1       -0.2734
     12 C          -8.3597  -17.2019   22.9665 C.3     1  UNL1        0.0975
     13 C          -7.8097  -15.8125   23.0968 C.3     1  UNL1        0.0224
     14 C          -7.7039  -14.9312   21.8876 C.3     1  UNL1        0.0021
     15 C          -7.3654  -15.3043   24.4364 C.3     1  UNL1        0.0021
     16 C         -14.8923  -18.4606   24.6958 C.3     1  UNL1        0.2525
     17 O         -14.2726  -18.1378   23.3685 O.3     1  UNL1       -0.4714
     18 C          -5.0250  -19.2789   22.4043 C.3     1  UNL1        0.1552
     19 N          -5.1666  -20.1197   21.1702 N.3     1  UNL1       -0.2879
     20 H          -5.9924  -19.7811   20.6764 H       1  UNL1        0.1238
     21 C          -4.0531  -20.1721   20.1665 C.3     1  UNL1        0.0961
     22 C          -3.3498  -18.9112   19.7600 C.3     1  UNL1        0.1027
     23 O          -4.7076  -18.6513   19.1781 O.3     1  UNL1       -0.3854
     24 C          -2.2362  -19.6090   20.4832 C.3     1  UNL1        0.0283
     25 C          -0.8908  -18.9556   20.5977 C.3     1  UNL1        0.0024
     26 C          -0.6591  -17.6044   19.9891 C.3     1  UNL1        0.0002
     27 C          -1.7726  -16.9065   19.2659 C.3     1  UNL1        0.0024
     28 C          -3.1180  -17.5599   19.1514 C.3     1  UNL1        0.0283
     29 H          -5.2898  -19.4038   19.3669 H       1  UNL1        0.2103
@<TRIPOS>BOND
     1    16    17    1
     2    17     1    1
     3     1     2   ar
     4     2     3   ar
     5     3     4   ar
     6     4     5   ar
     7     5     6   ar
     8     5     7    1
     9     7     8    1
    10     8     9    1
    11     9    10   am
    12    10    11    2
    13    10    18    1
    14    18    19    1
    15    19    21    1
    16    21    22    1
    17    22    23    1
    18    22    24    1
    19    24    25    1
    20    25    26    1
    21    26    27    1
    22    27    28    1
    23     9    12    1
    24    12    13    1
    25    13    14    1
    26    13    15    1
    27     6     1   ar
    28    28    22    1
    29    12     4    1
    30    19    20    1
    31    23    29    1
@<TRIPOS>MOLECULE
*****
 29 31 0 0 0
SMALL
GASTEIGER

@<TRIPOS>ATOM
      1 C         -16.5799   -1.0471   20.1064 C.ar    1  UNL1        0.1384
      2 C         -17.8353   -1.8189   19.8269 C.ar    1  UNL1        0.0366
      3 C         -17.7550   -3.2627   19.4280 C.ar    1  UNL1        0.0001
      4 C         -16.4193   -3.9346   19.3086 C.ar    1  UNL1       -0.0080
      5 C         -15.1639   -3.1627   19.5881 C.ar    1  UNL1       -0.0199
      6 C         -15.2442   -1.7190   19.9870 C.ar    1  UNL1        0.0324
      7 C         -13.8280   -3.8346   19.4686 C.3     1  UNL1        0.0477
      8 C         -13.7477   -5.2784   19.0697 C.3     1  UNL1        0.0984
      9 N         -15.0032   -6.0502   18.7902 N.am    1  UNL1       -0.2760
     10 C         -14.9229   -7.4940   18.3913 C.2     1  UNL1        0.2420
     11 O         -16.1783   -8.2658   18.1118 O.2     1  UNL1       -0.2734
     12 C         -16.3389   -5.3783   18.9097 C.3     1  UNL1        0.0975
     13 C         -17.5943   -6.1502   18.6302 C.3     1  UNL1        0.0224
     14 C         -18.2679   -6.9116   19.7332 C.3     1  UNL1        0.0021
     15 C         -18.1762   -6.1607   17.2476 C.3     1  UNL1        0.0021
     16 C         -17.9879    1.0098   20.8391 C.3     1  UNL1        0.2525
     17 O         -16.6603    0.3966   20.5053 O.3     1  UNL1       -0.4714
     18 C         -13.5870   -8.1659   18.2719 C.3     1  UNL1        0.1552
     19 N         -12.7729   -7.9996   17.0231 N.3     1  UNL1       -0.2879
     20 H         -13.0745   -7.1273   16.5889 H       1  UNL1        0.1238
     21 C         -11.2760   -7.9474   17.1051 C.3     1  UNL1        0.0961
     22 C         -10.6054   -6.8598   17.8907 C.3     1  UNL1        0.1027
     23 O         -10.3041   -8.0386   18.7680 O.3     1  UNL1       -0.3854
     24 C         -11.1396   -6.0588   16.7405 C.3     1  UNL1        0.0283
     25 C         -10.8985   -4.5795   16.6807 C.3     1  UNL1        0.0024
     26 C         -10.1232   -3.9012   17.7710 C.3     1  UNL1        0.0002
     27 C          -9.5890   -4.7022   18.9212 C.3     1  UNL1        0.0024
     28 C          -9.8301   -6.1816   18.9810 C.3     1  UNL1        0.0283
     29 H         -10.6867   -8.8393   18.3764 H       1  UNL1        0.2103
@<TRIPOS>BOND
     1    16    17    1
     2    17     1    1
     3     1     2   ar
     4     2     3   ar
     5     3     4   ar
     6     4     5   ar
     7     5     6   ar
     8     5     7    1
     9     7     8    1
    10     8     9    1
    11     9    10   am
    12    10    11    2
    13    10    18    1
    14    18    19    1
    15    19    21    1
    16    21    22    1
    17    22    23    1
    18    22    24    1
    19    24    25    1
    20    25    26    1
    21    26    27    1
    22    27    28    1
    23     9    12    1
    24    12    13    1
    25    13    14    1
    26    13    15    1
    27     6     1   ar
    28    28    22    1
    29    12     4    1
    30    19    20    1
    31    23    29    1
@<TRIPOS>MOLECULE
*****
 29 31 0 0 0
SMALL
GASTEIGER

@<TRIPOS>ATOM
      1 C         -19.4594   -3.7198   19.1737 C.ar    1  UNL1        0.1384
      2 C         -19.7944   -5.1069   19.6357 C.ar    1  UNL1        0.0366
      3 C         -18.8553   -6.2406   19.3480 C.ar    1  UNL1        0.0001
      4 C         -17.5811   -5.9871   18.5983 C.ar    1  UNL1       -0.0080
      5 C         -17.2461   -4.6000   18.1362 C.ar    1  UNL1       -0.0199
      6 C         -18.1852   -3.4663   18.4239 C.ar    1  UNL1        0.0324
      7 C         -15.9718   -4.3465   17.3864 C.3     1  UNL1        0.0477
      8 C         -15.0327   -5.4802   17.0987 C.3     1  UNL1        0.0984
      9 N         -15.3678   -6.8674   17.5608 N.am    1  UNL1       -0.2760
     10 C         -14.4287   -8.0011   17.2731 C.2     1  UNL1        0.2420
     11 O         -14.7637   -9.3882   17.7352 O.2     1  UNL1       -0.2734
     12 C         -16.6420   -7.1208   18.3106 C.3     1  UNL1        0.0975
     13 C         -16.9770   -8.5080   18.7726 C.3     1  UNL1        0.0224
     14 C         -16.5323   -8.9754   20.1268 C.3     1  UNL1        0.0021
     15 C         -17.7568   -9.4278   17.8805 C.3     1  UNL1        0.0021
     16 C         -20.2205   -1.7609   20.7012 C.3     1  UNL1        0.2525
     17 O         -20.3985   -2.5861   19.4614 O.3     1  UNL1       -0.4714
     18 C         -13.1544   -7.7475   16.5233 C.3     1  UNL1        0.1552
     19 N         -11.8660   -7.5731   17.2714 N.3     1  UNL1       -0.2879
     20 H         -11.2631   -6.9930   16.6881 H       1  UNL1        0.1238
     21 C         -11.8702   -6.9555   18.6384 C.3     1  UNL1        0.0961
     22 C         -11.9468   -5.4649   18.7877 C.3     1  UNL1        0.1027
     23 O         -10.8416   -5.5692   17.7790 O.3     1  UNL1       -0.3854
     24 C         -13.0254   -5.8783   19.7446 C.3     1  UNL1        0.0283
     25 C         -13.7968   -4.8373   20.5005 C.3     1  UNL1        0.0024
     26 C         -13.4896   -3.3830   20.2995 C.3     1  UNL1        0.0002
     27 C         -12.4110   -2.9696   19.3426 C.3     1  UNL1        0.0024
     28 C         -11.6396   -4.0106   18.5867 C.3     1  UNL1        0.0283
     29 H         -10.6747   -6.5033   17.5775 H       1  UNL1        0.2103
@<TRIPOS>BOND
     1    16    17    1
     2    17     1    1
     3     1     2   ar
     4     2     3   ar
     5     3     4   ar
     6     4     5   ar
     7     5     6   ar
     8     5     7    1
     9     7     8    1
    10     8     9    1
    11     9    10   am
    12    10    11    2
    13    10    18    1
    14    18    19    1
    15    19    21    1
    16    21    22    1
    17    22    23    1
    18    22    24    1
    19    24    25    1
    20    25    26    1
    21    26    27    1
    22    27    28    1
    23     9    12    1
    24    12    13    1
    25    13    14    1
    26    13    15    1
    27     6     1   ar
    28    28    22    1
    29    12     4    1
    30    19    20    1
    31    23    29    1
@<TRIPOS>MOLECULE
*****
 29 31 0 0 0
SMALL
GASTEIGER

@<TRIPOS>ATOM
      1 C          -5.8342  -15.3684   25.4405 C.ar    1  UNL1        0.1384
      2 C          -4.6000  -16.1508   25.1022 C.ar    1  UNL1        0.0366
      3 C          -4.6128  -17.1107   23.9497 C.ar    1  UNL1        0.0001
      4 C          -5.8600  -17.2884   23.1354 C.ar    1  UNL1       -0.0080
      5 C          -7.0942  -16.5060   23.4737 C.ar    1  UNL1       -0.0199
      6 C          -7.0814  -15.5461   24.6262 C.ar    1  UNL1        0.0324
      7 C          -8.3415  -16.6836   22.6594 C.3     1  UNL1        0.0477
      8 C          -8.3543  -17.6436   21.5069 C.3     1  UNL1        0.0984
      9 N          -7.1200  -18.4260   21.1687 N.am    1  UNL1       -0.2760
     10 C          -7.1328  -19.3859   20.0162 C.2     1  UNL1        0.2420
     11 O          -5.8986  -20.1683   19.6779 O.2     1  UNL1       -0.2734
     12 C          -5.8728  -18.2483   21.9829 C.3     1  UNL1        0.0975
     13 C          -4.6386  -19.0307   21.6447 C.3     1  UNL1        0.0224
     14 C          -4.3751  -20.3445   22.3187 C.3     1  UNL1        0.0021
     15 C          -3.6676  -18.4992   20.6323 C.3     1  UNL1        0.0021
     16 C          -6.7720  -14.5981   27.7377 C.3     1  UNL1        0.2525
     17 O          -5.8214  -14.4085   26.5930 O.3     1  UNL1       -0.4714
     18 C          -8.3801  -19.5635   19.2019 C.3     1  UNL1        0.1552
     19 N          -9.6085  -20.1519   19.8302 N.3     1  UNL1       -0.2879
     20 H          -9.3654  -20.3809   20.7940 H       1  UNL1        0.1238
     21 C         -10.8791  -19.3564   19.8815 C.3     1  UNL1        0.0961
     22 C         -11.3903  -18.8434   21.1950 C.3     1  UNL1        0.1027
     23 O         -10.9887  -20.2319   21.5961 O.3     1  UNL1       -0.3854
     24 C         -11.6144  -17.6331   20.3377 C.3     1  UNL1        0.0283
     25 C         -12.2102  -16.3920   20.9333 C.3     1  UNL1        0.0024
     26 C         -12.5819  -16.3612   22.3861 C.3     1  UNL1        0.0002
     27 C         -12.3579  -17.5715   23.2435 C.3     1  UNL1        0.0024
     28 C         -11.7621  -18.8126   22.6479 C.3     1  UNL1        0.0283
     29 H         -10.6288  -20.6995   20.8262 H       1  UNL1        0.2103
@<TRIPOS>BOND
     1    16    17    1
     2    17     1    1
     3     1     2   ar
     4     2     3   ar
     5     3     4   ar
     6     4     5   ar
     7     5     6   ar
     8     5     7    1
     9     7     8    1
    10     8     9    1
    11     9    10   am
    12    10    11    2
    13    10    18    1
    14    18    19    1
    15    19    21    1
    16    21    22    1
    17    22    23    1
    18    22    24    1
    19    24    25    1
    20    25    26    1
    21    26    27    1
    22    27    28    1
    23     9    12    1
    24    12    13    1
    25    13    14    1
    26    13    15    1
    27     6     1   ar
    28    28    22    1
    29    12     4    1
    30    19    20    1
    31    23    29    1
