@<TRIPOS>MOLECULE
*****
 21 24 0 0 0
SMALL
GASTEIGER

@<TRIPOS>ATOM
      1 C         -12.5907  -17.1705   23.0652 C.3     1  UNL1        0.1298
      2 C         -11.5080  -17.8040   22.2428 C.2     1  UNL1        0.3009
      3 N         -11.6954  -18.5129   20.9342 N.2     1  UNL1       -0.0406
      4 C         -10.3511  -18.9869   20.4671 C.2     1  UNL1        0.2636
      5 C          -9.9226  -19.7435   19.2449 C.2     1  UNL1        0.2821
      6 N          -8.4759  -20.0842   19.0424 N.2     1  UNL1       -0.0268
      7 C          -7.4577  -19.6681   20.0623 C.2     1  UNL1        0.3760
      8 N          -5.9718  -19.8606   20.1334 N.2     1  UNL1       -0.0306
      9 C          -5.4819  -19.2229   21.3997 C.2     1  UNL1        0.2361
     10 C          -6.6651  -18.6363   22.1111 C.2     1  UNL1        0.0583
     11 C          -7.8862  -18.9115   21.2846 C.2     1  UNL1        0.1203
     12 C          -9.3329  -18.5709   21.4869 C.3     1  UNL1        0.2596
     13 N         -10.0479  -17.8398   22.5844 N.pl3   1  UNL1       -0.1906
     14 C          -9.4141  -17.2484   23.8085 C.3     1  UNL1        0.1628
     15 C          -9.6685  -17.8595   25.1545 C.3     1  UNL1        0.0468
     16 C          -9.0346  -17.2681   26.3786 C.3     1  UNL1        0.0066
     17 C          -8.1464  -16.0656   26.2567 C.3     1  UNL1        0.0295
     18 C          -7.8919  -15.4544   24.9107 C.3     1  UNL1        0.1145
     19 O          -7.0037  -14.2519   24.7888 O.3     1  UNL1       -0.3843
     20 C          -8.5258  -16.0458   23.6866 C.3     1  UNL1        0.0758
     21 H          -6.9458  -13.9858   23.8578 H       1  UNL1        0.2103
@<TRIPOS>BOND
     1     1     2    1
     2     2     3    2
     3     3     4    1
     4     4     5    2
     5     5     6    1
     6     6     7    2
     7     7     8    1
     8     8     9    2
     9     9    10    1
    10    10    11    2
    11    11    12    1
    12    12    13    1
    13    14    13    1
    14    14    15    1
    15    15    16    1
    16    16    17    1
    17    17    18    1
    18    18    19    1
    19    18    20    1
    20    13     2    1
    21    20    14    1
    22    12     4    1
    23    11     7    1
    24    19    21    1
@<TRIPOS>MOLECULE
*****
 21 24 0 0 0
SMALL
GASTEIGER

@<TRIPOS>ATOM
      1 C          -9.2272  -20.2193   19.0087 C.3     1  UNL1        0.1298
      2 C          -8.3544  -19.5187   20.0074 C.2     1  UNL1        0.3009
      3 N          -6.8947  -19.7768   20.2369 N.2     1  UNL1       -0.0406
      4 C          -6.4262  -18.8546   21.3233 C.2     1  UNL1        0.2636
      5 C          -5.0853  -18.6619   21.9673 C.2     1  UNL1        0.2821
      6 N          -4.9144  -17.6412   23.0531 N.2     1  UNL1       -0.0268
      7 C          -6.0846  -16.8132   23.4949 C.2     1  UNL1        0.3760
      8 N          -6.2189  -15.7386   24.5328 N.2     1  UNL1       -0.0306
      9 C          -7.6429  -15.2671   24.5302 C.2     1  UNL1        0.2361
     10 C          -8.3886  -16.0504   23.4907 C.2     1  UNL1        0.0583
     11 C          -7.4255  -17.0059   22.8509 C.2     1  UNL1        0.1203
     12 C          -7.5963  -18.0266   21.7651 C.3     1  UNL1        0.2596
     13 N          -8.7880  -18.4371   20.9518 N.pl3   1  UNL1       -0.1906
     14 C         -10.1706  -17.8661   21.0634 C.3     1  UNL1        0.1628
     15 C         -11.0435  -18.2366   22.2256 C.3     1  UNL1        0.0468
     16 C         -12.4261  -17.6656   22.3371 C.3     1  UNL1        0.0066
     17 C         -12.9358  -16.7241   21.2865 C.3     1  UNL1        0.0295
     18 C         -12.0628  -16.3536   20.1243 C.3     1  UNL1        0.1145
     19 O         -12.5724  -15.4121   19.0737 O.3     1  UNL1       -0.3843
     20 C         -10.6803  -16.9246   20.0127 C.3     1  UNL1        0.0758
     21 H         -11.8883  -15.2797   18.3989 H       1  UNL1        0.2103
@<TRIPOS>BOND
     1     1     2    1
     2     2     3    2
     3     3     4    1
     4     4     5    2
     5     5     6    1
     6     6     7    2
     7     7     8    1
     8     8     9    2
     9     9    10    1
    10    10    11    2
    11    11    12    1
    12    12    13    1
    13    14    13    1
    14    14    15    1
    15    15    16    1
    16    16    17    1
    17    17    18    1
    18    18    19    1
    19    18    20    1
    20    13     2    1
    21    20    14    1
    22    12     4    1
    23    11     7    1
    24    19    21    1
@<TRIPOS>MOLECULE
*****
 21 24 0 0 0
SMALL
GASTEIGER

@<TRIPOS>ATOM
      1 C          -8.8635  -15.6333   24.6031 C.3     1  UNL1        0.1298
      2 C          -7.6927  -16.3498   23.9984 C.2     1  UNL1        0.3009
      3 N          -6.2460  -16.0542   24.2623 N.2     1  UNL1       -0.0406
      4 C          -5.4221  -17.0094   23.4506 C.2     1  UNL1        0.2636
      5 C          -3.9394  -17.1869   23.3097 C.2     1  UNL1        0.2821
      6 N          -3.3941  -18.2504   22.4032 N.2     1  UNL1       -0.0268
      7 C          -4.3316  -19.1364   21.6377 C.2     1  UNL1        0.3760
      8 N          -4.0888  -20.2617   20.6760 N.2     1  UNL1       -0.0306
      9 C          -5.4215  -20.7796   20.2226 C.2     1  UNL1        0.2361
     10 C          -6.4880  -19.9744   20.9040 C.2     1  UNL1        0.0583
     11 C          -5.8144  -18.9589   21.7786 C.2     1  UNL1        0.1203
     12 C          -6.3596  -17.8954   22.6851 C.3     1  UNL1        0.2596
     13 N          -7.7629  -17.4877   23.0236 N.pl3   1  UNL1       -0.1906
     14 C          -9.0164  -18.1089   22.4824 C.3     1  UNL1        0.1628
     15 C          -9.5007  -19.4191   23.0292 C.3     1  UNL1        0.0468
     16 C         -10.7542  -20.0403   22.4879 C.3     1  UNL1        0.0066
     17 C         -11.5234  -19.3513   21.4000 C.3     1  UNL1        0.0295
     18 C         -11.0391  -18.0411   20.8532 C.3     1  UNL1        0.1145
     19 O         -11.8082  -17.3521   19.7653 O.3     1  UNL1       -0.3843
     20 C          -9.7856  -17.4199   21.3944 C.3     1  UNL1        0.0758
     21 H         -11.3623  -16.5238   19.5289 H       1  UNL1        0.2103
@<TRIPOS>BOND
     1     1     2    1
     2     2     3    2
     3     3     4    1
     4     4     5    2
     5     5     6    1
     6     6     7    2
     7     7     8    1
     8     8     9    2
     9     9    10    1
    10    10    11    2
    11    11    12    1
    12    12    13    1
    13    14    13    1
    14    14    15    1
    15    15    16    1
    16    16    17    1
    17    17    18    1
    18    18    19    1
    19    18    20    1
    20    13     2    1
    21    20    14    1
    22    12     4    1
    23    11     7    1
    24    19    21    1
@<TRIPOS>MOLECULE
*****
 21 24 0 0 0
SMALL
GASTEIGER

@<TRIPOS>ATOM
      1 C          -9.5548  -20.0448   19.4990 C.3     1  UNL1        0.1298
      2 C          -8.5089  -19.4018   20.3607 C.2     1  UNL1        0.3009
      3 N          -7.0369  -19.6878   20.3221 N.2     1  UNL1       -0.0406
      4 C          -6.3695  -18.8227   21.3499 C.2     1  UNL1        0.2636
      5 C          -4.9340  -18.6763   21.7593 C.2     1  UNL1        0.2821
      6 N          -4.5579  -17.7091   22.8425 N.2     1  UNL1       -0.0268
      7 C          -5.6174  -16.8885   23.5162 C.2     1  UNL1        0.3760
      8 N          -5.5490  -15.8616   24.6074 N.2     1  UNL1       -0.0306
      9 C          -6.9424  -15.3734   24.8724 C.2     1  UNL1        0.2361
     10 C          -7.8719  -16.0986   23.9450 C.2     1  UNL1        0.0583
     11 C          -7.0530  -17.0350   23.1068 C.2     1  UNL1        0.1203
     12 C          -7.4290  -18.0021   22.0236 C.3     1  UNL1        0.2596
     13 N          -8.7512  -18.3600   21.4123 N.pl3   1  UNL1       -0.1906
     14 C         -10.0821  -17.7783   21.7868 C.3     1  UNL1        0.1628
     15 C         -10.6146  -16.5867   21.0473 C.3     1  UNL1        0.0468
     16 C         -11.9456  -16.0050   21.4219 C.3     1  UNL1        0.0066
     17 C         -12.7439  -16.6147   22.5357 C.3     1  UNL1        0.0295
     18 C         -12.2114  -17.8062   23.2751 C.3     1  UNL1        0.1145
     19 O         -13.0098  -18.4160   24.3890 O.3     1  UNL1       -0.3843
     20 C         -10.8806  -18.3880   22.9007 C.3     1  UNL1        0.0758
     21 H         -12.5260  -19.1716   24.7576 H       1  UNL1        0.2103
@<TRIPOS>BOND
     1     1     2    1
     2     2     3    2
     3     3     4    1
     4     4     5    2
     5     5     6    1
     6     6     7    2
     7     7     8    1
     8     8     9    2
     9     9    10    1
    10    10    11    2
    11    11    12    1
    12    12    13    1
    13    14    13    1
    14    14    15    1
    15    15    16    1
    16    16    17    1
    17    17    18    1
    18    18    19    1
    19    18    20    1
    20    13     2    1
    21    20    14    1
    22    12     4    1
    23    11     7    1
    24    19    21    1
@<TRIPOS>MOLECULE
*****
 21 24 0 0 0
SMALL
GASTEIGER

@<TRIPOS>ATOM
      1 C          -9.7567  -19.2261   20.4755 C.3     1  UNL1        0.1298
      2 C          -8.2665  -19.3093   20.6251 C.2     1  UNL1        0.3009
      3 N          -7.3343  -20.0883   19.7453 N.2     1  UNL1       -0.0406
      4 C          -5.9385  -19.8886   20.2572 C.2     1  UNL1        0.2636
      5 C          -4.6132  -20.4118   19.7887 C.2     1  UNL1        0.2821
      6 N          -3.3574  -20.0327   20.5163 N.2     1  UNL1       -0.0268
      7 C          -3.4271  -19.1304   21.7125 C.2     1  UNL1        0.3760
      8 N          -2.3663  -18.5884   22.6241 N.2     1  UNL1       -0.0306
      9 C          -3.0361  -17.7303   23.6560 C.2     1  UNL1        0.2361
     10 C          -4.5108  -17.7418   23.3823 C.2     1  UNL1        0.0583
     11 C          -4.7525  -18.6071   22.1811 C.2     1  UNL1        0.1203
     12 C          -6.0082  -18.9862   21.4534 C.3     1  UNL1        0.2596
     13 N          -7.4470  -18.6283   21.6808 N.pl3   1  UNL1       -0.1906
     14 C          -7.9738  -17.7444   22.7722 C.3     1  UNL1        0.1628
     15 C          -8.9720  -18.2803   23.7552 C.3     1  UNL1        0.0468
     16 C          -9.4988  -17.3964   24.8467 C.3     1  UNL1        0.0066
     17 C          -9.0274  -15.9766   24.9551 C.3     1  UNL1        0.0295
     18 C          -8.0291  -15.4406   23.9721 C.3     1  UNL1        0.1145
     19 O          -7.5577  -14.0208   24.0805 O.3     1  UNL1       -0.3843
     20 C          -7.5023  -16.3245   22.8807 C.3     1  UNL1        0.0758
     21 H          -6.9192  -13.8372   23.3737 H       1  UNL1        0.2103
@<TRIPOS>BOND
     1     1     2    1
     2     2     3    2
     3     3     4    1
     4     4     5    2
     5     5     6    1
     6     6     7    2
     7     7     8    1
     8     8     9    2
     9     9    10    1
    10    10    11    2
    11    11    12    1
    12    12    13    1
    13    14    13    1
    14    14    15    1
    15    15    16    1
    16    16    17    1
    17    17    18    1
    18    18    19    1
    19    18    20    1
    20    13     2    1
    21    20    14    1
    22    12     4    1
    23    11     7    1
    24    19    21    1
@<TRIPOS>MOLECULE
*****
 21 24 0 0 0
SMALL
GASTEIGER

@<TRIPOS>ATOM
      1 C          -5.4181  -18.9697   22.4307 C.3     1  UNL1        0.1298
      2 C          -6.7957  -18.7927   21.8641 C.2     1  UNL1        0.3009
      3 N          -7.3229  -19.4298   20.6127 N.2     1  UNL1       -0.0406
      4 C          -8.7409  -18.9783   20.4245 C.2     1  UNL1        0.2636
      5 C          -9.7593  -19.2831   19.3663 C.2     1  UNL1        0.2821
      6 N         -11.1269  -18.6716   19.4431 N.2     1  UNL1       -0.0268
      7 C         -11.4760  -17.7554   20.5783 C.2     1  UNL1        0.3760
      8 N         -12.7334  -17.0108   20.9168 N.2     1  UNL1       -0.0306
      9 C         -12.4920  -16.2458   22.1843 C.2     1  UNL1        0.2361
     10 C         -11.0855  -16.5176   22.6292 C.2     1  UNL1        0.0583
     11 C         -10.4576  -17.4507   21.6366 C.2     1  UNL1        0.1203
     12 C          -9.0900  -18.0621   21.5597 C.3     1  UNL1        0.2596
     13 N          -7.8878  -17.9474   22.4494 N.pl3   1  UNL1       -0.1906
     14 C          -7.7942  -17.1307   23.7041 C.3     1  UNL1        0.1628
     15 C          -8.8432  -17.2668   24.7676 C.3     1  UNL1        0.0468
     16 C          -8.7495  -16.4501   26.0223 C.3     1  UNL1        0.0066
     17 C          -7.6069  -15.4974   26.2135 C.3     1  UNL1        0.0295
     18 C          -6.5579  -15.3612   25.1500 C.3     1  UNL1        0.1145
     19 O          -5.4153  -14.4085   25.3411 O.3     1  UNL1       -0.3843
     20 C          -6.6515  -16.1779   23.8953 C.3     1  UNL1        0.0758
     21 H          -4.8327  -14.4427   24.5663 H       1  UNL1        0.2103
@<TRIPOS>BOND
     1     1     2    1
     2     2     3    2
     3     3     4    1
     4     4     5    2
     5     5     6    1
     6     6     7    2
     7     7     8    1
     8     8     9    2
     9     9    10    1
    10    10    11    2
    11    11    12    1
    12    12    13    1
    13    14    13    1
    14    14    15    1
    15    15    16    1
    16    16    17    1
    17    17    18    1
    18    18    19    1
    19    18    20    1
    20    13     2    1
    21    20    14    1
    22    12     4    1
    23    11     7    1
    24    19    21    1
@<TRIPOS>MOLECULE
*****
 21 24 0 0 0
SMALL
GASTEIGER

@<TRIPOS>ATOM
      1 C          -8.6622  -15.0057   25.3983 C.3     1  UNL1        0.1298
      2 C          -7.8027  -15.8754   24.5295 C.2     1  UNL1        0.3009
      3 N          -6.3059  -15.9619   24.5748 N.2     1  UNL1       -0.0406
      4 C          -5.8671  -16.9513   23.5362 C.2     1  UNL1        0.2636
      5 C          -4.5099  -17.4420   23.1274 C.2     1  UNL1        0.2821
      6 N          -4.3783  -18.4576   22.0314 N.2     1  UNL1       -0.0268
      7 C          -5.6039  -18.9825   21.3442 C.2     1  UNL1        0.3760
      8 N          -5.7852  -19.9800   20.2387 N.2     1  UNL1       -0.0306
      9 C          -7.2545  -20.1057   19.9642 C.2     1  UNL1        0.2361
     10 C          -7.9813  -19.1859   20.9001 C.2     1  UNL1        0.0583
     11 C          -6.9611  -18.4917   21.7530 C.2     1  UNL1        0.1203
     12 C          -7.0927  -17.4761   22.8490 C.3     1  UNL1        0.2596
     13 N          -8.2890  -16.8112   23.4629 N.pl3   1  UNL1       -0.1906
     14 C          -9.7202  -17.0416   23.0777 C.3     1  UNL1        0.1628
     15 C         -10.2319  -16.5419   21.7592 C.3     1  UNL1        0.0468
     16 C         -11.6633  -16.7724   21.3741 C.3     1  UNL1        0.0066
     17 C         -12.5828  -17.5025   22.3075 C.3     1  UNL1        0.0295
     18 C         -12.0712  -18.0021   23.6260 C.3     1  UNL1        0.1145
     19 O         -12.9907  -18.7322   24.5594 O.3     1  UNL1       -0.3843
     20 C         -10.6399  -17.7717   24.0112 C.3     1  UNL1        0.0758
     21 H         -12.5050  -18.9844   25.3603 H       1  UNL1        0.2103
@<TRIPOS>BOND
     1     1     2    1
     2     2     3    2
     3     3     4    1
     4     4     5    2
     5     5     6    1
     6     6     7    2
     7     7     8    1
     8     8     9    2
     9     9    10    1
    10    10    11    2
    11    11    12    1
    12    12    13    1
    13    14    13    1
    14    14    15    1
    15    15    16    1
    16    16    17    1
    17    17    18    1
    18    18    19    1
    19    18    20    1
    20    13     2    1
    21    20    14    1
    22    12     4    1
    23    11     7    1
    24    19    21    1
@<TRIPOS>MOLECULE
*****
 21 24 0 0 0
SMALL
GASTEIGER

@<TRIPOS>ATOM
      1 C          -5.1263  -15.3938   25.5238 C.3     1  UNL1        0.1298
      2 C          -6.2172  -15.9377   24.6496 C.2     1  UNL1        0.3009
      3 N          -7.6845  -15.6641   24.7976 N.2     1  UNL1       -0.0406
      4 C          -8.4065  -16.4080   23.7134 C.2     1  UNL1        0.2636
      5 C          -9.8617  -16.5124   23.3654 C.2     1  UNL1        0.2821
      6 N         -10.2959  -17.3501   22.1992 N.2     1  UNL1       -0.0268
      7 C          -9.2746  -18.0834   21.3812 C.2     1  UNL1        0.3760
      8 N          -9.4020  -18.9783   20.1841 N.2     1  UNL1       -0.0306
      9 C          -8.0253  -19.4270   19.7924 C.2     1  UNL1        0.2361
     10 C          -7.0472  -18.8095   20.7473 C.2     1  UNL1        0.0583
     11 C          -7.8193  -17.9791   21.7292 C.2     1  UNL1        0.1203
     12 C          -7.3852  -17.1414   22.8954 C.3     1  UNL1        0.2596
     13 N          -6.0322  -16.8507   23.4740 N.pl3   1  UNL1       -0.1906
     14 C          -4.7238  -17.3801   22.9661 C.3     1  UNL1        0.1628
     15 C          -4.4999  -18.8602   22.8707 C.3     1  UNL1        0.0468
     16 C          -3.1914  -19.3895   22.3628 C.3     1  UNL1        0.0066
     17 C          -2.1071  -18.4388   21.9503 C.3     1  UNL1        0.0295
     18 C          -2.3310  -16.9587   22.0457 C.3     1  UNL1        0.1145
     19 O          -1.2467  -16.0079   21.6332 O.3     1  UNL1       -0.3843
     20 C          -3.6394  -16.4293   22.5536 C.3     1  UNL1        0.0758
     21 H          -1.5523  -15.0956   21.7566 H       1  UNL1        0.2103
@<TRIPOS>BOND
     1     1     2    1
     2     2     3    2
     3     3     4    1
     4     4     5    2
     5     5     6    1
     6     6     7    2
     7     7     8    1
     8     8     9    2
     9     9    10    1
    10    10    11    2
    11    11    12    1
    12    12    13    1
    13    14    13    1
    14    14    15    1
    15    15    16    1
    16    16    17    1
    17    17    18    1
    18    18    19    1
    19    18    20    1
    20    13     2    1
    21    20    14    1
    22    12     4    1
    23    11     7    1
    24    19    21    1
@<TRIPOS>MOLECULE
*****
 21 24 0 0 0
SMALL
GASTEIGER

@<TRIPOS>ATOM
      1 C         -10.7345  -16.2458   22.8382 C.3     1  UNL1        0.1298
      2 C          -9.6647  -17.1121   22.2425 C.2     1  UNL1        0.3009
      3 N          -9.8110  -17.9877   21.0334 N.2     1  UNL1       -0.0406
      4 C          -8.4975  -18.6718   20.7948 C.2     1  UNL1        0.2636
      5 C          -8.0500  -19.6485   19.7481 C.2     1  UNL1        0.2821
      6 N          -6.6445  -20.1724   19.7630 N.2     1  UNL1       -0.0268
      7 C          -5.6866  -19.7196   20.8247 C.2     1  UNL1        0.3760
      8 N          -4.2506  -20.0605   21.0924 N.2     1  UNL1       -0.0306
      9 C          -3.8106  -19.2944   22.3046 C.2     1  UNL1        0.2361
     10 C          -4.9746  -18.4801   22.7861 C.2     1  UNL1        0.0583
     11 C          -6.1341  -18.7429   21.8715 C.2     1  UNL1        0.1203
     12 C          -7.5395  -18.2190   21.8566 C.3     1  UNL1        0.2596
     13 N          -8.2609  -17.2551   22.7513 N.pl3   1  UNL1       -0.1906
     14 C          -7.6805  -16.5567   23.9451 C.3     1  UNL1        0.1628
     15 C          -6.4235  -15.7502   23.8045 C.3     1  UNL1        0.0468
     16 C          -5.8430  -15.0518   24.9984 C.3     1  UNL1        0.0066
     17 C          -6.5195  -15.1599   26.3328 C.3     1  UNL1        0.0295
     18 C          -7.7764  -15.9664   26.4734 C.3     1  UNL1        0.1145
     19 O          -8.4529  -16.0744   27.8078 O.3     1  UNL1       -0.3843
     20 C          -8.3569  -16.6647   25.2796 C.3     1  UNL1        0.0758
     21 H          -9.2455  -16.6274   27.7247 H       1  UNL1        0.2103
@<TRIPOS>BOND
     1     1     2    1
     2     2     3    2
     3     3     4    1
     4     4     5    2
     5     5     6    1
     6     6     7    2
     7     7     8    1
     8     8     9    2
     9     9    10    1
    10    10    11    2
    11    11    12    1
    12    12    13    1
    13    14    13    1
    14    14    15    1
    15    15    16    1
    16    16    17    1
    17    17    18    1
    18    18    19    1
    19    18    20    1
    20    13     2    1
    21    20    14    1
    22    12     4    1
    23    11     7    1
    24    19    21    1
