@<TRIPOS>MOLECULE
*****
 16 16 0 0 0
SMALL
GASTEIGER

@<TRIPOS>ATOM
      1 C         -10.6362  -17.2423   21.0706 C.ar    1  UNL1       -0.0045
      2 C         -10.8802  -18.2286   19.9672 C.ar    1  UNL1       -0.0028
      3 C          -9.8379  -19.2546   19.6342 C.ar    1  UNL1       -0.0002
      4 C          -8.5515  -19.2942   20.4046 C.ar    1  UNL1        0.0015
      5 C          -8.3074  -18.3078   21.5080 C.ar    1  UNL1        0.0188
      6 C          -9.3498  -17.2819   21.8410 C.ar    1  UNL1        0.0791
      7 N          -9.1057  -16.2955   22.9444 N.2     1  UNL1       -0.2245
      8 C          -7.9376  -15.3577   22.8673 C.2     1  UNL1        0.1958
      9 N          -7.6935  -14.3713   23.9708 N.3     1  UNL1       -0.2481
     10 O          -6.4272  -14.4402   24.7718 O.3     1  UNL1       -0.2879
     11 H          -8.3645  -13.6788   24.1693 H       1  UNL1        0.1956
     12 H          -5.8803  -15.1737   24.4496 H       1  UNL1        0.2442
     13 C         -11.6786  -16.2163   21.4036 C.3     1  UNL1        0.0279
     14 C         -12.5733  -16.4142   22.5911 C.3     1  UNL1        0.0047
     15 C         -13.9525  -18.0262   24.0908 C.3     1  UNL1        0.0000
     16 C         -12.8508  -17.7982   23.0987 C.3     1  UNL1        0.0003
@<TRIPOS>BOND
     1    15    16    1
     2    16    14    1
     3    14    13    1
     4    13     1    1
     5     1     2   ar
     6     2     3   ar
     7     3     4   ar
     8     4     5   ar
     9     5     6   ar
    10     6     7    1
    11     7     8    2
    12     8     9    1
    13     9    10    1
    14     6     1   ar
    15     9    11    1
    16    10    12    1
@<TRIPOS>MOLECULE
*****
 16 16 0 0 0
SMALL
GASTEIGER

@<TRIPOS>ATOM
      1 C          -9.7788  -17.5854   23.9188 C.ar    1  UNL1       -0.0045
      2 C          -9.8682  -18.5717   25.0454 C.ar    1  UNL1       -0.0028
      3 C         -10.1975  -20.0072   24.7612 C.ar    1  UNL1       -0.0002
      4 C         -10.4375  -20.4565   23.3504 C.ar    1  UNL1        0.0015
      5 C         -10.3481  -19.4703   22.2238 C.ar    1  UNL1        0.0188
      6 C         -10.0188  -18.0348   22.5080 C.ar    1  UNL1        0.0791
      7 N          -9.9294  -17.0485   21.3812 N.2     1  UNL1       -0.2245
      8 C         -11.1663  -16.6540   20.6300 C.2     1  UNL1        0.1958
      9 N         -11.0769  -15.6678   19.5032 N.3     1  UNL1       -0.2481
     10 O         -12.3171  -15.2554   18.7673 O.3     1  UNL1       -0.2879
     11 H         -10.2042  -15.2911   19.2468 H       1  UNL1        0.1956
     12 H         -13.0840  -15.7157   19.1427 H       1  UNL1        0.2442
     13 C          -9.4494  -16.1499   24.2030 C.3     1  UNL1        0.0279
     14 C          -8.1659  -15.7976   24.8946 C.3     1  UNL1        0.0047
     15 C          -8.2292  -16.3513   27.4322 C.3     1  UNL1        0.0000
     16 C          -8.1844  -15.3419   26.3235 C.3     1  UNL1        0.0003
@<TRIPOS>BOND
     1    15    16    1
     2    16    14    1
     3    14    13    1
     4    13     1    1
     5     1     2   ar
     6     2     3   ar
     7     3     4   ar
     8     4     5   ar
     9     5     6   ar
    10     6     7    1
    11     7     8    2
    12     8     9    1
    13     9    10    1
    14     6     1   ar
    15     9    11    1
    16    10    12    1
@<TRIPOS>MOLECULE
*****
 16 16 0 0 0
SMALL
GASTEIGER

@<TRIPOS>ATOM
      1 C         -11.1467  -17.7998   23.4762 C.ar    1  UNL1       -0.0045
      2 C         -12.4368  -18.2804   22.8806 C.ar    1  UNL1       -0.0028
      3 C         -12.9546  -17.6634   21.6153 C.ar    1  UNL1       -0.0002
      4 C         -12.1823  -16.5658   20.9454 C.ar    1  UNL1        0.0015
      5 C         -10.8923  -16.0851   21.5410 C.ar    1  UNL1        0.0188
      6 C         -10.3745  -16.7022   22.8063 C.ar    1  UNL1        0.0791
      7 N          -9.0843  -16.2215   23.4019 N.2     1  UNL1       -0.2245
      8 C          -8.0618  -15.5501   22.5338 C.2     1  UNL1        0.1958
      9 N          -6.7716  -15.0694   23.1294 N.3     1  UNL1       -0.2481
     10 O          -6.7699  -14.3908   24.4671 O.3     1  UNL1       -0.2879
     11 H          -5.9260  -15.1993   22.6422 H       1  UNL1        0.1956
     12 H          -7.6772  -14.3441   24.8071 H       1  UNL1        0.2442
     13 C         -10.6289  -18.4168   24.7415 C.3     1  UNL1        0.0279
     14 C          -9.9177  -19.7367   24.6960 C.3     1  UNL1        0.0047
     15 C          -8.2228  -19.7489   22.7269 C.3     1  UNL1        0.0000
     16 C          -9.4565  -20.2952   23.3825 C.3     1  UNL1        0.0003
@<TRIPOS>BOND
     1    15    16    1
     2    16    14    1
     3    14    13    1
     4    13     1    1
     5     1     2   ar
     6     2     3   ar
     7     3     4   ar
     8     4     5   ar
     9     5     6   ar
    10     6     7    1
    11     7     8    2
    12     8     9    1
    13     9    10    1
    14     6     1   ar
    15     9    11    1
    16    10    12    1
@<TRIPOS>MOLECULE
*****
 16 16 0 0 0
SMALL
GASTEIGER

@<TRIPOS>ATOM
      1 C          -8.4093  -16.3105   24.9443 C.ar    1  UNL1       -0.0045
      2 C          -8.3147  -16.0019   26.4091 C.ar    1  UNL1       -0.0028
      3 C          -7.0166  -15.5298   26.9939 C.ar    1  UNL1       -0.0002
      4 C          -5.8130  -15.3662   26.1138 C.ar    1  UNL1        0.0015
      5 C          -5.9076  -15.6748   24.6490 C.ar    1  UNL1        0.0188
      6 C          -7.2057  -16.1469   24.0642 C.ar    1  UNL1        0.0791
      7 N          -7.3002  -16.4555   22.5993 N.2     1  UNL1       -0.2245
      8 C          -7.1871  -17.8732   22.1227 C.2     1  UNL1        0.1958
      9 N          -7.2816  -18.1818   20.6577 N.3     1  UNL1       -0.2481
     10 O          -6.0353  -18.4377   19.8633 O.3     1  UNL1       -0.2879
     11 H          -8.1617  -18.2164   20.2177 H       1  UNL1        0.1956
     12 H          -5.2615  -18.3657   20.4436 H       1  UNL1        0.2442
     13 C          -9.7074  -16.7827   24.3595 C.3     1  UNL1        0.0279
     14 C         -10.1063  -18.2232   24.4844 C.3     1  UNL1        0.0047
     15 C         -12.4731  -18.0427   23.4280 C.3     1  UNL1        0.0000
     16 C         -11.5574  -18.6031   24.4757 C.3     1  UNL1        0.0003
@<TRIPOS>BOND
     1    15    16    1
     2    16    14    1
     3    14    13    1
     4    13     1    1
     5     1     2   ar
     6     2     3   ar
     7     3     4   ar
     8     4     5   ar
     9     5     6   ar
    10     6     7    1
    11     7     8    2
    12     8     9    1
    13     9    10    1
    14     6     1   ar
    15     9    11    1
    16    10    12    1
@<TRIPOS>MOLECULE
*****
 16 16 0 0 0
SMALL
GASTEIGER

@<TRIPOS>ATOM
      1 C          -4.1338  -18.9090   21.9576 C.ar    1  UNL1       -0.0045
      2 C          -5.5795  -19.2441   22.1758 C.ar    1  UNL1       -0.0028
      3 C          -6.2495  -20.2726   21.3137 C.ar    1  UNL1       -0.0002
      4 C          -5.4738  -20.9660   20.2333 C.ar    1  UNL1        0.0015
      5 C          -4.0281  -20.6310   20.0150 C.ar    1  UNL1        0.0188
      6 C          -3.3581  -19.6025   20.8772 C.ar    1  UNL1        0.0791
      7 N          -1.9123  -19.2675   20.6589 N.2     1  UNL1       -0.2245
      8 C          -1.5221  -18.2897   19.5905 C.2     1  UNL1        0.1958
      9 N          -0.0763  -17.9547   19.3722 N.3     1  UNL1       -0.2481
     10 O           0.8584  -17.8682   20.5421 O.3     1  UNL1       -0.2879
     11 H           0.2591  -17.7915   18.4610 H       1  UNL1        0.1956
     12 H           0.3712  -18.0550   21.3598 H       1  UNL1        0.2442
     13 C          -3.4639  -17.8806   22.8198 C.3     1  UNL1        0.0279
     14 C          -4.1595  -17.3577   24.0415 C.3     1  UNL1        0.0047
     15 C          -5.4048  -15.4105   25.2281 C.3     1  UNL1        0.0000
     16 C          -4.9492  -16.0845   23.9678 C.3     1  UNL1        0.0003
@<TRIPOS>BOND
     1    15    16    1
     2    16    14    1
     3    14    13    1
     4    13     1    1
     5     1     2   ar
     6     2     3   ar
     7     3     4   ar
     8     4     5   ar
     9     5     6   ar
    10     6     7    1
    11     7     8    2
    12     8     9    1
    13     9    10    1
    14     6     1   ar
    15     9    11    1
    16    10    12    1
@<TRIPOS>MOLECULE
*****
 16 16 0 0 0
SMALL
GASTEIGER

@<TRIPOS>ATOM
      1 C         -10.4592  -18.9927   21.7954 C.ar    1  UNL1       -0.0045
      2 C         -10.8307  -20.2419   22.5379 C.ar    1  UNL1       -0.0028
      3 C         -10.6487  -20.3126   24.0252 C.ar    1  UNL1       -0.0002
      4 C         -10.0951  -19.1341   24.7699 C.ar    1  UNL1        0.0015
      5 C          -9.7236  -17.8849   24.0274 C.ar    1  UNL1        0.0188
      6 C          -9.9056  -17.8142   22.5401 C.ar    1  UNL1        0.0791
      7 N          -9.5340  -16.5648   21.7976 N.2     1  UNL1       -0.2245
      8 C          -8.2659  -15.8395   22.1375 C.2     1  UNL1        0.1958
      9 N          -7.8943  -14.5902   21.3949 N.3     1  UNL1       -0.2481
     10 O          -8.8367  -14.0118   20.3814 O.3     1  UNL1       -0.2879
     11 H          -7.0319  -14.1499   21.5729 H       1  UNL1        0.1956
     12 H          -9.6331  -14.5630   20.3288 H       1  UNL1        0.2442
     13 C         -10.6412  -18.9219   20.3082 C.3     1  UNL1        0.0279
     14 C          -9.9908  -19.9439   19.4236 C.3     1  UNL1        0.0047
     15 C          -7.5359  -19.3650   20.0468 C.3     1  UNL1        0.0000
     16 C          -8.5526  -19.7866   19.0276 C.3     1  UNL1        0.0003
@<TRIPOS>BOND
     1    15    16    1
     2    16    14    1
     3    14    13    1
     4    13     1    1
     5     1     2   ar
     6     2     3   ar
     7     3     4   ar
     8     4     5   ar
     9     5     6   ar
    10     6     7    1
    11     7     8    2
    12     8     9    1
    13     9    10    1
    14     6     1   ar
    15     9    11    1
    16    10    12    1
@<TRIPOS>MOLECULE
*****
 16 16 0 0 0
SMALL
GASTEIGER

@<TRIPOS>ATOM
      1 C          -7.5882  -15.6776   24.4328 C.ar    1  UNL1       -0.0045
      2 C          -8.6147  -15.6027   25.5239 C.ar    1  UNL1       -0.0028
      3 C          -8.1826  -15.4258   26.9494 C.ar    1  UNL1       -0.0002
      4 C          -6.7239  -15.3237   27.2837 C.ar    1  UNL1        0.0015
      5 C          -5.6974  -15.3985   26.1926 C.ar    1  UNL1        0.0188
      6 C          -6.1295  -15.5754   24.7671 C.ar    1  UNL1        0.0791
      7 N          -5.1029  -15.6502   23.6760 N.2     1  UNL1       -0.2245
      8 C          -4.3062  -16.9060   23.4806 C.2     1  UNL1        0.1958
      9 N          -3.2796  -16.9808   22.3894 N.3     1  UNL1       -0.2481
     10 O          -2.7181  -15.7209   21.8002 O.3     1  UNL1       -0.2879
     11 H          -2.9743  -17.8569   22.0600 H       1  UNL1        0.1956
     12 H          -3.1222  -14.9531   22.2340 H       1  UNL1        0.2442
     13 C          -8.0203  -15.8545   23.0073 C.3     1  UNL1        0.0279
     14 C          -8.4538  -17.2042   22.5170 C.3     1  UNL1        0.0047
     15 C          -7.5955  -19.6397   22.2307 C.3     1  UNL1        0.0000
     16 C          -7.4383  -18.1690   21.9806 C.3     1  UNL1        0.0003
@<TRIPOS>BOND
     1    15    16    1
     2    16    14    1
     3    14    13    1
     4    13     1    1
     5     1     2   ar
     6     2     3   ar
     7     3     4   ar
     8     4     5   ar
     9     5     6   ar
    10     6     7    1
    11     7     8    2
    12     8     9    1
    13     9    10    1
    14     6     1   ar
    15     9    11    1
    16    10    12    1
@<TRIPOS>MOLECULE
*****
 16 16 0 0 0
SMALL
GASTEIGER

@<TRIPOS>ATOM
      1 C         -10.3519  -18.8931   21.0993 C.ar    1  UNL1       -0.0045
      2 C         -10.4088  -19.7001   19.8362 C.ar    1  UNL1       -0.0028
      3 C          -9.1459  -20.0187   19.0922 C.ar    1  UNL1       -0.0002
      4 C          -7.8261  -19.5302   19.6113 C.ar    1  UNL1        0.0015
      5 C          -7.7692  -18.7232   20.8743 C.ar    1  UNL1        0.0188
      6 C          -9.0321  -18.4046   21.6183 C.ar    1  UNL1        0.0791
      7 N          -8.9752  -17.5975   22.8815 N.2     1  UNL1       -0.2245
      8 C          -8.3924  -16.2155   22.8628 C.2     1  UNL1        0.1958
      9 N          -8.3355  -15.4084   24.1260 N.3     1  UNL1       -0.2481
     10 O          -7.6402  -14.0793   24.1361 O.3     1  UNL1       -0.2879
     11 H          -8.7545  -15.7510   24.9483 H       1  UNL1        0.1956
     12 H          -7.2856  -13.8932   23.2526 H       1  UNL1        0.2442
     13 C         -11.6148  -18.5745   21.8433 C.3     1  UNL1        0.0279
     14 C         -12.5750  -17.5624   21.2922 C.3     1  UNL1        0.0047
     15 C         -11.6495  -15.8808   19.5413 C.3     1  UNL1        0.0000
     16 C         -12.0940  -16.1857   20.9411 C.3     1  UNL1        0.0003
@<TRIPOS>BOND
     1    15    16    1
     2    16    14    1
     3    14    13    1
     4    13     1    1
     5     1     2   ar
     6     2     3   ar
     7     3     4   ar
     8     4     5   ar
     9     5     6   ar
    10     6     7    1
    11     7     8    2
    12     8     9    1
    13     9    10    1
    14     6     1   ar
    15     9    11    1
    16    10    12    1
@<TRIPOS>MOLECULE
*****
 16 16 0 0 0
SMALL
GASTEIGER

@<TRIPOS>ATOM
      1 C          -5.9752  -15.7127   24.8498 C.ar    1  UNL1       -0.0045
      2 C          -5.5455  -15.7157   26.2869 C.ar    1  UNL1       -0.0028
      3 C          -6.5639  -15.5430   27.3746 C.ar    1  UNL1       -0.0002
      4 C          -8.0120  -15.3672   27.0252 C.ar    1  UNL1        0.0015
      5 C          -8.4417  -15.3641   25.5881 C.ar    1  UNL1        0.0188
      6 C          -7.4233  -15.5369   24.5004 C.ar    1  UNL1        0.0791
      7 N          -7.8531  -15.5338   23.0632 N.2     1  UNL1       -0.2245
      8 C          -9.0827  -16.2850   22.6465 C.2     1  UNL1        0.1958
      9 N          -9.5125  -16.2819   21.2094 N.3     1  UNL1       -0.2481
     10 O          -9.7792  -14.9825   20.5091 O.3     1  UNL1       -0.2879
     11 H          -9.6196  -17.1327   20.7258 H       1  UNL1        0.1956
     12 H          -9.6280  -14.2472   21.1233 H       1  UNL1        0.2442
     13 C          -4.9569  -15.8854   23.7621 C.3     1  UNL1        0.0279
     14 C          -4.1569  -17.1514   23.6778 C.3     1  UNL1        0.0047
     15 C          -2.4079  -16.1634   22.0301 C.3     1  UNL1        0.0000
     16 C          -3.1671  -17.3406   22.5667 C.3     1  UNL1        0.0003
@<TRIPOS>BOND
     1    15    16    1
     2    16    14    1
     3    14    13    1
     4    13     1    1
     5     1     2   ar
     6     2     3   ar
     7     3     4   ar
     8     4     5   ar
     9     5     6   ar
    10     6     7    1
    11     7     8    2
    12     8     9    1
    13     9    10    1
    14     6     1   ar
    15     9    11    1
    16    10    12    1
