@<TRIPOS>MOLECULE
*****
 32 35 0 0 0
SMALL
GASTEIGER

@<TRIPOS>ATOM
      1 C          -6.8933  -20.1128   19.6145 C.ar    1  UNL1        0.0536
      2 C          -5.9931  -18.9337   19.3926 C.ar    1  UNL1        0.0043
      3 C          -4.5376  -19.0249   19.7432 C.ar    1  UNL1       -0.0005
      4 C          -3.9822  -20.2952   20.3157 C.ar    1  UNL1        0.0212
      5 C          -4.8823  -21.4743   20.5377 C.ar    1  UNL1       -0.0005
      6 C          -6.3379  -21.3831   20.1871 C.ar    1  UNL1        0.0043
      7 C         -11.2254  -18.0337   22.0965 C.3     1  UNL1        0.1025
      8 C          -9.7698  -18.1249   22.4472 C.3     1  UNL1        0.0327
      9 C          -8.8110  -18.7875   21.5030 C.3     1  UNL1        0.0943
     10 N          -9.3078  -19.3590   20.2081 N.am    1  UNL1       -0.2761
     11 C          -8.3490  -20.0217   19.2639 C.2     1  UNL1        0.2490
     12 O          -8.8457  -20.5932   17.9691 O.2     1  UNL1       -0.2699
     13 C         -10.7633  -19.2679   19.8575 C.3     1  UNL1        0.0943
     14 C         -11.7222  -18.6053   20.8017 C.3     1  UNL1        0.0327
     15 C         -12.1842  -17.3711   23.0407 C.2     1  UNL1        0.3167
     16 O         -12.5952  -15.9462   22.8150 O.2     1  UNL1       -0.2501
     17 C         -14.2145  -18.2122   24.4267 C.3     1  UNL1        0.2556
     18 O         -12.7321  -18.1333   24.2107 O.3     1  UNL1       -0.4444
     19 C          -2.5265  -20.3863   20.6664 C.3     1  UNL1        0.2320
     20 O          -1.9713  -19.5564   21.7856 O.3     1  UNL1       -0.4706
     21 C          -2.6606  -18.2875   22.1918 C.ar    1  UNL1        0.1397
     22 C          -2.1005  -16.9616   21.7699 C.ar    1  UNL1        0.0385
     23 C          -2.7898  -15.6928   22.1761 C.ar    1  UNL1        0.0228
     24 C          -4.0391  -15.7500   23.0043 C.ar    1  UNL1        0.0894
     25 N          -4.9306  -14.6748   23.5517 N.ar    1  UNL1       -0.2245
     26 C          -6.0415  -15.3364   24.3119 C.ar    1  UNL1        0.1567
     27 N          -7.1608  -14.6369   25.0246 N.pl3   1  UNL1       -0.3375
     28 S          -5.8367  -16.8204   24.2344 S.2     1  UNL1       -0.0519
     29 C          -4.5992  -17.0759   23.4262 C.ar    1  UNL1        0.0527
     30 C          -3.9099  -18.3447   23.0200 C.ar    1  UNL1        0.0450
     31 H          -7.2098  -13.6536   25.0187 H       1  UNL1        0.1442
     32 H          -7.8465  -15.1610   25.4984 H       1  UNL1        0.1442
@<TRIPOS>BOND
     1    17    18    1
     2    18    15    1
     3    15    16    2
     4    15     7    1
     5     7     8    1
     6     8     9    1
     7     9    10    1
     8    10    11   am
     9    11    12    2
    10    11     1    1
    11     1     2   ar
    12     2     3   ar
    13     3     4   ar
    14     4    19    1
    15    19    20    1
    16    20    21    1
    17    21    22   ar
    18    22    23   ar
    19    23    24   ar
    20    24    25   ar
    21    25    26   ar
    22    26    27    1
    23    26    28   ar
    24    28    29   ar
    25    29    30   ar
    26     4     5   ar
    27     5     6   ar
    28    10    13    1
    29    13    14    1
    30    14     7    1
    31     6     1   ar
    32    30    21   ar
    33    29    24   ar
    34    27    31    1
    35    27    32    1
@<TRIPOS>MOLECULE
*****
 32 35 0 0 0
SMALL
GASTEIGER

@<TRIPOS>ATOM
      1 C           5.2405   -1.9001   18.8801 C.ar    1  UNL1        0.0536
      2 C           6.5707   -1.2395   19.0898 C.ar    1  UNL1        0.0043
      3 C           7.6621   -1.9659   19.8186 C.ar    1  UNL1       -0.0005
      4 C           7.4233   -3.3529   20.3376 C.ar    1  UNL1        0.0212
      5 C           6.0930   -4.0134   20.1278 C.ar    1  UNL1       -0.0005
      6 C           5.0016   -3.2870   19.3991 C.ar    1  UNL1        0.0043
      7 C           1.0035    1.0654   20.4627 C.3     1  UNL1        0.1025
      8 C           2.0950    0.3390   21.1915 C.3     1  UNL1        0.0327
      9 C           3.1435   -0.4073   20.4210 C.3     1  UNL1        0.0943
     10 N           3.1005   -0.4273   18.9218 N.am    1  UNL1       -0.2761
     11 C           4.1490   -1.1737   18.1513 C.2     1  UNL1        0.2490
     12 O           4.1060   -1.1937   16.6521 O.2     1  UNL1       -0.2699
     13 C           2.0091    0.2990   18.1930 C.3     1  UNL1        0.0943
     14 C           0.9605    1.0454   18.9635 C.3     1  UNL1        0.0327
     15 C          -0.0449    1.8118   21.2332 C.2     1  UNL1        0.3167
     16 O           0.1953    2.1748   22.6687 O.2     1  UNL1       -0.2501
     17 C          -2.0344    3.4610   20.9642 C.3     1  UNL1        0.2556
     18 O          -1.3337    2.1951   20.5682 O.3     1  UNL1       -0.4444
     19 C           8.5148   -4.0793   21.0664 C.3     1  UNL1        0.2320
     20 O           8.3714   -5.5417   21.3672 O.3     1  UNL1       -0.4706
     21 C           8.3354   -6.0148   22.7902 C.ar    1  UNL1        0.1397
     22 C           9.0438   -7.2786   23.1786 C.ar    1  UNL1        0.0385
     23 C           9.0078   -7.7516   24.6016 C.ar    1  UNL1        0.0228
     24 C           8.2633   -6.9608   25.6362 C.ar    1  UNL1        0.0894
     25 N           8.0537   -7.1769   27.1057 N.ar    1  UNL1       -0.2245
     26 C           7.2157   -6.0466   27.6255 C.ar    1  UNL1        0.1567
     27 N           6.7650   -5.8631   29.0444 N.pl3   1  UNL1       -0.3375
     28 S           6.9074   -5.1320   26.4772 S.2     1  UNL1       -0.0519
     29 C           7.5549   -5.6970   25.2478 C.ar    1  UNL1        0.0527
     30 C           7.5909   -5.2240   23.8248 C.ar    1  UNL1        0.0450
     31 H           7.0198   -6.5212   29.7308 H       1  UNL1        0.1442
     32 H           6.2145   -5.0845   29.2893 H       1  UNL1        0.1442
@<TRIPOS>BOND
     1    17    18    1
     2    18    15    1
     3    15    16    2
     4    15     7    1
     5     7     8    1
     6     8     9    1
     7     9    10    1
     8    10    11   am
     9    11    12    2
    10    11     1    1
    11     1     2   ar
    12     2     3   ar
    13     3     4   ar
    14     4    19    1
    15    19    20    1
    16    20    21    1
    17    21    22   ar
    18    22    23   ar
    19    23    24   ar
    20    24    25   ar
    21    25    26   ar
    22    26    27    1
    23    26    28   ar
    24    28    29   ar
    25    29    30   ar
    26     4     5   ar
    27     5     6   ar
    28    10    13    1
    29    13    14    1
    30    14     7    1
    31     6     1   ar
    32    30    21   ar
    33    29    24   ar
    34    27    31    1
    35    27    32    1
@<TRIPOS>MOLECULE
*****
 32 35 0 0 0
SMALL
GASTEIGER

@<TRIPOS>ATOM
      1 C           2.8953    0.6042   18.0904 C.ar    1  UNL1        0.0536
      2 C           3.5643    1.9405   18.2194 C.ar    1  UNL1        0.0043
      3 C           2.7527    3.1560   18.5570 C.ar    1  UNL1       -0.0005
      4 C           1.2722    3.0351   18.7656 C.ar    1  UNL1        0.0212
      5 C           0.6033    1.6988   18.6366 C.ar    1  UNL1       -0.0005
      6 C           1.4148    0.4833   18.2990 C.ar    1  UNL1        0.0043
      7 C           5.5652   -3.0600   21.0392 C.3     1  UNL1        0.1025
      8 C           4.7537   -1.8445   21.3768 C.3     1  UNL1        0.0327
      9 C           4.1342   -1.0283   20.2814 C.3     1  UNL1        0.0943
     10 N           4.3263   -1.4275   18.8483 N.am    1  UNL1       -0.2761
     11 C           3.7069   -0.6113   17.7529 C.2     1  UNL1        0.2490
     12 O           3.8990   -1.0106   16.3198 O.2     1  UNL1       -0.2699
     13 C           5.1378   -2.6430   18.5107 C.3     1  UNL1        0.0943
     14 C           5.7573   -3.4593   19.6062 C.3     1  UNL1        0.0327
     15 C           6.1847   -3.8762   22.1347 C.2     1  UNL1        0.3167
     16 O           7.3186   -4.8084   21.8260 O.2     1  UNL1       -0.2501
     17 C           6.5646   -4.0959   24.6955 C.3     1  UNL1        0.2556
     18 O           5.6702   -3.7603   23.5389 O.3     1  UNL1       -0.4444
     19 C           0.4606    4.2507   19.1032 C.3     1  UNL1        0.2320
     20 O          -1.0214    4.2510   18.8717 O.3     1  UNL1       -0.4706
     21 C          -1.9614    4.0896   20.0295 C.ar    1  UNL1        0.1397
     22 C          -1.4245    3.7638   21.3917 C.ar    1  UNL1        0.0385
     23 C          -2.3645    3.6025   22.5494 C.ar    1  UNL1        0.0228
     24 C          -3.8414    3.7669   22.3449 C.ar    1  UNL1        0.0894
     25 N          -5.0025    3.6679   23.2894 N.ar    1  UNL1       -0.2245
     26 C          -6.2571    3.9325   22.5108 C.ar    1  UNL1        0.1567
     27 N          -7.6525    3.9343   23.0612 N.pl3   1  UNL1       -0.3375
     28 S          -5.8712    4.1951   21.0853 S.2     1  UNL1       -0.0519
     29 C          -4.3782    4.0927   20.9827 C.ar    1  UNL1        0.0527
     30 C          -3.4382    4.2541   19.8250 C.ar    1  UNL1        0.0450
     31 H          -7.8053    3.7497   24.0161 H       1  UNL1        0.1442
     32 H          -8.4156    4.1201   22.4675 H       1  UNL1        0.1442
@<TRIPOS>BOND
     1    17    18    1
     2    18    15    1
     3    15    16    2
     4    15     7    1
     5     7     8    1
     6     8     9    1
     7     9    10    1
     8    10    11   am
     9    11    12    2
    10    11     1    1
    11     1     2   ar
    12     2     3   ar
    13     3     4   ar
    14     4    19    1
    15    19    20    1
    16    20    21    1
    17    21    22   ar
    18    22    23   ar
    19    23    24   ar
    20    24    25   ar
    21    25    26   ar
    22    26    27    1
    23    26    28   ar
    24    28    29   ar
    25    29    30   ar
    26     4     5   ar
    27     5     6   ar
    28    10    13    1
    29    13    14    1
    30    14     7    1
    31     6     1   ar
    32    30    21   ar
    33    29    24   ar
    34    27    31    1
    35    27    32    1
@<TRIPOS>MOLECULE
*****
 32 35 0 0 0
SMALL
GASTEIGER

@<TRIPOS>ATOM
      1 C           7.0499   -2.4746   20.1136 C.ar    1  UNL1        0.0536
      2 C           7.8605   -1.5033   20.9194 C.ar    1  UNL1        0.0043
      3 C           8.5622   -1.9625   22.1631 C.ar    1  UNL1       -0.0005
      4 C           8.4534   -3.3930   22.6009 C.ar    1  UNL1        0.0212
      5 C           7.6428   -4.3644   21.7950 C.ar    1  UNL1       -0.0005
      6 C           6.9411   -3.9052   20.5514 C.ar    1  UNL1        0.0043
      7 C           2.2711   -0.1319   19.1520 C.3     1  UNL1        0.1025
      8 C           2.9729   -0.5911   20.3957 C.3     1  UNL1        0.0327
      9 C           4.3319   -1.2189   20.3017 C.3     1  UNL1        0.0943
     10 N           4.9891   -1.3876   18.9639 N.am    1  UNL1       -0.2761
     11 C           6.3481   -2.0155   18.8699 C.2     1  UNL1        0.2490
     12 O           7.0054   -2.1842   17.5322 O.2     1  UNL1       -0.2699
     13 C           4.2874   -0.9285   17.7203 C.3     1  UNL1        0.0943
     14 C           2.9284   -0.3006   17.8143 C.3     1  UNL1        0.0327
     15 C           0.9121    0.4960   19.2460 C.2     1  UNL1        0.3167
     16 O           0.0417    0.2253   20.4374 O.2     1  UNL1       -0.2501
     17 C           0.4929    2.8840   18.3123 C.3     1  UNL1        0.2556
     18 O           0.4234    1.3945   18.1488 O.3     1  UNL1       -0.4444
     19 C           9.1551   -3.8522   23.8446 C.3     1  UNL1        0.2320
     20 O           8.5085   -4.8680   24.7390 O.3     1  UNL1       -0.4706
     21 C           8.0360   -4.4709   26.1062 C.ar    1  UNL1        0.1397
     22 C           7.6027   -3.0592   26.3693 C.ar    1  UNL1        0.0385
     23 C           7.1302   -2.6621   27.7364 C.ar    1  UNL1        0.0228
     24 C           7.0911   -3.6768   28.8404 C.ar    1  UNL1        0.0894
     25 N           6.6762   -3.5796   30.2787 N.ar    1  UNL1       -0.2245
     26 C           6.8531   -4.9313   30.9045 C.ar    1  UNL1        0.1567
     27 N           6.5577   -5.2880   32.3312 N.pl3   1  UNL1       -0.3375
     28 S           7.3773   -5.8639   29.8530 S.2     1  UNL1       -0.0519
     29 C           7.5243   -5.0885   28.5774 C.ar    1  UNL1        0.0527
     30 C           7.9968   -5.4856   27.2102 C.ar    1  UNL1        0.0450
     31 H           6.2144   -4.6026   32.9490 H       1  UNL1        0.1442
     32 H           6.7070   -6.2074   32.6499 H       1  UNL1        0.1442
@<TRIPOS>BOND
     1    17    18    1
     2    18    15    1
     3    15    16    2
     4    15     7    1
     5     7     8    1
     6     8     9    1
     7     9    10    1
     8    10    11   am
     9    11    12    2
    10    11     1    1
    11     1     2   ar
    12     2     3   ar
    13     3     4   ar
    14     4    19    1
    15    19    20    1
    16    20    21    1
    17    21    22   ar
    18    22    23   ar
    19    23    24   ar
    20    24    25   ar
    21    25    26   ar
    22    26    27    1
    23    26    28   ar
    24    28    29   ar
    25    29    30   ar
    26     4     5   ar
    27     5     6   ar
    28    10    13    1
    29    13    14    1
    30    14     7    1
    31     6     1   ar
    32    30    21   ar
    33    29    24   ar
    34    27    31    1
    35    27    32    1
@<TRIPOS>MOLECULE
*****
 32 35 0 0 0
SMALL
GASTEIGER

@<TRIPOS>ATOM
      1 C          -8.2197  -20.1688   20.1323 C.ar    1  UNL1        0.0536
      2 C          -9.1393  -19.6441   19.0698 C.ar    1  UNL1        0.0043
      3 C         -10.4285  -18.9809   19.4543 C.ar    1  UNL1       -0.0005
      4 C         -10.7982  -18.8423   20.9014 C.ar    1  UNL1        0.0212
      5 C          -9.8786  -19.3669   21.9640 C.ar    1  UNL1       -0.0005
      6 C          -8.5894  -20.0301   21.5794 C.ar    1  UNL1        0.0043
      7 C          -3.0165  -19.1601   21.2093 C.3     1  UNL1        0.1025
      8 C          -4.3059  -18.4968   21.5938 C.3     1  UNL1        0.0327
      9 C          -5.6104  -19.0541   21.1066 C.3     1  UNL1        0.0943
     10 N          -5.6258  -20.2747   20.2350 N.am    1  UNL1       -0.2761
     11 C          -6.9304  -20.8321   19.7478 C.2     1  UNL1        0.2490
     12 O          -6.9458  -22.0527   18.8761 O.2     1  UNL1       -0.2699
     13 C          -4.3366  -20.9380   19.8504 C.3     1  UNL1        0.0943
     14 C          -3.0319  -20.3807   20.3376 C.3     1  UNL1        0.0327
     15 C          -1.7120  -18.6027   21.6964 C.2     1  UNL1        0.3167
     16 O          -1.6088  -18.0365   23.0817 O.2     1  UNL1       -0.2501
     17 C          -0.3965  -17.6092   19.6883 C.3     1  UNL1        0.2556
     18 O          -0.5105  -18.6116   20.7984 O.3     1  UNL1       -0.4444
     19 C         -12.0875  -18.1790   21.2859 C.3     1  UNL1        0.2320
     20 O         -12.0692  -16.9190   22.0996 O.3     1  UNL1       -0.4706
     21 C         -10.7645  -16.3529   22.5764 C.ar    1  UNL1        0.1397
     22 C          -9.8509  -15.6579   21.6108 C.ar    1  UNL1        0.0385
     23 C          -8.5462  -15.0919   22.0876 C.ar    1  UNL1        0.0228
     24 C          -8.1551  -15.2208   23.5299 C.ar    1  UNL1        0.0894
     25 N          -6.9416  -14.7660   24.2854 N.ar    1  UNL1       -0.2245
     26 C          -7.1052  -15.1800   25.7178 C.ar    1  UNL1        0.1567
     27 N          -6.1261  -14.9276   26.8258 N.pl3   1  UNL1       -0.3375
     28 S          -8.4198  -15.8906   25.8476 S.2     1  UNL1       -0.0519
     29 C          -9.0687  -15.9158   24.4955 C.ar    1  UNL1        0.0527
     30 C         -10.3733  -16.4819   24.0187 C.ar    1  UNL1        0.0450
     31 H          -5.2855  -14.4498   26.6407 H       1  UNL1        0.1442
     32 H          -6.3241  -15.2399   27.7383 H       1  UNL1        0.1442
@<TRIPOS>BOND
     1    17    18    1
     2    18    15    1
     3    15    16    2
     4    15     7    1
     5     7     8    1
     6     8     9    1
     7     9    10    1
     8    10    11   am
     9    11    12    2
    10    11     1    1
    11     1     2   ar
    12     2     3   ar
    13     3     4   ar
    14     4    19    1
    15    19    20    1
    16    20    21    1
    17    21    22   ar
    18    22    23   ar
    19    23    24   ar
    20    24    25   ar
    21    25    26   ar
    22    26    27    1
    23    26    28   ar
    24    28    29   ar
    25    29    30   ar
    26     4     5   ar
    27     5     6   ar
    28    10    13    1
    29    13    14    1
    30    14     7    1
    31     6     1   ar
    32    30    21   ar
    33    29    24   ar
    34    27    31    1
    35    27    32    1
@<TRIPOS>MOLECULE
*****
 32 35 0 0 0
SMALL
GASTEIGER

@<TRIPOS>ATOM
      1 C           2.6557   -1.0614   19.7300 C.ar    1  UNL1        0.0536
      2 C           3.3353   -0.1475   18.7539 C.ar    1  UNL1        0.0043
      3 C           2.6188    1.0651   18.2380 C.ar    1  UNL1       -0.0005
      4 C           1.2227    1.3637   18.6982 C.ar    1  UNL1        0.0212
      5 C           0.5432    0.4498   19.6743 C.ar    1  UNL1       -0.0005
      6 C           1.2597   -0.7628   20.1902 C.ar    1  UNL1        0.0043
      7 C           5.1694   -2.2404   24.3714 C.3     1  UNL1        0.1025
      8 C           4.4529   -1.0277   23.8554 C.3     1  UNL1        0.0327
      9 C           3.8538   -1.0390   22.4803 C.3     1  UNL1        0.0943
     10 N           3.9713   -2.2629   21.6210 N.am    1  UNL1       -0.2761
     11 C           3.3722   -2.2741   20.2459 C.2     1  UNL1        0.2490
     12 O           3.4896   -3.4980   19.3867 O.2     1  UNL1       -0.2699
     13 C           4.6877   -3.4755   22.1369 C.3     1  UNL1        0.0943
     14 C           5.2868   -3.4643   23.5121 C.3     1  UNL1        0.0327
     15 C           5.7684   -2.2291   25.7465 C.2     1  UNL1        0.3167
     16 O           6.8879   -3.1686   26.0846 O.2     1  UNL1       -0.2501
     17 C           3.8863   -1.4877   27.3768 C.3     1  UNL1        0.2556
     18 O           5.2480   -1.2784   26.7835 O.3     1  UNL1       -0.4444
     19 C           0.5062    2.5764   18.1823 C.3     1  UNL1        0.2320
     20 O          -0.0134    3.6054   19.1420 O.3     1  UNL1       -0.4706
     21 C          -1.4657    3.6153   19.5173 C.ar    1  UNL1        0.1397
     22 C          -1.8765    3.3349   20.9324 C.ar    1  UNL1        0.0385
     23 C          -3.3288    3.3448   21.3077 C.ar    1  UNL1        0.0228
     24 C          -4.3702    3.6351   20.2679 C.ar    1  UNL1        0.0894
     25 N          -5.8664    3.7132   20.3403 N.ar    1  UNL1       -0.2245
     26 C          -6.3803    4.0419   18.9700 C.ar    1  UNL1        0.1567
     27 N          -7.8201    4.2151   18.5863 N.pl3   1  UNL1       -0.3375
     28 S          -5.2016    4.1668   18.0506 S.2     1  UNL1       -0.0519
     29 C          -3.9593    3.9154   18.8528 C.ar    1  UNL1        0.0527
     30 C          -2.5071    3.9055   18.4775 C.ar    1  UNL1        0.0450
     31 H          -8.5261    4.1126   19.2647 H       1  UNL1        0.1442
     32 H          -8.0590    4.4314   17.6560 H       1  UNL1        0.1442
@<TRIPOS>BOND
     1    17    18    1
     2    18    15    1
     3    15    16    2
     4    15     7    1
     5     7     8    1
     6     8     9    1
     7     9    10    1
     8    10    11   am
     9    11    12    2
    10    11     1    1
    11     1     2   ar
    12     2     3   ar
    13     3     4   ar
    14     4    19    1
    15    19    20    1
    16    20    21    1
    17    21    22   ar
    18    22    23   ar
    19    23    24   ar
    20    24    25   ar
    21    25    26   ar
    22    26    27    1
    23    26    28   ar
    24    28    29   ar
    25    29    30   ar
    26     4     5   ar
    27     5     6   ar
    28    10    13    1
    29    13    14    1
    30    14     7    1
    31     6     1   ar
    32    30    21   ar
    33    29    24   ar
    34    27    31    1
    35    27    32    1
@<TRIPOS>MOLECULE
*****
 32 35 0 0 0
SMALL
GASTEIGER

@<TRIPOS>ATOM
      1 C           0.4421    2.1883   21.0252 C.ar    1  UNL1        0.0536
      2 C           1.7087    2.8889   20.6320 C.ar    1  UNL1        0.0043
      3 C           2.6470    2.2484   19.6525 C.ar    1  UNL1       -0.0005
      4 C           2.3185    0.9073   19.0663 C.ar    1  UNL1        0.0212
      5 C           1.0519    0.2067   19.4596 C.ar    1  UNL1       -0.0005
      6 C           0.1136    0.8472   20.4390 C.ar    1  UNL1        0.0043
      7 C          -0.1961    1.8402   26.3845 C.3     1  UNL1        0.1025
      8 C           0.7422    1.1997   25.4050 C.3     1  UNL1        0.0327
      9 C           0.6422    1.5292   23.9451 C.3     1  UNL1        0.0943
     10 N          -0.3962    2.4993   23.4647 N.am    1  UNL1       -0.2761
     11 C          -0.4962    2.8288   22.0048 C.2     1  UNL1        0.2490
     12 O          -1.5346    3.7989   21.5243 O.2     1  UNL1       -0.2699
     13 C          -1.3345    3.1398   24.4441 C.3     1  UNL1        0.0943
     14 C          -1.2344    2.8103   25.9041 C.3     1  UNL1        0.0327
     15 C          -0.0960    1.5107   27.8444 C.2     1  UNL1        0.3167
     16 O           0.2700    2.5795   28.8312 O.2     1  UNL1       -0.2501
     17 C          -1.6369   -0.2048   29.0415 C.3     1  UNL1        0.2556
     18 O          -0.3619    0.1123   28.3176 O.3     1  UNL1       -0.4444
     19 C           3.2569    0.2668   18.0868 C.3     1  UNL1        0.2320
     20 O           3.3191   -1.2277   17.9751 O.3     1  UNL1       -0.4706
     21 C           4.0744   -2.0254   18.9966 C.ar    1  UNL1        0.1397
     22 C           5.0184   -3.1049   18.5569 C.ar    1  UNL1        0.0385
     23 C           5.7737   -3.9025   19.5784 C.ar    1  UNL1        0.0228
     24 C           5.5849   -3.6205   21.0395 C.ar    1  UNL1        0.0894
     25 N           6.1877   -4.2373   22.2668 N.ar    1  UNL1       -0.2245
     26 C           5.6162   -3.5389   23.4650 C.ar    1  UNL1        0.1567
     27 N           5.9433   -3.8366   24.8984 N.pl3   1  UNL1       -0.3375
     28 S           4.6602   -2.4905   22.9782 S.2     1  UNL1       -0.0519
     29 C           4.6409   -2.5410   21.4792 C.ar    1  UNL1        0.0527
     30 C           3.8856   -1.7434   20.4577 C.ar    1  UNL1        0.0450
     31 H           6.5872   -4.5479   25.1188 H       1  UNL1        0.1442
     32 H           5.5140   -3.3207   25.6186 H       1  UNL1        0.1442
@<TRIPOS>BOND
     1    17    18    1
     2    18    15    1
     3    15    16    2
     4    15     7    1
     5     7     8    1
     6     8     9    1
     7     9    10    1
     8    10    11   am
     9    11    12    2
    10    11     1    1
    11     1     2   ar
    12     2     3   ar
    13     3     4   ar
    14     4    19    1
    15    19    20    1
    16    20    21    1
    17    21    22   ar
    18    22    23   ar
    19    23    24   ar
    20    24    25   ar
    21    25    26   ar
    22    26    27    1
    23    26    28   ar
    24    28    29   ar
    25    29    30   ar
    26     4     5   ar
    27     5     6   ar
    28    10    13    1
    29    13    14    1
    30    14     7    1
    31     6     1   ar
    32    30    21   ar
    33    29    24   ar
    34    27    31    1
    35    27    32    1
@<TRIPOS>MOLECULE
*****
 32 35 0 0 0
SMALL
GASTEIGER

@<TRIPOS>ATOM
      1 C           4.9395   -3.2718   21.1713 C.ar    1  UNL1        0.0536
      2 C           6.3250   -3.4487   20.6245 C.ar    1  UNL1        0.0043
      3 C           7.4370   -3.8922   21.5283 C.ar    1  UNL1       -0.0005
      4 C           7.1635   -4.1587   22.9789 C.ar    1  UNL1        0.0212
      5 C           5.7779   -3.9818   23.5256 C.ar    1  UNL1       -0.0005
      6 C           4.6660   -3.5384   22.6219 C.ar    1  UNL1        0.0043
      7 C           1.2024    0.6271   21.4584 C.3     1  UNL1        0.1025
      8 C           2.3144    0.1836   22.3622 C.3     1  UNL1        0.0327
      9 C           3.1894   -0.9682   21.9652 C.3     1  UNL1        0.0943
     10 N           2.9525   -1.6766   20.6645 N.am    1  UNL1       -0.2761
     11 C           3.8275   -2.8284   20.2675 C.2     1  UNL1        0.2490
     12 O           3.5905   -3.5368   18.9667 O.2     1  UNL1       -0.2699
     13 C           1.8405   -1.2332   19.7607 C.3     1  UNL1        0.0943
     14 C           0.9654   -0.0813   20.1577 C.3     1  UNL1        0.0327
     15 C           0.3274    1.7789   21.8554 C.2     1  UNL1        0.3167
     16 O           0.5855    2.5089   23.1402 O.2     1  UNL1       -0.2501
     17 C          -0.5338    3.0279   19.7462 C.3     1  UNL1        0.2556
     18 O          -0.8058    2.2007   20.9677 O.3     1  UNL1       -0.4444
     19 C           8.2755   -4.6021   23.8827 C.3     1  UNL1        0.2320
     20 O           8.2753   -5.9925   24.4456 O.3     1  UNL1       -0.4706
     21 C           8.3628   -6.2013   25.9285 C.ar    1  UNL1        0.1397
     22 C           9.4454   -7.0670   26.5014 C.ar    1  UNL1        0.0385
     23 C           9.5329   -7.2757   27.9841 C.ar    1  UNL1        0.0228
     24 C           8.5377   -6.6187   28.8940 C.ar    1  UNL1        0.0894
     25 N           8.3739   -6.6402   30.3850 N.ar    1  UNL1       -0.2245
     26 C           7.1899   -5.7877   30.7335 C.ar    1  UNL1        0.1567
     27 N           6.6658   -5.5289   32.1149 N.pl3   1  UNL1       -0.3375
     28 S           6.6221   -5.2394   29.4580 S.2     1  UNL1       -0.0519
     29 C           7.4550   -5.7530   28.3212 C.ar    1  UNL1        0.0527
     30 C           7.3676   -5.5443   26.8384 C.ar    1  UNL1        0.0450
     31 H           7.1092   -5.9360   32.8939 H       1  UNL1        0.1442
     32 H           5.8784   -4.9518   32.2426 H       1  UNL1        0.1442
@<TRIPOS>BOND
     1    17    18    1
     2    18    15    1
     3    15    16    2
     4    15     7    1
     5     7     8    1
     6     8     9    1
     7     9    10    1
     8    10    11   am
     9    11    12    2
    10    11     1    1
    11     1     2   ar
    12     2     3   ar
    13     3     4   ar
    14     4    19    1
    15    19    20    1
    16    20    21    1
    17    21    22   ar
    18    22    23   ar
    19    23    24   ar
    20    24    25   ar
    21    25    26   ar
    22    26    27    1
    23    26    28   ar
    24    28    29   ar
    25    29    30   ar
    26     4     5   ar
    27     5     6   ar
    28    10    13    1
    29    13    14    1
    30    14     7    1
    31     6     1   ar
    32    30    21   ar
    33    29    24   ar
    34    27    31    1
    35    27    32    1
@<TRIPOS>MOLECULE
*****
 32 35 0 0 0
SMALL
GASTEIGER

@<TRIPOS>ATOM
      1 C           2.9120    0.6104   18.0646 C.ar    1  UNL1        0.0536
      2 C           1.4307    0.5252   18.2848 C.ar    1  UNL1        0.0043
      3 C           0.6490    1.7623   18.6139 C.ar    1  UNL1       -0.0005
      4 C           1.3486    3.0847   18.7227 C.ar    1  UNL1        0.0212
      5 C           2.8299    3.1699   18.5025 C.ar    1  UNL1       -0.0005
      6 C           3.6116    1.9328   18.1734 C.ar    1  UNL1        0.0043
      7 C           5.5267   -3.0749   21.0366 C.3     1  UNL1        0.1025
      8 C           4.7449   -1.8376   21.3657 C.3     1  UNL1        0.0327
      9 C           4.1339   -1.0217   20.2653 C.3     1  UNL1        0.0943
     10 N           4.3047   -1.4428   18.8358 N.am    1  UNL1       -0.2761
     11 C           3.6937   -0.6268   17.7354 C.2     1  UNL1        0.2490
     12 O           3.8645   -1.0480   16.3059 O.2     1  UNL1       -0.2699
     13 C           5.0864   -2.6799   18.5067 C.3     1  UNL1        0.0943
     14 C           5.6974   -3.4960   19.6071 C.3     1  UNL1        0.0327
     15 C           6.1376   -3.8908   22.1369 C.2     1  UNL1        0.3167
     16 O           5.5832   -3.8083   23.5283 O.2     1  UNL1       -0.2501
     17 C           8.6603   -4.2008   21.5981 C.3     1  UNL1        0.2556
     18 O           7.3030   -4.7893   21.8460 O.3     1  UNL1       -0.4444
     19 C           0.5669    4.3219   19.0518 C.3     1  UNL1        0.2320
     20 O          -0.1837    4.4124   20.3474 O.3     1  UNL1       -0.4706
     21 C          -1.6506    4.7260   20.3441 C.ar    1  UNL1        0.1397
     22 C          -2.1899    5.8003   21.2413 C.ar    1  UNL1        0.0385
     23 C          -3.6567    6.1139   21.2379 C.ar    1  UNL1        0.0228
     24 C          -4.5842    5.3531   20.3374 C.ar    1  UNL1        0.0894
     25 N          -6.0657    5.4396   20.1184 N.ar    1  UNL1       -0.2245
     26 C          -6.4419    4.4188   19.0858 C.ar    1  UNL1        0.1567
     27 N          -7.8243    4.1606   18.5639 N.pl3   1  UNL1       -0.3375
     28 S          -5.1930    3.7014   18.6667 S.2     1  UNL1       -0.0519
     29 C          -4.0449    4.2788   19.4402 C.ar    1  UNL1        0.0527
     30 C          -2.5781    3.9653   19.4436 C.ar    1  UNL1        0.0450
     31 H          -8.5846    4.6865   18.9026 H       1  UNL1        0.1442
     32 H          -7.9714    3.4652   17.8827 H       1  UNL1        0.1442
@<TRIPOS>BOND
     1    17    18    1
     2    18    15    1
     3    15    16    2
     4    15     7    1
     5     7     8    1
     6     8     9    1
     7     9    10    1
     8    10    11   am
     9    11    12    2
    10    11     1    1
    11     1     2   ar
    12     2     3   ar
    13     3     4   ar
    14     4    19    1
    15    19    20    1
    16    20    21    1
    17    21    22   ar
    18    22    23   ar
    19    23    24   ar
    20    24    25   ar
    21    25    26   ar
    22    26    27    1
    23    26    28   ar
    24    28    29   ar
    25    29    30   ar
    26     4     5   ar
    27     5     6   ar
    28    10    13    1
    29    13    14    1
    30    14     7    1
    31     6     1   ar
    32    30    21   ar
    33    29    24   ar
    34    27    31    1
    35    27    32    1
