@<TRIPOS>MOLECULE
*****
 49 55 0 0 0
SMALL
GASTEIGER

@<TRIPOS>ATOM
      1 C           0.5782    1.8609   29.3647 C.ar    1  UNL1        0.0516
      2 C           0.7940    3.2450   28.8281 C.ar    1  UNL1        0.0148
      3 C           0.1323    3.6652   27.5492 C.ar    1  UNL1        0.0043
      4 C          -0.7452    2.7014   26.8069 C.ar    1  UNL1        0.0360
      5 C          -0.9610    1.3174   27.3434 C.ar    1  UNL1        0.0043
      6 C          -0.2993    0.8972   28.6223 C.ar    1  UNL1        0.0148
      7 N           3.1235    0.1514   31.8844 N.am    1  UNL1       -0.2681
      8 C           2.4618    0.5717   30.6055 C.2     1  UNL1        0.3082
      9 O           3.0222    0.1228   29.2884 O.2     1  UNL1       -0.2522
     10 N           1.2399    1.4407   30.6436 N.am    1  UNL1       -0.2681
     11 H           2.7558    0.4460   32.7488 H       1  UNL1        0.1564
     12 H           0.8721    1.7353   31.5080 H       1  UNL1        0.1564
     13 C           6.7895   -2.4557   31.7698 C.ar    1  UNL1        0.0537
     14 C           6.7845   -1.1369   31.0552 C.ar    1  UNL1        0.0058
     15 C           5.5625   -0.2679   31.0934 C.ar    1  UNL1        0.0149
     16 C           4.3455   -0.7177   31.8462 C.ar    1  UNL1        0.0516
     17 C           4.3505   -2.0365   32.5607 C.ar    1  UNL1        0.0149
     18 C           5.5725   -2.9055   32.5225 C.ar    1  UNL1        0.0058
     19 N           8.3118   -6.6538   28.7188 N.3     1  UNL1       -0.2711
     20 C           7.0898   -5.7848   28.7569 C.3     1  UNL1        0.0939
     21 C           6.9897   -4.6751   29.7612 C.3     1  UNL1        0.1110
     22 N           8.1116   -4.4345   30.7273 N.am    1  UNL1       -0.2732
     23 C           8.0115   -3.3248   31.7316 C.2     1  UNL1        0.2491
     24 O           9.1334   -3.0842   32.6977 O.2     1  UNL1       -0.2699
     25 C           9.3336   -5.3036   30.6892 C.3     1  UNL1        0.1110
     26 C           9.4337   -6.4132   29.6849 C.3     1  UNL1        0.0939
     27 C           9.4430   -8.8393   27.8858 C.3     1  UNL1        0.0173
     28 C           8.4119   -7.7635   27.7145 C.3     1  UNL1        0.0577
     29 C           7.4808   -7.7974   26.5389 C.3     1  UNL1        0.0173
     30 C          -1.4069    3.1216   25.5280 C.ar    1  UNL1        0.1664
     31 N          -2.8534    3.5188   25.5272 N.ar    1  UNL1       -0.2118
     32 C          -3.5151    3.9390   24.2483 C.ar    1  UNL1        0.1434
     33 N          -2.7303    3.9620   22.9702 N.ar    1  UNL1       -0.1987
     34 C          -1.2839    3.5648   22.9710 C.ar    1  UNL1        0.2226
     35 N          -0.6222    3.1446   24.2499 N.ar    1  UNL1       -0.1945
     36 N          -0.4991    3.5878   21.6928 N.pl3   1  UNL1       -0.2764
     37 C           0.2626    4.8196   21.3024 C.3     1  UNL1        0.1051
     38 C          -0.6155    4.3624   22.4292 C.3     1  UNL1        0.0242
     39 C          -1.0419    2.9531   22.1421 C.3     1  UNL1        0.0242
     40 C          -0.4759    2.3789   20.8051 C.3     1  UNL1        0.1051
     41 C           0.3088    2.4018   19.5270 C.3     1  UNL1        0.1619
     42 O           1.0704    3.6336   19.1366 O.3     1  UNL1       -0.3503
     43 C           1.0473    4.8425   20.0243 C.3     1  UNL1        0.1619
     44 C          -4.9615    4.3363   24.2476 C.3     1  UNL1        0.0638
     45 C          -5.8446    3.9502   23.0982 C.3     1  UNL1        0.0397
     46 C          -7.2911    4.3474   23.0974 C.3     1  UNL1        0.1426
     47 O          -7.8544    5.1307   24.2459 O.3     1  UNL1       -0.3538
     48 C          -6.9712    5.5168   25.3953 C.3     1  UNL1        0.1426
     49 C          -5.5248    5.1196   25.3961 C.3     1  UNL1        0.0397
@<TRIPOS>BOND
     1    27    28    1
     2    28    29    1
     3    28    19    1
     4    19    20    1
     5    20    21    1
     6    21    22    1
     7    22    23   am
     8    23    24    2
     9    23    13    1
    10    13    14   ar
    11    14    15   ar
    12    15    16   ar
    13    16     7    1
    14     7     8   am
    15     8     9    2
    16     8    10   am
    17    10     1    1
    18     1     2   ar
    19     2     3   ar
    20     3     4   ar
    21     4    30    1
    22    30    31   ar
    23    31    32   ar
    24    32    44    1
    25    44    45    1
    26    45    46    1
    27    46    47    1
    28    47    48    1
    29    48    49    1
    30    32    33   ar
    31    33    34   ar
    32    34    36    1
    33    36    37    1
    34    37    38    1
    35    38    39    1
    36    39    40    1
    37    40    41    1
    38    41    42    1
    39    42    43    1
    40    34    35   ar
    41     4     5   ar
    42     5     6   ar
    43    16    17   ar
    44    17    18   ar
    45    22    25    1
    46    25    26    1
    47    26    19    1
    48    18    13   ar
    49     6     1   ar
    50    35    30   ar
    51    49    44    1
    52    40    36    1
    53    43    37    1
    54     7    11    1
    55    10    12    1
@<TRIPOS>MOLECULE
*****
 49 55 0 0 0
SMALL
GASTEIGER

@<TRIPOS>ATOM
      1 C           0.6184    1.7842   29.7232 C.ar    1  UNL1        0.0516
      2 C           0.8871    3.1295   29.1164 C.ar    1  UNL1        0.0148
      3 C           0.1415    3.5608   27.8884 C.ar    1  UNL1        0.0043
      4 C          -0.8728    2.6467   27.2671 C.ar    1  UNL1        0.0360
      5 C          -1.1414    1.3015   27.8739 C.ar    1  UNL1        0.0043
      6 C          -0.3958    0.8703   29.1020 C.ar    1  UNL1        0.0148
      7 N           3.3044    0.0235   32.0546 N.am    1  UNL1       -0.2681
      8 C           2.5588    0.4548   30.8265 C.2     1  UNL1        0.3082
      9 O           3.0080   -0.0123   29.4737 O.2     1  UNL1       -0.2522
     10 N           1.3641    1.3530   30.9513 N.am    1  UNL1       -0.2681
     11 H           3.0096    0.3301   32.9425 H       1  UNL1        0.1564
     12 H           1.0692    1.6596   31.8391 H       1  UNL1        0.1564
     13 C           6.8889   -2.6712   31.6801 C.ar    1  UNL1        0.0537
     14 C           6.8591   -1.3579   30.9562 C.ar    1  UNL1        0.0058
     15 C           5.6643   -0.4596   31.0810 C.ar    1  UNL1        0.0149
     16 C           4.4993   -0.8748   31.9298 C.ar    1  UNL1        0.0516
     17 C           4.5291   -2.1881   32.6537 C.ar    1  UNL1        0.0149
     18 C           5.7238   -3.0864   32.5289 C.ar    1  UNL1        0.0058
     19 N           8.1409   -6.8183   28.4421 N.3     1  UNL1       -0.2711
     20 C           6.9461   -5.9200   28.5668 C.3     1  UNL1        0.0939
     21 C           6.9270   -4.8371   29.6046 C.3     1  UNL1        0.1110
     22 N           8.1027   -4.6524   30.5176 N.am    1  UNL1       -0.2732
     23 C           8.0837   -3.5695   31.5553 C.2     1  UNL1        0.2491
     24 O           9.2594   -3.3849   32.4683 O.2     1  UNL1       -0.2699
     25 C           9.2976   -5.5507   30.3928 C.3     1  UNL1        0.1110
     26 C           9.3166   -6.6336   29.3550 C.3     1  UNL1        0.0939
     27 C           7.3748   -7.7389   26.1365 C.3     1  UNL1        0.0173
     28 C           8.1599   -7.9012   27.4043 C.3     1  UNL1        0.0577
     29 C           8.9641   -9.1464   27.6344 C.3     1  UNL1        0.0173
     30 C          -1.6184    3.0779   26.0391 C.ar    1  UNL1        0.1664
     31 N          -0.9870    2.9272   24.6867 N.ar    1  UNL1       -0.2118
     32 C          -1.7326    3.3585   23.4587 C.ar    1  UNL1        0.1434
     33 N          -3.1096    3.9404   23.5830 N.ar    1  UNL1       -0.1987
     34 C          -3.7409    4.0910   24.9352 C.ar    1  UNL1        0.2226
     35 N          -2.9953    3.6598   26.1633 N.ar    1  UNL1       -0.1945
     36 N          -5.1179    4.6730   25.0595 N.pl3   1  UNL1       -0.2764
     37 C          -6.1879    4.2827   24.0835 C.3     1  UNL1        0.1051
     38 C          -4.7423    3.9723   24.3357 C.3     1  UNL1        0.0242
     39 C          -4.3016    4.7589   25.5346 C.3     1  UNL1        0.0242
     40 C          -5.4248    5.6451   26.1599 C.3     1  UNL1        0.1051
     41 C          -6.8016    6.2270   26.2842 C.3     1  UNL1        0.1619
     42 O          -7.8717    5.8368   25.3082 O.3     1  UNL1       -0.3503
     43 C          -7.5648    4.8646   24.2078 C.3     1  UNL1        0.1619
     44 C          -1.1014    3.2078   22.1064 C.3     1  UNL1        0.0638
     45 C           0.0359    2.2492   21.9122 C.3     1  UNL1        0.0397
     46 C           0.6673    2.0985   20.5599 C.3     1  UNL1        0.1426
     47 O           0.1613    2.9064   19.4018 O.3     1  UNL1       -0.3538
     48 C          -0.9760    3.8650   19.5960 C.3     1  UNL1        0.1426
     49 C          -1.6073    4.0157   20.9482 C.3     1  UNL1        0.0397
@<TRIPOS>BOND
     1    27    28    1
     2    28    29    1
     3    28    19    1
     4    19    20    1
     5    20    21    1
     6    21    22    1
     7    22    23   am
     8    23    24    2
     9    23    13    1
    10    13    14   ar
    11    14    15   ar
    12    15    16   ar
    13    16     7    1
    14     7     8   am
    15     8     9    2
    16     8    10   am
    17    10     1    1
    18     1     2   ar
    19     2     3   ar
    20     3     4   ar
    21     4    30    1
    22    30    31   ar
    23    31    32   ar
    24    32    44    1
    25    44    45    1
    26    45    46    1
    27    46    47    1
    28    47    48    1
    29    48    49    1
    30    32    33   ar
    31    33    34   ar
    32    34    36    1
    33    36    37    1
    34    37    38    1
    35    38    39    1
    36    39    40    1
    37    40    41    1
    38    41    42    1
    39    42    43    1
    40    34    35   ar
    41     4     5   ar
    42     5     6   ar
    43    16    17   ar
    44    17    18   ar
    45    22    25    1
    46    25    26    1
    47    26    19    1
    48    18    13   ar
    49     6     1   ar
    50    35    30   ar
    51    49    44    1
    52    40    36    1
    53    43    37    1
    54     7    11    1
    55    10    12    1
@<TRIPOS>MOLECULE
*****
 49 55 0 0 0
SMALL
GASTEIGER

@<TRIPOS>ATOM
      1 C           6.0905   -2.9020   32.6179 C.ar    1  UNL1        0.0516
      2 C           7.0840   -1.8093   32.8812 C.ar    1  UNL1        0.0148
      3 C           6.6773   -0.6002   33.6702 C.ar    1  UNL1        0.0043
      4 C           5.2772   -0.4837   34.1959 C.ar    1  UNL1        0.0360
      5 C           4.2839   -1.5763   33.9326 C.ar    1  UNL1        0.0043
      6 C           4.6906   -2.7855   33.1436 C.ar    1  UNL1        0.0148
      7 N           7.1135   -5.2136   29.5585 N.am    1  UNL1       -0.2681
      8 C           6.7069   -4.0044   30.3475 C.2     1  UNL1        0.3082
      9 O           6.5099   -2.6884   29.6550 O.2     1  UNL1       -0.2522
     10 N           6.4972   -4.1112   31.8289 N.am    1  UNL1       -0.2681
     11 H           7.2428   -6.0773   30.0129 H       1  UNL1        0.1564
     12 H           6.6265   -4.9749   32.2834 H       1  UNL1        0.1564
     13 C           7.7427   -4.8930   25.1143 C.ar    1  UNL1        0.0537
     14 C           8.3914   -3.9041   26.0368 C.ar    1  UNL1        0.0058
     15 C           8.1817   -4.0110   27.5182 C.ar    1  UNL1        0.0149
     16 C           7.3232   -5.1068   28.0770 C.ar    1  UNL1        0.0516
     17 C           6.6745   -6.0957   27.1545 C.ar    1  UNL1        0.0149
     18 C           6.8842   -5.9888   25.6731 C.ar    1  UNL1        0.0058
     19 N           4.8649   -2.7569   21.0638 N.3     1  UNL1       -0.2711
     20 C           4.6552   -2.8637   22.5452 C.3     1  UNL1        0.0939
     21 C           5.6844   -3.5401   23.4016 C.3     1  UNL1        0.1110
     22 N           6.9232   -4.1098   22.7765 N.am    1  UNL1       -0.2732
     23 C           7.9523   -4.7862   23.6328 C.2     1  UNL1        0.2491
     24 O           9.1912   -5.3558   23.0077 O.2     1  UNL1       -0.2699
     25 C           7.1329   -4.0029   21.2950 C.3     1  UNL1        0.1110
     26 C           6.1038   -3.3265   20.4387 C.3     1  UNL1        0.0939
     27 C           3.8516   -2.2758   18.7204 C.3     1  UNL1        0.0173
     28 C           3.8358   -2.0805   20.2075 C.3     1  UNL1        0.0577
     29 C           2.7908   -1.2086   20.8384 C.3     1  UNL1        0.0173
     30 C           4.8706    0.7255   34.9850 C.ar    1  UNL1        0.1664
     31 N           3.9043    0.5877   36.1240 N.ar    1  UNL1       -0.2118
     32 C           3.4976    1.7968   36.9130 C.ar    1  UNL1        0.1434
     33 N           4.0573    3.1438   36.5630 N.ar    1  UNL1       -0.1987
     34 C           5.0236    3.2816   35.4240 C.ar    1  UNL1        0.2226
     35 N           5.4302    2.0724   34.6350 N.ar    1  UNL1       -0.1945
     36 N           5.5833    4.6286   35.0740 N.pl3   1  UNL1       -0.2764
     37 C           6.8862    5.0765   35.6670 C.3     1  UNL1        0.1051
     38 C           5.9889    3.8760   35.7259 C.3     1  UNL1        0.0242
     39 C           4.8075    4.1364   34.8390 C.3     1  UNL1        0.0242
     40 C           4.8400    5.5276   34.1310 C.3     1  UNL1        0.1051
     41 C           5.3996    6.8745   33.7810 C.3     1  UNL1        0.1619
     42 O           6.7025    7.3225   34.3740 O.3     1  UNL1       -0.3503
     43 C           7.4458    6.4235   35.3170 C.3     1  UNL1        0.1619
     44 C           2.5313    1.6591   38.0519 C.3     1  UNL1        0.0638
     45 C           2.3805    0.3412   38.7522 C.3     1  UNL1        0.0397
     46 C           1.4142    0.2034   39.8912 C.3     1  UNL1        0.1426
     47 O           0.5988    1.3835   40.3299 O.3     1  UNL1       -0.3538
     48 C           0.7497    2.7014   39.6296 C.3     1  UNL1        0.1426
     49 C           1.7159    2.8392   38.4907 C.3     1  UNL1        0.0397
@<TRIPOS>BOND
     1    27    28    1
     2    28    29    1
     3    28    19    1
     4    19    20    1
     5    20    21    1
     6    21    22    1
     7    22    23   am
     8    23    24    2
     9    23    13    1
    10    13    14   ar
    11    14    15   ar
    12    15    16   ar
    13    16     7    1
    14     7     8   am
    15     8     9    2
    16     8    10   am
    17    10     1    1
    18     1     2   ar
    19     2     3   ar
    20     3     4   ar
    21     4    30    1
    22    30    31   ar
    23    31    32   ar
    24    32    44    1
    25    44    45    1
    26    45    46    1
    27    46    47    1
    28    47    48    1
    29    48    49    1
    30    32    33   ar
    31    33    34   ar
    32    34    36    1
    33    36    37    1
    34    37    38    1
    35    38    39    1
    36    39    40    1
    37    40    41    1
    38    41    42    1
    39    42    43    1
    40    34    35   ar
    41     4     5   ar
    42     5     6   ar
    43    16    17   ar
    44    17    18   ar
    45    22    25    1
    46    25    26    1
    47    26    19    1
    48    18    13   ar
    49     6     1   ar
    50    35    30   ar
    51    49    44    1
    52    40    36    1
    53    43    37    1
    54     7    11    1
    55    10    12    1
@<TRIPOS>MOLECULE
*****
 49 55 0 0 0
SMALL
GASTEIGER

@<TRIPOS>ATOM
      1 C           1.3129    0.0262   28.7392 C.ar    1  UNL1        0.0516
      2 C          -0.1586    0.0397   29.0305 C.ar    1  UNL1        0.0148
      3 C          -1.0676    0.9494   28.2585 C.ar    1  UNL1        0.0043
      4 C          -0.5053    1.8455   27.1951 C.ar    1  UNL1        0.0360
      5 C           0.9660    1.8319   26.9037 C.ar    1  UNL1        0.0043
      6 C           1.8751    0.9223   27.6758 C.ar    1  UNL1        0.0148
      7 N           3.8263   -1.2908   31.5138 N.am    1  UNL1       -0.2681
      8 C           2.9172   -0.3811   30.7417 C.2     1  UNL1        0.3082
      9 O           2.7034    1.0311   31.2002 O.2     1  UNL1       -0.2522
     10 N           2.2219   -0.8835   29.5112 N.am    1  UNL1       -0.2681
     11 H           3.9666   -2.2176   31.2129 H       1  UNL1        0.1564
     12 H           2.3622   -1.8103   29.2103 H       1  UNL1        0.1564
     13 C           5.9120    0.2166   35.2053 C.ar    1  UNL1        0.0537
     14 C           4.8300   -0.8154   35.3238 C.ar    1  UNL1        0.0058
     15 C           4.1348   -1.3178   34.0933 C.ar    1  UNL1        0.0149
     16 C           4.5216   -0.7882   32.7443 C.ar    1  UNL1        0.0516
     17 C           5.6036    0.2438   32.6257 C.ar    1  UNL1        0.0149
     18 C           6.2988    0.7462   33.8562 C.ar    1  UNL1        0.0058
     19 N           4.8158    4.0941   38.8128 N.3     1  UNL1       -0.2711
     20 C           4.1205    3.5917   37.5823 C.3     1  UNL1        0.0939
     21 C           4.7177    2.4666   36.7899 C.3     1  UNL1        0.1110
     22 N           6.0102    1.8441   37.2281 N.am    1  UNL1       -0.2732
     23 C           6.6073    0.7191   36.4358 C.2     1  UNL1        0.2491
     24 O           7.8998    0.0966   36.8740 O.2     1  UNL1       -0.2699
     25 C           6.7054    2.3466   38.4586 C.3     1  UNL1        0.1110
     26 C           6.1083    3.4716   39.2509 C.3     1  UNL1        0.0939
     27 C           3.8871    6.5176   38.9314 C.3     1  UNL1        0.0173
     28 C           4.2186    5.2191   39.6051 C.3     1  UNL1        0.0577
     29 C           3.9529    5.0455   41.0712 C.3     1  UNL1        0.0173
     30 C          -1.4144    2.7552   26.4230 C.ar    1  UNL1        0.1664
     31 N          -1.4178    2.7158   24.9235 N.ar    1  UNL1       -0.2118
     32 C          -2.3269    3.6255   24.1514 C.ar    1  UNL1        0.1434
     33 N          -3.2325    4.5746   24.8789 N.ar    1  UNL1       -0.1987
     34 C          -3.2291    4.6139   26.3783 C.ar    1  UNL1        0.2226
     35 N          -2.3200    3.7042   27.1504 N.ar    1  UNL1       -0.1945
     36 N          -4.1347    5.5630   27.1058 N.pl3   1  UNL1       -0.2764
     37 C          -3.5525    6.6849   27.9134 C.3     1  UNL1        0.1051
     38 C          -3.0605    5.5513   27.0632 C.3     1  UNL1        0.0242
     39 C          -4.2557    4.8037   26.5506 C.3     1  UNL1        0.0242
     40 C          -5.6226    5.3900   27.0256 C.3     1  UNL1        0.1051
     41 C          -6.5282    6.3390   27.7531 C.3     1  UNL1        0.1619
     42 O          -5.9460    7.4609   28.5606 O.3     1  UNL1       -0.3503
     43 C          -4.4582    7.6339   28.6408 C.3     1  UNL1        0.1619
     44 C          -2.3303    3.5861   22.6520 C.3     1  UNL1        0.0638
     45 C          -3.6112    3.7930   21.8993 C.3     1  UNL1        0.0397
     46 C          -3.6147    3.7536   20.3997 C.3     1  UNL1        0.1426
     47 O          -2.3373    3.5075   19.6530 O.3     1  UNL1       -0.3538
     48 C          -1.0564    3.3006   20.4058 C.3     1  UNL1        0.1426
     49 C          -1.0529    3.3400   21.9052 C.3     1  UNL1        0.0397
@<TRIPOS>BOND
     1    27    28    1
     2    28    29    1
     3    28    19    1
     4    19    20    1
     5    20    21    1
     6    21    22    1
     7    22    23   am
     8    23    24    2
     9    23    13    1
    10    13    14   ar
    11    14    15   ar
    12    15    16   ar
    13    16     7    1
    14     7     8   am
    15     8     9    2
    16     8    10   am
    17    10     1    1
    18     1     2   ar
    19     2     3   ar
    20     3     4   ar
    21     4    30    1
    22    30    31   ar
    23    31    32   ar
    24    32    44    1
    25    44    45    1
    26    45    46    1
    27    46    47    1
    28    47    48    1
    29    48    49    1
    30    32    33   ar
    31    33    34   ar
    32    34    36    1
    33    36    37    1
    34    37    38    1
    35    38    39    1
    36    39    40    1
    37    40    41    1
    38    41    42    1
    39    42    43    1
    40    34    35   ar
    41     4     5   ar
    42     5     6   ar
    43    16    17   ar
    44    17    18   ar
    45    22    25    1
    46    25    26    1
    47    26    19    1
    48    18    13   ar
    49     6     1   ar
    50    35    30   ar
    51    49    44    1
    52    40    36    1
    53    43    37    1
    54     7    11    1
    55    10    12    1
@<TRIPOS>MOLECULE
*****
 49 55 0 0 0
SMALL
GASTEIGER

@<TRIPOS>ATOM
      1 C           5.9351   -2.7017   32.7031 C.ar    1  UNL1        0.0516
      2 C           6.7427   -1.4431   32.8213 C.ar    1  UNL1        0.0148
      3 C           6.1537   -0.2337   33.4848 C.ar    1  UNL1        0.0043
      4 C           4.7572   -0.2827   34.0301 C.ar    1  UNL1        0.0360
      5 C           3.9496   -1.5412   33.9118 C.ar    1  UNL1        0.0043
      6 C           4.5386   -2.7507   33.2483 C.ar    1  UNL1        0.0148
      7 N           7.3393   -5.1272   29.8933 N.am    1  UNL1       -0.2681
      8 C           6.7503   -3.9178   30.5568 C.2     1  UNL1        0.3082
      9 O           6.3875   -2.7148   29.7374 O.2     1  UNL1       -0.2522
     10 N           6.5241   -3.9112   32.0396 N.am    1  UNL1       -0.2681
     11 H           7.5773   -5.9168   30.4310 H       1  UNL1        0.1564
     12 H           6.7622   -4.7007   32.5773 H       1  UNL1        0.1564
     13 C           8.0179   -5.1467   25.4448 C.ar    1  UNL1        0.0537
     14 C           8.9210   -4.3486   26.3377 C.ar    1  UNL1        0.0058
     15 C           8.6948   -4.3421   27.8205 C.ar    1  UNL1        0.0149
     16 C           7.5655   -5.1338   28.4104 C.ar    1  UNL1        0.0516
     17 C           6.6624   -5.9319   27.5174 C.ar    1  UNL1        0.0149
     18 C           6.8886   -5.9384   26.0346 C.ar    1  UNL1        0.0058
     19 N           5.6014   -2.6977   21.2719 N.3     1  UNL1       -0.2711
     20 C           5.3752   -2.6911   22.7547 C.3     1  UNL1        0.0939
     21 C           6.2561   -3.5097   23.6514 C.3     1  UNL1        0.1110
     22 N           7.3633   -4.3347   23.0652 N.am    1  UNL1       -0.2732
     23 C           8.2441   -5.1532   23.9619 C.2     1  UNL1        0.2491
     24 O           9.3513   -5.9783   23.3757 O.2     1  UNL1       -0.2699
     25 C           7.5895   -4.3412   21.5824 C.3     1  UNL1        0.1110
     26 C           6.7086   -3.5227   20.6857 C.3     1  UNL1        0.0939
     27 C           3.4414   -2.4588   19.8481 C.3     1  UNL1        0.0173
     28 C           4.7205   -1.8792   20.3752 C.3     1  UNL1        0.0577
     29 C           5.1188   -0.4809   20.0056 C.3     1  UNL1        0.0173
     30 C           4.1682    0.9268   34.6936 C.ar    1  UNL1        0.1664
     31 N           4.6161    1.3199   36.0702 N.ar    1  UNL1       -0.2118
     32 C           4.0271    2.5294   36.7337 C.ar    1  UNL1        0.1434
     33 N           2.9903    3.3458   36.0206 N.ar    1  UNL1       -0.1987
     34 C           2.5424    2.9527   34.6441 C.ar    1  UNL1        0.2226
     35 N           3.1314    1.7432   33.9806 N.ar    1  UNL1       -0.1945
     36 N           1.5055    3.7691   33.9310 N.pl3   1  UNL1       -0.2764
     37 C           0.9382    4.9954   34.5823 C.3     1  UNL1        0.1051
     38 C           1.9417    3.9271   34.9009 C.3     1  UNL1        0.0242
     39 C           1.9982    2.9823   33.7371 C.3     1  UNL1        0.0242
     40 C           1.0360    3.3591   32.5666 C.3     1  UNL1        0.1051
     41 C          -0.0008    4.1754   31.8535 C.3     1  UNL1        0.1619
     42 O          -0.5681    5.4017   32.5048 O.3     1  UNL1       -0.3503
     43 C          -0.0987    5.8117   33.8692 C.3     1  UNL1        0.1619
     44 C           4.4750    2.9225   38.1102 C.3     1  UNL1        0.0638
     45 C           5.7844    2.4222   38.6442 C.3     1  UNL1        0.0397
     46 C           6.2323    2.8153   40.0208 C.3     1  UNL1        0.1426
     47 O           5.3708    3.7086   40.8633 O.3     1  UNL1       -0.3538
     48 C           4.0613    4.2089   40.3292 C.3     1  UNL1        0.1426
     49 C           3.6135    3.8158   38.9527 C.3     1  UNL1        0.0397
@<TRIPOS>BOND
     1    27    28    1
     2    28    29    1
     3    28    19    1
     4    19    20    1
     5    20    21    1
     6    21    22    1
     7    22    23   am
     8    23    24    2
     9    23    13    1
    10    13    14   ar
    11    14    15   ar
    12    15    16   ar
    13    16     7    1
    14     7     8   am
    15     8     9    2
    16     8    10   am
    17    10     1    1
    18     1     2   ar
    19     2     3   ar
    20     3     4   ar
    21     4    30    1
    22    30    31   ar
    23    31    32   ar
    24    32    44    1
    25    44    45    1
    26    45    46    1
    27    46    47    1
    28    47    48    1
    29    48    49    1
    30    32    33   ar
    31    33    34   ar
    32    34    36    1
    33    36    37    1
    34    37    38    1
    35    38    39    1
    36    39    40    1
    37    40    41    1
    38    41    42    1
    39    42    43    1
    40    34    35   ar
    41     4     5   ar
    42     5     6   ar
    43    16    17   ar
    44    17    18   ar
    45    22    25    1
    46    25    26    1
    47    26    19    1
    48    18    13   ar
    49     6     1   ar
    50    35    30   ar
    51    49    44    1
    52    40    36    1
    53    43    37    1
    54     7    11    1
    55    10    12    1
@<TRIPOS>MOLECULE
*****
 49 55 0 0 0
SMALL
GASTEIGER

@<TRIPOS>ATOM
      1 C           6.1860   -2.9624   32.5901 C.ar    1  UNL1        0.0516
      2 C           7.2280   -1.9226   32.8789 C.ar    1  UNL1        0.0148
      3 C           6.8650   -0.6934   33.6582 C.ar    1  UNL1        0.0043
      4 C           5.4601   -0.5039   34.1486 C.ar    1  UNL1        0.0360
      5 C           4.4183   -1.5437   33.8598 C.ar    1  UNL1        0.0043
      6 C           4.7812   -2.7729   33.0805 C.ar    1  UNL1        0.0148
      7 N           7.1822   -5.3229   29.5594 N.am    1  UNL1       -0.2681
      8 C           6.8193   -4.0937   30.3386 C.2     1  UNL1        0.3082
      9 O           6.7266   -2.7665   29.6457 O.2     1  UNL1       -0.2522
     10 N           6.5490   -4.1916   31.8108 N.am    1  UNL1       -0.2681
     11 H           7.2430   -6.1940   30.0141 H       1  UNL1        0.1564
     12 H           6.6098   -5.0626   32.2656 H       1  UNL1        0.1564
     13 C           7.9932   -5.0290   25.1428 C.ar    1  UNL1        0.0537
     14 C           8.8239   -4.2412   26.1119 C.ar    1  UNL1        0.0058
     15 C           8.5535   -4.3391   27.5841 C.ar    1  UNL1        0.0149
     16 C           7.4525   -5.2250   28.0871 C.ar    1  UNL1        0.0516
     17 C           6.6219   -6.0129   27.1180 C.ar    1  UNL1        0.0149
     18 C           6.8922   -5.9149   25.6459 C.ar    1  UNL1        0.0058
     19 N           5.2696   -2.9460   20.9604 N.3     1  UNL1       -0.2711
     20 C           4.9992   -3.0439   22.4325 C.3     1  UNL1        0.0939
     21 C           5.9972   -3.7056   23.3360 C.3     1  UNL1        0.1110
     22 N           7.2655   -4.2694   22.7672 N.am    1  UNL1       -0.2732
     23 C           8.2635   -4.9311   23.6706 C.2     1  UNL1        0.2491
     24 O           9.5319   -5.4949   23.1018 O.2     1  UNL1       -0.2699
     25 C           7.5359   -4.1714   21.2950 C.3     1  UNL1        0.1110
     26 C           6.5379   -3.5097   20.3916 C.3     1  UNL1        0.0939
     27 C           4.4531   -2.3417   18.5691 C.3     1  UNL1        0.0173
     28 C           4.2716   -2.2843   20.0570 C.3     1  UNL1        0.0577
     29 C           3.0920   -1.5651   20.6415 C.3     1  UNL1        0.0173
     30 C           5.0972    0.7253   34.9279 C.ar    1  UNL1        0.1664
     31 N           5.8159    2.0164   34.6698 N.ar    1  UNL1       -0.2118
     32 C           5.4530    3.2456   35.4491 C.ar    1  UNL1        0.1434
     33 N           4.3713    3.1837   36.4865 N.ar    1  UNL1       -0.1987
     34 C           3.6526    1.8927   36.7446 C.ar    1  UNL1        0.2226
     35 N           4.0155    0.6635   35.9653 N.ar    1  UNL1       -0.1945
     36 N           2.5709    1.8308   37.7820 N.pl3   1  UNL1       -0.2764
     37 C           1.6050    2.9692   37.9272 C.3     1  UNL1        0.1051
     38 C           2.7854    2.6109   37.0738 C.3     1  UNL1        0.0242
     39 C           3.2762    1.2606   37.5051 C.3     1  UNL1        0.0242
     40 C           2.4551    0.6306   38.6741 C.3     1  UNL1        0.1051
     41 C           1.3735    0.5687   39.7115 C.3     1  UNL1        0.1619
     42 O           0.4076    1.7070   39.8567 O.3     1  UNL1       -0.3503
     43 C           0.5234    2.9073   38.9646 C.3     1  UNL1        0.1619
     44 C           6.1717    4.5366   35.1910 C.3     1  UNL1        0.0638
     45 C           6.2642    5.5725   36.2718 C.3     1  UNL1        0.0397
     46 C           6.9829    6.8637   36.0138 C.3     1  UNL1        0.1426
     47 O           7.6091    7.1188   34.6748 O.3     1  UNL1       -0.3538
     48 C           7.5166    6.0828   33.5939 C.3     1  UNL1        0.1426
     49 C           6.7979    4.7918   33.8520 C.3     1  UNL1        0.0397
@<TRIPOS>BOND
     1    27    28    1
     2    28    29    1
     3    28    19    1
     4    19    20    1
     5    20    21    1
     6    21    22    1
     7    22    23   am
     8    23    24    2
     9    23    13    1
    10    13    14   ar
    11    14    15   ar
    12    15    16   ar
    13    16     7    1
    14     7     8   am
    15     8     9    2
    16     8    10   am
    17    10     1    1
    18     1     2   ar
    19     2     3   ar
    20     3     4   ar
    21     4    30    1
    22    30    31   ar
    23    31    32   ar
    24    32    44    1
    25    44    45    1
    26    45    46    1
    27    46    47    1
    28    47    48    1
    29    48    49    1
    30    32    33   ar
    31    33    34   ar
    32    34    36    1
    33    36    37    1
    34    37    38    1
    35    38    39    1
    36    39    40    1
    37    40    41    1
    38    41    42    1
    39    42    43    1
    40    34    35   ar
    41     4     5   ar
    42     5     6   ar
    43    16    17   ar
    44    17    18   ar
    45    22    25    1
    46    25    26    1
    47    26    19    1
    48    18    13   ar
    49     6     1   ar
    50    35    30   ar
    51    49    44    1
    52    40    36    1
    53    43    37    1
    54     7    11    1
    55    10    12    1
@<TRIPOS>MOLECULE
*****
 49 55 0 0 0
SMALL
GASTEIGER

@<TRIPOS>ATOM
      1 C           1.6171    1.8870   27.6341 C.ar    1  UNL1        0.0516
      2 C           2.6694    2.1034   26.5872 C.ar    1  UNL1        0.0148
      3 C           3.6346    1.0041   26.2556 C.ar    1  UNL1        0.0043
      4 C           3.5475   -0.3115   26.9709 C.ar    1  UNL1        0.0360
      5 C           2.4953   -0.5279   28.0177 C.ar    1  UNL1        0.0043
      6 C           1.5301    0.5714   28.3494 C.ar    1  UNL1        0.0148
      7 N          -1.4734    4.3645   27.3885 N.am    1  UNL1       -0.2681
      8 C          -0.5082    3.2652   27.0568 C.2     1  UNL1        0.3082
      9 O          -0.7032    2.4449   25.8162 O.2     1  UNL1       -0.2522
     10 N           0.6519    2.9863   27.9658 N.am    1  UNL1       -0.2681
     11 H          -1.3455    4.9029   28.2027 H       1  UNL1        0.1564
     12 H           0.7799    3.5247   28.7800 H       1  UNL1        0.1564
     13 C          -4.9539    5.2013   24.6615 C.ar    1  UNL1        0.0537
     14 C          -4.9714    3.9935   25.5509 C.ar    1  UNL1        0.0058
     15 C          -3.8112    3.7146   26.4598 C.ar    1  UNL1        0.0149
     16 C          -2.6336    4.6435   26.4794 C.ar    1  UNL1        0.0516
     17 C          -2.6161    5.8512   25.5901 C.ar    1  UNL1        0.0149
     18 C          -3.7762    6.1301   24.6811 C.ar    1  UNL1        0.0058
     19 N          -5.6528    4.9966   19.3024 N.3     1  UNL1       -0.2711
     20 C          -4.4927    4.7176   20.2114 C.3     1  UNL1        0.0939
     21 C          -4.6464    4.8788   21.6948 C.3     1  UNL1        0.1110
     22 N          -5.9603    5.3190   22.2692 N.am    1  UNL1       -0.2732
     23 C          -6.1140    5.4802   23.7525 C.2     1  UNL1        0.2491
     24 O          -7.4279    5.9204   24.3269 O.2     1  UNL1       -0.2699
     25 C          -7.1205    5.5980   21.3601 C.3     1  UNL1        0.1110
     26 C          -6.9667    5.4368   19.8768 C.3     1  UNL1        0.0939
     27 C          -4.6692    3.7136   17.2686 C.3     1  UNL1        0.0173
     28 C          -5.4991    4.8353   17.8191 C.3     1  UNL1        0.0577
     29 C          -6.1752    5.7959   16.8862 C.3     1  UNL1        0.0173
     30 C           4.5127   -1.4108   26.6393 C.ar    1  UNL1        0.1664
     31 N           4.6914   -1.8478   25.2154 N.ar    1  UNL1       -0.2118
     32 C           5.6566   -2.9471   24.8838 C.ar    1  UNL1        0.1434
     33 N           6.4431   -3.6094   25.9760 N.ar    1  UNL1       -0.1987
     34 C           6.2644   -3.1724   27.3997 C.ar    1  UNL1        0.2226
     35 N           5.2992   -2.0731   27.7314 N.ar    1  UNL1       -0.1945
     36 N           7.0509   -3.8347   28.4919 N.pl3   1  UNL1       -0.2764
     37 C           8.2992   -3.1882   29.0151 C.3     1  UNL1        0.1051
     38 C           7.2461   -2.9071   27.9846 C.3     1  UNL1        0.0242
     39 C           6.2588   -4.0361   28.0110 C.3     1  UNL1        0.0242
     40 C           6.5891   -5.1435   29.0608 C.3     1  UNL1        0.1051
     41 C           7.3756   -5.8059   30.1530 C.3     1  UNL1        0.1619
     42 O           8.6238   -5.1593   30.6762 O.3     1  UNL1       -0.3503
     43 C           9.0856   -3.8505   30.1073 C.3     1  UNL1        0.1619
     44 C           5.8353   -3.3840   23.4601 C.3     1  UNL1        0.0638
     45 C           7.1912   -3.7925   22.9655 C.3     1  UNL1        0.0397
     46 C           7.3700   -4.2295   21.5417 C.3     1  UNL1        0.1426
     47 O           6.1928   -4.2580   20.6125 O.3     1  UNL1       -0.3538
     48 C           4.8368   -3.8495   21.1071 C.3     1  UNL1        0.1426
     49 C           4.6581   -3.4125   22.5309 C.3     1  UNL1        0.0397
@<TRIPOS>BOND
     1    27    28    1
     2    28    29    1
     3    28    19    1
     4    19    20    1
     5    20    21    1
     6    21    22    1
     7    22    23   am
     8    23    24    2
     9    23    13    1
    10    13    14   ar
    11    14    15   ar
    12    15    16   ar
    13    16     7    1
    14     7     8   am
    15     8     9    2
    16     8    10   am
    17    10     1    1
    18     1     2   ar
    19     2     3   ar
    20     3     4   ar
    21     4    30    1
    22    30    31   ar
    23    31    32   ar
    24    32    44    1
    25    44    45    1
    26    45    46    1
    27    46    47    1
    28    47    48    1
    29    48    49    1
    30    32    33   ar
    31    33    34   ar
    32    34    36    1
    33    36    37    1
    34    37    38    1
    35    38    39    1
    36    39    40    1
    37    40    41    1
    38    41    42    1
    39    42    43    1
    40    34    35   ar
    41     4     5   ar
    42     5     6   ar
    43    16    17   ar
    44    17    18   ar
    45    22    25    1
    46    25    26    1
    47    26    19    1
    48    18    13   ar
    49     6     1   ar
    50    35    30   ar
    51    49    44    1
    52    40    36    1
    53    43    37    1
    54     7    11    1
    55    10    12    1
@<TRIPOS>MOLECULE
*****
 49 55 0 0 0
SMALL
GASTEIGER

@<TRIPOS>ATOM
      1 C           1.3917    0.0037   28.7507 C.ar    1  UNL1        0.0516
      2 C           1.9624    0.9551   27.7410 C.ar    1  UNL1        0.0148
      3 C           1.0537    1.8725   26.9777 C.ar    1  UNL1        0.0043
      4 C          -0.4256    1.8386   27.2240 C.ar    1  UNL1        0.0360
      5 C          -0.9961    0.8873   28.2337 C.ar    1  UNL1        0.0043
      6 C          -0.0875   -0.0301   28.9970 C.ar    1  UNL1        0.0148
      7 N           3.9086   -1.3393   31.5096 N.am    1  UNL1       -0.2681
      8 C           2.9999   -0.4218   30.7463 C.2     1  UNL1        0.3082
      9 O           2.7908    0.9876   31.2154 O.2     1  UNL1       -0.2522
     10 N           2.3004   -0.9137   29.5140 N.am    1  UNL1       -0.2681
     11 H           4.0458   -2.2643   31.2018 H       1  UNL1        0.1564
     12 H           2.4376   -1.8387   29.2062 H       1  UNL1        0.1564
     13 C           6.0072    0.1366   35.2065 C.ar    1  UNL1        0.0537
     14 C           6.4057    0.6600   33.8585 C.ar    1  UNL1        0.0058
     15 C           5.7061    0.1680   32.6262 C.ar    1  UNL1        0.0149
     16 C           4.6081   -0.8473   32.7420 C.ar    1  UNL1        0.0516
     17 C           4.2097   -1.3707   34.0900 C.ar    1  UNL1        0.0149
     18 C           4.9092   -0.8787   35.3223 C.ar    1  UNL1        0.0058
     19 N           4.8865    3.9329   38.8919 N.3     1  UNL1       -0.2711
     20 C           4.1869    3.4410   37.6597 C.3     1  UNL1        0.0939
     21 C           4.7937    2.3395   36.8419 C.3     1  UNL1        0.1110
     22 N           6.1000    1.7300   37.2566 N.am    1  UNL1       -0.2732
     23 C           6.7068    0.6286   36.4389 C.2     1  UNL1        0.2491
     24 O           8.0132    0.0190   36.8535 O.2     1  UNL1       -0.2699
     25 C           6.7996    2.2220   38.4889 C.3     1  UNL1        0.1110
     26 C           6.1928    3.3234   39.3066 C.3     1  UNL1        0.0939
     27 C           3.9055    4.7870   41.1410 C.3     1  UNL1        0.0173
     28 C           4.2797    5.0344   39.7096 C.3     1  UNL1        0.0577
     29 C           4.0471    6.3832   39.0959 C.3     1  UNL1        0.0173
     30 C          -1.3342    2.7561   26.4607 C.ar    1  UNL1        0.1664
     31 N          -2.2194    3.7179   27.1966 N.ar    1  UNL1       -0.2118
     32 C          -3.1281    4.6353   26.4333 C.ar    1  UNL1        0.1434
     33 N          -3.1515    4.5910   24.9341 N.ar    1  UNL1       -0.1987
     34 C          -2.2663    3.6292   24.1983 C.ar    1  UNL1        0.2226
     35 N          -1.3577    2.7118   24.9616 N.ar    1  UNL1       -0.1945
     36 N          -2.2897    3.5849   22.6991 N.pl3   1  UNL1       -0.2764
     37 C          -3.6003    3.5669   21.9697 C.3     1  UNL1        0.1051
     38 C          -3.1146    3.6076   23.3883 C.3     1  UNL1        0.0242
     39 C          -1.6147    3.6028   23.3650 C.3     1  UNL1        0.0242
     40 C          -1.0025    3.5586   21.9293 C.3     1  UNL1        0.1051
     41 C          -1.0259    3.5143   20.4302 C.3     1  UNL1        0.1619
     42 O          -2.3365    3.4963   19.7008 O.3     1  UNL1       -0.3503
     43 C          -3.6237    3.5226   20.4705 C.3     1  UNL1        0.1619
     44 C          -4.0132    5.5970   27.1691 C.3     1  UNL1        0.0638
     45 C          -5.5043    5.4873   27.0476 C.3     1  UNL1        0.0397
     46 C          -6.3895    6.4491   27.7834 C.3     1  UNL1        0.1426
     47 O          -5.7837    7.5205   28.6408 O.3     1  UNL1       -0.3538
     48 C          -4.2926    7.6302   28.7622 C.3     1  UNL1        0.1426
     49 C          -3.4074    6.6685   28.0264 C.3     1  UNL1        0.0397
@<TRIPOS>BOND
     1    27    28    1
     2    28    29    1
     3    28    19    1
     4    19    20    1
     5    20    21    1
     6    21    22    1
     7    22    23   am
     8    23    24    2
     9    23    13    1
    10    13    14   ar
    11    14    15   ar
    12    15    16   ar
    13    16     7    1
    14     7     8   am
    15     8     9    2
    16     8    10   am
    17    10     1    1
    18     1     2   ar
    19     2     3   ar
    20     3     4   ar
    21     4    30    1
    22    30    31   ar
    23    31    32   ar
    24    32    44    1
    25    44    45    1
    26    45    46    1
    27    46    47    1
    28    47    48    1
    29    48    49    1
    30    32    33   ar
    31    33    34   ar
    32    34    36    1
    33    36    37    1
    34    37    38    1
    35    38    39    1
    36    39    40    1
    37    40    41    1
    38    41    42    1
    39    42    43    1
    40    34    35   ar
    41     4     5   ar
    42     5     6   ar
    43    16    17   ar
    44    17    18   ar
    45    22    25    1
    46    25    26    1
    47    26    19    1
    48    18    13   ar
    49     6     1   ar
    50    35    30   ar
    51    49    44    1
    52    40    36    1
    53    43    37    1
    54     7    11    1
    55    10    12    1
@<TRIPOS>MOLECULE
*****
 49 55 0 0 0
SMALL
GASTEIGER

@<TRIPOS>ATOM
      1 C           1.2279    0.7464   26.8749 C.ar    1  UNL1        0.0516
      2 C           1.3017    1.3330   25.4962 C.ar    1  UNL1        0.0148
      3 C           0.1889    2.2025   24.9906 C.ar    1  UNL1        0.0043
      4 C          -0.9976    2.4856   25.8637 C.ar    1  UNL1        0.0360
      5 C          -1.0714    1.8990   27.2422 C.ar    1  UNL1        0.0043
      6 C           0.0414    1.0294   27.7478 C.ar    1  UNL1        0.0148
      7 N           4.0226   -0.7624   29.2546 N.am    1  UNL1       -0.2681
      8 C           2.9098    0.1072   28.7490 C.2     1  UNL1        0.3082
      9 O           2.3663    1.2072   29.6120 O.2     1  UNL1       -0.2522
     10 N           2.3406   -0.1232   27.3805 N.am    1  UNL1       -0.2681
     11 H           4.3793   -1.4844   28.6882 H       1  UNL1        0.1564
     12 H           2.6973   -0.8452   26.8141 H       1  UNL1        0.1564
     13 C           5.7302   -0.0711   33.3602 C.ar    1  UNL1        0.0537
     14 C           6.0988    0.8445   32.2307 C.ar    1  UNL1        0.0058
     15 C           5.5295    0.6141   30.8622 C.ar    1  UNL1        0.0149
     16 C           4.5918   -0.5320   30.6232 C.ar    1  UNL1        0.0516
     17 C           4.2233   -1.4476   31.7527 C.ar    1  UNL1        0.0149
     18 C           4.7925   -1.2172   33.1211 C.ar    1  UNL1        0.0058
     19 N           3.8435    2.2546   37.8637 N.3     1  UNL1       -0.2711
     20 C           3.2742    2.0242   36.4952 C.3     1  UNL1        0.0939
     21 C           4.0929    1.3257   35.4502 C.3     1  UNL1        0.1110
     22 N           5.4808    0.8577   35.7737 N.am    1  UNL1       -0.2732
     23 C           6.2995    0.1593   34.7288 C.2     1  UNL1        0.2491
     24 O           7.6874   -0.3087   35.0523 O.2     1  UNL1       -0.2699
     25 C           6.0500    1.0882   37.1423 C.3     1  UNL1        0.1110
     26 C           5.2314    1.7866   38.1873 C.3     1  UNL1        0.0939
     27 C           1.6125    2.5195   39.1685 C.3     1  UNL1        0.0173
     28 C           3.0248    2.9530   38.9087 C.3     1  UNL1        0.0577
     29 C           3.6184    4.0849   39.6938 C.3     1  UNL1        0.0173
     30 C          -2.1103    3.3551   25.3580 C.ar    1  UNL1        0.1664
     31 N          -2.9070    4.1878   26.3183 N.ar    1  UNL1       -0.2118
     32 C          -4.0197    5.0574   25.8127 C.ar    1  UNL1        0.1434
     33 N          -4.3358    5.0943   24.3468 N.ar    1  UNL1       -0.1987
     34 C          -3.5392    4.2617   23.3866 C.ar    1  UNL1        0.2226
     35 N          -2.4265    3.3921   23.8922 N.ar    1  UNL1       -0.1945
     36 N          -3.8553    4.2986   21.9207 N.pl3   1  UNL1       -0.2764
     37 C          -4.8807    3.3639   21.3508 C.3     1  UNL1        0.1051
     38 C          -4.2707    3.6689   22.6868 C.3     1  UNL1        0.0242
     39 C          -3.2690    4.7695   22.4985 C.3     1  UNL1        0.0242
     40 C          -3.1459    5.2702   21.0248 C.3     1  UNL1        0.1051
     41 C          -3.4619    5.3071   19.5589 C.3     1  UNL1        0.1619
     42 O          -4.4874    4.3724   18.9891 O.3     1  UNL1       -0.3503
     43 C          -5.1968    3.4008   19.8850 C.3     1  UNL1        0.1619
     44 C          -4.8163    5.8901   26.7729 C.3     1  UNL1        0.0638
     45 C          -4.1150    6.8018   27.7356 C.3     1  UNL1        0.0397
     46 C          -4.9117    7.6346   28.6959 C.3     1  UNL1        0.1426
     47 O          -6.4096    7.5554   28.6934 O.3     1  UNL1       -0.3538
     48 C          -7.1109    6.6436   27.7307 C.3     1  UNL1        0.1426
     49 C          -6.3142    5.8109   26.7705 C.3     1  UNL1        0.0397
@<TRIPOS>BOND
     1    27    28    1
     2    28    29    1
     3    28    19    1
     4    19    20    1
     5    20    21    1
     6    21    22    1
     7    22    23   am
     8    23    24    2
     9    23    13    1
    10    13    14   ar
    11    14    15   ar
    12    15    16   ar
    13    16     7    1
    14     7     8   am
    15     8     9    2
    16     8    10   am
    17    10     1    1
    18     1     2   ar
    19     2     3   ar
    20     3     4   ar
    21     4    30    1
    22    30    31   ar
    23    31    32   ar
    24    32    44    1
    25    44    45    1
    26    45    46    1
    27    46    47    1
    28    47    48    1
    29    48    49    1
    30    32    33   ar
    31    33    34   ar
    32    34    36    1
    33    36    37    1
    34    37    38    1
    35    38    39    1
    36    39    40    1
    37    40    41    1
    38    41    42    1
    39    42    43    1
    40    34    35   ar
    41     4     5   ar
    42     5     6   ar
    43    16    17   ar
    44    17    18   ar
    45    22    25    1
    46    25    26    1
    47    26    19    1
    48    18    13   ar
    49     6     1   ar
    50    35    30   ar
    51    49    44    1
    52    40    36    1
    53    43    37    1
    54     7    11    1
    55    10    12    1
