@<TRIPOS>MOLECULE
*****
 26 28 0 0 0
SMALL
GASTEIGER

@<TRIPOS>ATOM
      1 C         -10.4860  -17.3584   21.5462 C.3     1  UNL1        0.2094
      2 C          -9.2960  -17.8265   22.3303 C.2     1  UNL1        0.0896
      3 N          -8.2832  -18.7285   21.6895 N.2     1  UNL1       -0.2256
      4 C          -8.4603  -19.1624   20.2646 C.2     1  UNL1        0.1817
      5 N          -9.6503  -18.6942   19.4805 N.am    1  UNL1       -0.1534
      6 C         -10.6631  -17.7923   20.1213 C.2     1  UNL1        0.2669
      7 O         -11.8531  -17.3241   19.3372 O.2     1  UNL1       -0.2714
      8 C          -9.1188  -17.3927   23.7553 C.ar    1  UNL1        0.0446
      9 C          -9.5771  -18.1450   24.9694 C.ar    1  UNL1        0.0082
     10 C          -9.1938  -17.3477   26.1808 C.ar    1  UNL1        0.0075
     11 C          -8.4986  -16.1026   25.7153 C.ar    1  UNL1        0.0355
     12 S          -8.4523  -16.1305   24.2163 S.2     1  UNL1       -0.0852
     13 N         -12.5116  -15.5544   22.8278 N.1     1  UNL1       -0.1950
     14 C         -11.4988  -16.4564   22.1870 C.1     1  UNL1        0.0877
     15 S          -7.4475  -20.0644   19.6238 S.3     1  UNL1       -0.0734
     16 C          -6.3752  -20.7002   20.4580 C.3     1  UNL1        0.0911
     17 C          -5.1846  -19.8961   20.8891 C.ar    1  UNL1       -0.0112
     18 C          -5.0153  -19.5209   22.3315 C.ar    1  UNL1       -0.0034
     19 C          -3.8247  -18.7168   22.7626 C.ar    1  UNL1       -0.0006
     20 C          -2.8033  -18.2879   21.7512 C.ar    1  UNL1       -0.0039
     21 C          -2.9726  -18.6631   20.3088 C.ar    1  UNL1       -0.0169
     22 C          -4.1632  -19.4672   19.8777 C.ar    1  UNL1       -0.0073
     23 C          -1.9513  -18.2342   19.2975 C.3     1  UNL1        0.0679
     24 C          -0.5521  -17.9146   19.7336 C.2     1  UNL1        0.0547
     25 O           0.5038  -18.9796   19.7063 O.co2   1  UNL1       -0.5488
     26 O          -0.2089  -16.5298   20.1972 O.co2   1  UNL1       -0.5488
@<TRIPOS>UNITY_ATOM_ATTR
25 1
charge -1
@<TRIPOS>BOND
     1    13    14    3
     2    14     1    1
     3     1     2    1
     4     2     8    1
     5     8     9   ar
     6     9    10   ar
     7    10    11   ar
     8    11    12   ar
     9     2     3    2
    10     3     4    1
    11     4    15    1
    12    15    16    1
    13    16    17    1
    14    17    18   ar
    15    18    19   ar
    16    19    20   ar
    17    20    21   ar
    18    21    23    1
    19    23    24    1
    20    24    25   ar
    21    24    26   ar
    22    21    22   ar
    23     4     5    2
    24     5     6    1
    25     6     7    2
    26     6     1    1
    27    12     8   ar
    28    22    17   ar
@<TRIPOS>MOLECULE
*****
 26 28 0 0 0
SMALL
GASTEIGER

@<TRIPOS>ATOM
      1 C          -9.4334  -16.1453   21.7177 C.3     1  UNL1        0.2094
      2 C          -9.0499  -17.0557   22.8464 C.2     1  UNL1        0.0896
      3 N          -7.7956  -16.7955   23.6269 N.2     1  UNL1       -0.2256
      4 C          -6.9249  -15.6248   23.2787 C.2     1  UNL1        0.1817
      5 N          -7.3084  -14.7144   22.1500 N.am    1  UNL1       -0.1534
      6 C          -8.5626  -14.9746   21.3695 C.2     1  UNL1        0.2669
      7 O          -8.9461  -14.0641   20.2408 O.2     1  UNL1       -0.2714
      8 C          -9.9207  -18.2264   23.1947 C.ar    1  UNL1        0.0446
      9 C          -9.9437  -19.5493   22.4879 C.ar    1  UNL1        0.0082
     10 C         -10.9585  -20.4203   23.1673 C.ar    1  UNL1        0.0075
     11 C         -11.5627  -19.6356   24.2940 C.ar    1  UNL1        0.0355
     12 S         -10.9213  -18.2798   24.3109 S.2     1  UNL1       -0.0852
     13 N         -11.9419  -16.6657   20.1568 N.1     1  UNL1       -0.1950
     14 C         -10.6876  -16.4055   20.9373 C.1     1  UNL1        0.0877
     15 S          -5.6706  -15.3646   24.0591 S.3     1  UNL1       -0.0734
     16 C          -4.7113  -16.4848   24.3324 C.3     1  UNL1        0.0911
     17 C          -4.1703  -17.3027   23.1973 C.ar    1  UNL1       -0.0112
     18 C          -4.8155  -18.6087   22.8396 C.ar    1  UNL1       -0.0034
     19 C          -4.2745  -19.4266   21.7045 C.ar    1  UNL1       -0.0006
     20 C          -3.0882  -18.9383   20.9271 C.ar    1  UNL1       -0.0039
     21 C          -2.4430  -17.6322   21.2847 C.ar    1  UNL1       -0.0169
     22 C          -2.9840  -16.8144   22.4198 C.ar    1  UNL1       -0.0073
     23 C          -1.2568  -17.1440   20.5073 C.3     1  UNL1        0.0679
     24 C          -0.6414  -18.0149   19.4523 C.2     1  UNL1        0.0547
     25 O           0.5407  -18.8757   19.7861 O.co2   1  UNL1       -0.5488
     26 O          -1.2083  -18.0249   18.0635 O.co2   1  UNL1       -0.5488
@<TRIPOS>UNITY_ATOM_ATTR
25 1
charge -1
@<TRIPOS>BOND
     1    13    14    3
     2    14     1    1
     3     1     2    1
     4     2     8    1
     5     8     9   ar
     6     9    10   ar
     7    10    11   ar
     8    11    12   ar
     9     2     3    2
    10     3     4    1
    11     4    15    1
    12    15    16    1
    13    16    17    1
    14    17    18   ar
    15    18    19   ar
    16    19    20   ar
    17    20    21   ar
    18    21    23    1
    19    23    24    1
    20    24    25   ar
    21    24    26   ar
    22    21    22   ar
    23     4     5    2
    24     5     6    1
    25     6     7    2
    26     6     1    1
    27    12     8   ar
    28    22    17   ar
@<TRIPOS>MOLECULE
*****
 26 28 0 0 0
SMALL
GASTEIGER

@<TRIPOS>ATOM
      1 C          -5.9057  -18.4419   22.1251 C.3     1  UNL1        0.2094
      2 C          -7.2435  -17.7779   22.2644 C.2     1  UNL1        0.0896
      3 N          -8.3615  -18.1405   21.3324 N.2     1  UNL1       -0.2256
      4 C          -8.1417  -19.1671   20.2611 C.2     1  UNL1        0.1817
      5 N          -6.8040  -19.8311   20.1218 N.am    1  UNL1       -0.1534
      6 C          -5.6860  -19.4685   21.0538 C.2     1  UNL1        0.2669
      7 O          -4.3482  -20.1326   20.9144 O.2     1  UNL1       -0.2714
      8 C          -7.4633  -16.7513   23.3358 C.ar    1  UNL1        0.0446
      9 C          -8.5862  -16.7413   24.3303 C.ar    1  UNL1        0.0082
     10 C          -8.4157  -15.5382   25.2099 C.ar    1  UNL1        0.0075
     11 C          -7.1874  -14.8047   24.7589 C.ar    1  UNL1        0.0355
     12 S          -6.5988  -15.5544   23.6007 S.2     1  UNL1       -0.0852
     13 N          -3.6697  -17.7168   23.9891 N.1     1  UNL1       -0.1950
     14 C          -4.7877  -18.0794   23.0571 C.1     1  UNL1        0.0877
     15 S          -9.2597  -19.5297   19.3291 S.3     1  UNL1       -0.0734
     16 C         -10.6335  -19.7913   19.8717 C.3     1  UNL1        0.0911
     17 C         -11.2803  -18.7952   20.7878 C.ar    1  UNL1       -0.0112
     18 C         -11.5814  -17.4100   20.2971 C.ar    1  UNL1       -0.0034
     19 C         -12.2282  -16.4138   21.2132 C.ar    1  UNL1       -0.0006
     20 C         -12.5740  -16.8029   22.6201 C.ar    1  UNL1       -0.0039
     21 C         -12.2729  -18.1880   23.1107 C.ar    1  UNL1       -0.0169
     22 C         -11.6261  -19.1841   22.1946 C.ar    1  UNL1       -0.0073
     23 C         -12.6187  -18.5769   24.5175 C.3     1  UNL1        0.0679
     24 C         -14.0507  -18.5808   24.9642 C.2     1  UNL1        0.0547
     25 O         -15.1526  -18.4860   23.9509 O.co2   1  UNL1       -0.5488
     26 O         -14.3806  -18.6796   26.4241 O.co2   1  UNL1       -0.5488
@<TRIPOS>UNITY_ATOM_ATTR
25 1
charge -1
@<TRIPOS>BOND
     1    13    14    3
     2    14     1    1
     3     1     2    1
     4     2     8    1
     5     8     9   ar
     6     9    10   ar
     7    10    11   ar
     8    11    12   ar
     9     2     3    2
    10     3     4    1
    11     4    15    1
    12    15    16    1
    13    16    17    1
    14    17    18   ar
    15    18    19   ar
    16    19    20   ar
    17    20    21   ar
    18    21    23    1
    19    23    24    1
    20    24    25   ar
    21    24    26   ar
    22    21    22   ar
    23     4     5    2
    24     5     6    1
    25     6     7    2
    26     6     1    1
    27    12     8   ar
    28    22    17   ar
@<TRIPOS>MOLECULE
*****
 26 28 0 0 0
SMALL
GASTEIGER

@<TRIPOS>ATOM
      1 C          -5.4902  -18.6087   22.0324 C.3     1  UNL1        0.2094
      2 C          -6.8019  -17.8828   22.0829 C.2     1  UNL1        0.0896
      3 N          -7.8757  -18.2041   21.0860 N.2     1  UNL1       -0.2256
      4 C          -7.6379  -19.2513   20.0387 C.2     1  UNL1        0.1817
      5 N          -6.3262  -19.9771   19.9883 N.am    1  UNL1       -0.1534
      6 C          -5.2524  -19.6558   20.9851 C.2     1  UNL1        0.2669
      7 O          -3.9406  -20.3818   20.9346 O.2     1  UNL1       -0.2714
      8 C          -7.0398  -16.8356   23.1302 C.ar    1  UNL1        0.0446
      9 C          -5.9931  -15.9663   23.7616 C.ar    1  UNL1        0.0082
     10 C          -6.6725  -15.0673   24.7516 C.ar    1  UNL1        0.0075
     11 C          -8.1393  -15.3810   24.7320 C.ar    1  UNL1        0.0355
     12 S          -8.3662  -16.4739   23.7300 S.2     1  UNL1       -0.0852
     13 N          -3.3426  -17.9661   24.0261 N.1     1  UNL1       -0.1950
     14 C          -4.4164  -18.2874   23.0292 C.1     1  UNL1        0.0877
     15 S          -8.7117  -19.5726   19.0419 S.3     1  UNL1       -0.0734
     16 C         -10.0760  -19.9794   19.5141 C.3     1  UNL1        0.0911
     17 C         -10.7936  -19.1502   20.5376 C.ar    1  UNL1       -0.0112
     18 C         -11.4994  -17.8931   20.1235 C.ar    1  UNL1       -0.0034
     19 C         -12.2169  -17.0639   21.1470 C.ar    1  UNL1       -0.0006
     20 C         -12.2287  -17.4919   22.5846 C.ar    1  UNL1       -0.0039
     21 C         -11.5230  -18.7490   22.9987 C.ar    1  UNL1       -0.0169
     22 C         -10.8054  -19.5782   21.9752 C.ar    1  UNL1       -0.0073
     23 C         -11.5348  -19.1770   24.4363 C.3     1  UNL1        0.0679
     24 C         -10.2493  -19.5280   25.1249 C.2     1  UNL1        0.0547
     25 O          -9.6346  -20.8810   24.9214 O.co2   1  UNL1       -0.5488
     26 O          -9.5785  -18.5259   26.0171 O.co2   1  UNL1       -0.5488
@<TRIPOS>UNITY_ATOM_ATTR
25 1
charge -1
@<TRIPOS>BOND
     1    13    14    3
     2    14     1    1
     3     1     2    1
     4     2     8    1
     5     8     9   ar
     6     9    10   ar
     7    10    11   ar
     8    11    12   ar
     9     2     3    2
    10     3     4    1
    11     4    15    1
    12    15    16    1
    13    16    17    1
    14    17    18   ar
    15    18    19   ar
    16    19    20   ar
    17    20    21   ar
    18    21    23    1
    19    23    24    1
    20    24    25   ar
    21    24    26   ar
    22    21    22   ar
    23     4     5    2
    24     5     6    1
    25     6     7    2
    26     6     1    1
    27    12     8   ar
    28    22    17   ar
@<TRIPOS>MOLECULE
*****
 26 28 0 0 0
SMALL
GASTEIGER

@<TRIPOS>ATOM
      1 C          -8.8015  -16.9786   23.1633 C.3     1  UNL1        0.2094
      2 C          -9.8002  -17.9677   22.6396 C.2     1  UNL1        0.0896
      3 N          -9.4347  -18.8701   21.4985 N.2     1  UNL1       -0.2256
      4 C          -8.0703  -18.7835   20.8812 C.2     1  UNL1        0.1817
      5 N          -7.0716  -17.7945   21.4049 N.am    1  UNL1       -0.1534
      6 C          -7.4372  -16.8920   22.5459 C.2     1  UNL1        0.2669
      7 O          -6.4384  -15.9030   23.0696 O.2     1  UNL1       -0.2714
      8 C         -11.1646  -18.0543   23.2569 C.ar    1  UNL1        0.0446
      9 C         -11.5036  -18.7226   24.5563 C.ar    1  UNL1        0.0082
     10 C         -12.9780  -18.5692   24.7857 C.ar    1  UNL1        0.0075
     11 C         -13.5502  -17.8061   23.6280 C.ar    1  UNL1        0.0355
     12 S         -12.4295  -17.4878   22.6832 S.2     1  UNL1       -0.0852
     13 N          -9.5327  -15.1737   25.4453 N.1     1  UNL1       -0.1950
     14 C          -9.1671  -16.0762   24.3043 C.1     1  UNL1        0.0877
     15 S          -7.7048  -19.6860   19.7402 S.3     1  UNL1       -0.0734
     16 C          -6.5096  -20.5858   19.8489 C.3     1  UNL1        0.0911
     17 C          -5.2249  -20.0610   20.4180 C.ar    1  UNL1       -0.0112
     18 C          -4.9375  -20.2095   21.8828 C.ar    1  UNL1       -0.0034
     19 C          -3.6527  -19.6846   22.4519 C.ar    1  UNL1       -0.0006
     20 C          -2.6554  -19.0112   21.5563 C.ar    1  UNL1       -0.0039
     21 C          -2.9428  -18.8628   20.0917 C.ar    1  UNL1       -0.0169
     22 C          -4.2276  -19.3876   19.5225 C.ar    1  UNL1       -0.0073
     23 C          -1.9455  -18.1894   19.1962 C.3     1  UNL1        0.0679
     24 C          -0.5650  -17.8915   19.7014 C.2     1  UNL1        0.0547
     25 O          -0.2267  -16.5151   20.1922 O.co2   1  UNL1       -0.5488
     26 O           0.4774  -18.9702   19.7159 O.co2   1  UNL1       -0.5488
@<TRIPOS>UNITY_ATOM_ATTR
25 1
charge -1
@<TRIPOS>BOND
     1    13    14    3
     2    14     1    1
     3     1     2    1
     4     2     8    1
     5     8     9   ar
     6     9    10   ar
     7    10    11   ar
     8    11    12   ar
     9     2     3    2
    10     3     4    1
    11     4    15    1
    12    15    16    1
    13    16    17    1
    14    17    18   ar
    15    18    19   ar
    16    19    20   ar
    17    20    21   ar
    18    21    23    1
    19    23    24    1
    20    24    25   ar
    21    24    26   ar
    22    21    22   ar
    23     4     5    2
    24     5     6    1
    25     6     7    2
    26     6     1    1
    27    12     8   ar
    28    22    17   ar
@<TRIPOS>MOLECULE
*****
 26 28 0 0 0
SMALL
GASTEIGER

@<TRIPOS>ATOM
      1 C          -9.0573  -19.3941   19.6632 C.3     1  UNL1        0.2094
      2 C          -7.9167  -18.9450   20.5277 C.2     1  UNL1        0.0896
      3 N          -8.1393  -17.8986   21.5791 N.2     1  UNL1       -0.2256
      4 C          -9.5025  -17.3013   21.7661 C.2     1  UNL1        0.1817
      5 N         -10.6430  -17.7505   20.9016 N.am    1  UNL1       -0.1534
      6 C         -10.4204  -18.7969   19.8502 C.2     1  UNL1        0.2669
      7 O         -11.5611  -19.2460   18.9857 O.2     1  UNL1       -0.2714
      8 C          -6.5535  -19.5423   20.3408 C.ar    1  UNL1        0.0446
      9 C          -6.2027  -20.9953   20.4664 C.ar    1  UNL1        0.0082
     10 C          -4.7342  -21.1425   20.1987 C.ar    1  UNL1        0.0075
     11 C          -4.1773  -19.7804   19.9076 C.ar    1  UNL1        0.0355
     12 S          -5.3017  -18.7915   19.9954 S.2     1  UNL1       -0.0852
     13 N          -8.6121  -21.4869   17.5604 N.1     1  UNL1       -0.1950
     14 C          -8.8347  -20.4405   18.6118 C.1     1  UNL1        0.0877
     15 S          -9.7251  -16.2549   22.8175 S.3     1  UNL1       -0.0734
     16 C          -9.4301  -16.5622   24.2557 C.3     1  UNL1        0.0911
     17 C          -8.1156  -16.1581   24.8547 C.ar    1  UNL1       -0.0112
     18 C          -8.0126  -15.8925   26.3275 C.ar    1  UNL1       -0.0034
     19 C          -6.6981  -15.4884   26.9265 C.ar    1  UNL1       -0.0006
     20 C          -5.4867  -15.3498   26.0527 C.ar    1  UNL1       -0.0039
     21 C          -5.5898  -15.6154   24.5801 C.ar    1  UNL1       -0.0169
     22 C          -6.9043  -16.0195   23.9811 C.ar    1  UNL1       -0.0073
     23 C          -4.3784  -15.4768   23.7064 C.3     1  UNL1        0.0679
     24 C          -3.7559  -16.6938   23.0888 C.2     1  UNL1        0.0547
     25 O          -2.9231  -16.5627   21.8482 O.co2   1  UNL1       -0.5488
     26 O          -3.9663  -18.0420   23.7119 O.co2   1  UNL1       -0.5488
@<TRIPOS>UNITY_ATOM_ATTR
25 1
charge -1
@<TRIPOS>BOND
     1    13    14    3
     2    14     1    1
     3     1     2    1
     4     2     8    1
     5     8     9   ar
     6     9    10   ar
     7    10    11   ar
     8    11    12   ar
     9     2     3    2
    10     3     4    1
    11     4    15    1
    12    15    16    1
    13    16    17    1
    14    17    18   ar
    15    18    19   ar
    16    19    20   ar
    17    20    21   ar
    18    21    23    1
    19    23    24    1
    20    24    25   ar
    21    24    26   ar
    22    21    22   ar
    23     4     5    2
    24     5     6    1
    25     6     7    2
    26     6     1    1
    27    12     8   ar
    28    22    17   ar
@<TRIPOS>MOLECULE
*****
 26 28 0 0 0
SMALL
GASTEIGER

@<TRIPOS>ATOM
      1 C         -10.9650   -3.3971   17.7350 C.3     1  UNL1        0.2094
      2 C         -11.5224   -4.5889   18.4554 C.2     1  UNL1        0.0896
      3 N         -12.7665   -4.4513   19.2820 N.2     1  UNL1       -0.2256
      4 C         -13.4532   -3.1220   19.3882 C.2     1  UNL1        0.1817
      5 N         -12.8958   -1.9303   18.6678 N.am    1  UNL1       -0.1534
      6 C         -11.6517   -2.0678   17.8412 C.2     1  UNL1        0.2669
      7 O         -11.0943   -0.8760   17.1208 O.2     1  UNL1       -0.2714
      8 C         -10.8357   -5.9183   18.3492 C.ar    1  UNL1        0.0446
      9 C          -9.6589   -6.3702   19.1622 C.ar    1  UNL1        0.0082
     10 C          -9.3011   -7.7603   18.7269 C.ar    1  UNL1        0.0075
     11 C         -10.2569   -8.1676   17.6448 C.ar    1  UNL1        0.0355
     12 S         -11.2053   -7.0291   17.4115 S.2     1  UNL1       -0.0852
     13 N          -8.4768   -3.6723   16.0818 N.1     1  UNL1       -0.1950
     14 C          -9.7209   -3.5347   16.9084 C.1     1  UNL1        0.0877
     15 S         -14.6973   -2.9844   20.2148 S.3     1  UNL1       -0.0734
     16 C         -16.0415   -2.9641   19.5493 C.3     1  UNL1        0.0911
     17 C         -16.9084   -4.1880   19.5724 C.ar    1  UNL1       -0.0112
     18 C         -18.4020   -4.0495   19.5551 C.ar    1  UNL1       -0.0034
     19 C         -19.2689   -5.2734   19.5782 C.ar    1  UNL1       -0.0006
     20 C         -18.6423   -6.6357   19.6187 C.ar    1  UNL1       -0.0039
     21 C         -17.1488   -6.7741   19.6360 C.ar    1  UNL1       -0.0169
     22 C         -16.2819   -5.5502   19.6129 C.ar    1  UNL1       -0.0073
     23 C         -16.5223   -8.1363   19.6764 C.3     1  UNL1        0.0679
     24 C         -15.9697   -8.7453   18.4219 C.2     1  UNL1        0.0547
     25 O         -14.8783   -9.7709   18.5037 O.co2   1  UNL1       -0.5488
     26 O         -16.5086   -8.3285   17.0855 O.co2   1  UNL1       -0.5488
@<TRIPOS>UNITY_ATOM_ATTR
25 1
charge -1
@<TRIPOS>BOND
     1    13    14    3
     2    14     1    1
     3     1     2    1
     4     2     8    1
     5     8     9   ar
     6     9    10   ar
     7    10    11   ar
     8    11    12   ar
     9     2     3    2
    10     3     4    1
    11     4    15    1
    12    15    16    1
    13    16    17    1
    14    17    18   ar
    15    18    19   ar
    16    19    20   ar
    17    20    21   ar
    18    21    23    1
    19    23    24    1
    20    24    25   ar
    21    24    26   ar
    22    21    22   ar
    23     4     5    2
    24     5     6    1
    25     6     7    2
    26     6     1    1
    27    12     8   ar
    28    22    17   ar
@<TRIPOS>MOLECULE
*****
 26 28 0 0 0
SMALL
GASTEIGER

@<TRIPOS>ATOM
      1 C          -9.0363  -16.7747   23.0017 C.3     1  UNL1        0.2094
      2 C          -9.9204  -17.9248   22.6206 C.2     1  UNL1        0.0896
      3 N          -9.4720  -18.9007   21.5734 N.2     1  UNL1       -0.2256
      4 C          -8.1393  -18.7264   20.9074 C.2     1  UNL1        0.1817
      5 N          -7.2552  -17.5763   21.2885 N.am    1  UNL1       -0.1534
      6 C          -7.7036  -16.6004   22.3357 C.2     1  UNL1        0.2669
      7 O          -6.8194  -15.4502   22.7168 O.2     1  UNL1       -0.2714
      8 C         -11.2532  -18.0992   23.2866 C.ar    1  UNL1        0.0446
      9 C         -12.5569  -17.5283   22.8129 C.ar    1  UNL1        0.0082
     10 C         -13.6256  -17.9512   23.7768 C.ar    1  UNL1        0.0075
     11 C         -12.9823  -18.7835   24.8461 C.ar    1  UNL1        0.0355
     12 S         -11.5161  -18.8749   24.5432 S.2     1  UNL1       -0.0852
     13 N          -9.9332  -14.8229   25.0960 N.1     1  UNL1       -0.1950
     14 C          -9.4847  -15.7988   24.0489 C.1     1  UNL1        0.0877
     15 S          -7.6909  -19.7023   19.8602 S.3     1  UNL1       -0.0734
     16 C          -6.6353  -20.7176   20.1841 C.3     1  UNL1        0.0911
     17 C          -5.2745  -20.2692   20.6282 C.ar    1  UNL1       -0.0112
     18 C          -4.0697  -20.5916   19.7948 C.ar    1  UNL1       -0.0034
     19 C          -2.7089  -20.1432   20.2389 C.ar    1  UNL1       -0.0006
     20 C          -2.5530  -19.3725   21.5164 C.ar    1  UNL1       -0.0039
     21 C          -3.7578  -19.0503   22.3497 C.ar    1  UNL1       -0.0169
     22 C          -5.1186  -19.4986   21.9056 C.ar    1  UNL1       -0.0073
     23 C          -3.6019  -18.2796   23.6270 C.3     1  UNL1        0.0679
     24 C          -3.9792  -16.8288   23.6785 C.2     1  UNL1        0.0547
     25 O          -3.5687  -15.9072   22.5686 O.co2   1  UNL1       -0.5488
     26 O          -4.7672  -16.2995   24.8401 O.co2   1  UNL1       -0.5488
@<TRIPOS>UNITY_ATOM_ATTR
25 1
charge -1
@<TRIPOS>BOND
     1    13    14    3
     2    14     1    1
     3     1     2    1
     4     2     8    1
     5     8     9   ar
     6     9    10   ar
     7    10    11   ar
     8    11    12   ar
     9     2     3    2
    10     3     4    1
    11     4    15    1
    12    15    16    1
    13    16    17    1
    14    17    18   ar
    15    18    19   ar
    16    19    20   ar
    17    20    21   ar
    18    21    23    1
    19    23    24    1
    20    24    25   ar
    21    24    26   ar
    22    21    22   ar
    23     4     5    2
    24     5     6    1
    25     6     7    2
    26     6     1    1
    27    12     8   ar
    28    22    17   ar
@<TRIPOS>MOLECULE
*****
 26 28 0 0 0
SMALL
GASTEIGER

@<TRIPOS>ATOM
      1 C           8.0634   -6.3374   25.5667 C.3     1  UNL1        0.2094
      2 C           7.5794   -5.2004   26.4170 C.2     1  UNL1        0.0896
      3 N           6.9618   -3.9936   25.7749 N.2     1  UNL1       -0.2256
      4 C           6.8282   -3.9238   24.2825 C.2     1  UNL1        0.1817
      5 N           7.3121   -5.0608   23.4323 N.am    1  UNL1       -0.1534
      6 C           7.9297   -6.2676   24.0743 C.2     1  UNL1        0.2669
      7 O           8.4137   -7.4046   23.2240 O.2     1  UNL1       -0.2714
      8 C           7.7131   -5.2701   27.9095 C.ar    1  UNL1        0.0446
      9 C           8.9968   -5.2141   28.6833 C.ar    1  UNL1        0.0082
     10 C           8.6637   -5.3175   30.1421 C.ar    1  UNL1        0.0075
     11 C           7.1739   -5.4374   30.2699 C.ar    1  UNL1        0.0355
     12 S           6.5864   -5.4081   28.8901 S.2     1  UNL1       -0.0852
     13 N           9.2986   -8.7509   26.8509 N.1     1  UNL1       -0.1950
     14 C           8.6810   -7.5441   26.2088 C.1     1  UNL1        0.0877
     15 S           6.2106   -2.7171   23.6404 S.3     1  UNL1       -0.0734
     16 C           4.7624   -2.7337   23.2501 C.3     1  UNL1        0.0911
     17 C           4.3751   -2.9182   21.8127 C.ar    1  UNL1       -0.0112
     18 C           4.4104   -4.2851   21.1959 C.ar    1  UNL1       -0.0034
     19 C           4.0232   -4.4696   19.7586 C.ar    1  UNL1       -0.0006
     20 C           3.6006   -3.2872   18.9380 C.ar    1  UNL1       -0.0039
     21 C           3.5653   -1.9203   19.5547 C.ar    1  UNL1       -0.0169
     22 C           3.9526   -1.7358   20.9921 C.ar    1  UNL1       -0.0073
     23 C           3.1428   -0.7380   18.7341 C.3     1  UNL1        0.0679
     24 C           3.9531   -0.3246   17.5415 C.2     1  UNL1        0.0547
     25 O           3.8237   -1.0761   16.2498 O.co2   1  UNL1       -0.5488
     26 O           4.8930    0.8403   17.6405 O.co2   1  UNL1       -0.5488
@<TRIPOS>UNITY_ATOM_ATTR
25 1
charge -1
@<TRIPOS>BOND
     1    13    14    3
     2    14     1    1
     3     1     2    1
     4     2     8    1
     5     8     9   ar
     6     9    10   ar
     7    10    11   ar
     8    11    12   ar
     9     2     3    2
    10     3     4    1
    11     4    15    1
    12    15    16    1
    13    16    17    1
    14    17    18   ar
    15    18    19   ar
    16    19    20   ar
    17    20    21   ar
    18    21    23    1
    19    23    24    1
    20    24    25   ar
    21    24    26   ar
    22    21    22   ar
    23     4     5    2
    24     5     6    1
    25     6     7    2
    26     6     1    1
    27    12     8   ar
    28    22    17   ar
