@<TRIPOS>MOLECULE
*****
 29 34 0 0 0
SMALL
GASTEIGER

@<TRIPOS>ATOM
      1 O         -13.6657   -8.4232   18.5765 O.2     1  UNL1       -0.2904
      2 C         -13.6474   -6.9448   18.8298 C.2     1  UNL1        0.1885
      3 C         -12.3475   -6.1966   18.8102 C.ar    1  UNL1        0.0700
      4 C         -11.0659   -6.9266   18.5374 C.ar    1  UNL1        0.0059
      5 C          -9.7660   -6.1783   18.5178 C.ar    1  UNL1        0.0003
      6 C          -9.7478   -4.7000   18.7711 C.ar    1  UNL1        0.0031
      7 C         -11.0293   -3.9699   19.0440 C.ar    1  UNL1        0.0376
      8 C         -12.3292   -4.7182   19.0635 C.ar    1  UNL1        0.1476
      9 O         -13.6109   -3.9882   19.3364 O.3     1  UNL1       -0.4557
     10 C         -14.9107   -4.7364   19.3560 C.2     1  UNL1        0.1491
     11 C         -16.3226   -4.2896   19.5949 C.2     1  UNL1        0.0940
     12 N         -17.2134   -5.4918   19.4892 N.2     1  UNL1       -0.2480
     13 C         -16.3521   -6.6816   19.1850 C.2     1  UNL1        0.0966
     14 C         -14.9290   -6.2148   19.1027 C.3     1  UNL1        0.1621
     15 C         -16.8300   -8.0908   18.9963 C.ar    1  UNL1        0.1251
     16 N         -16.7035   -9.2055   19.9920 N.ar    1  UNL1       -0.2356
     17 C         -17.3137  -10.4365   19.3898 C.ar    1  UNL1        0.1065
     18 C         -17.8173  -10.0824   18.0219 C.ar    1  UNL1        0.0575
     19 S         -17.5184   -8.6327   17.7787 S.2     1  UNL1       -0.0647
     20 C         -16.7657   -2.8869   19.8879 C.3     1  UNL1        0.0750
     21 C         -16.3471   -1.7641   18.9856 C.ar    1  UNL1       -0.0129
     22 C         -17.0354   -1.5646   17.6679 C.ar    1  UNL1       -0.0006
     23 C         -16.6168   -0.4418   16.7655 C.ar    1  UNL1        0.0399
     24 C         -15.5100    0.4814   17.1809 C.ar    1  UNL1        0.1764
     25 C         -14.8218    0.2819   18.4987 C.ar    1  UNL1        0.1761
     26 C         -15.2403   -0.8408   19.4010 C.ar    1  UNL1        0.0363
     27 O         -13.7714    1.3437   18.6386 O.3     1  UNL1       -0.4346
     28 C         -13.8106    2.1994   17.4073 C.3     1  UNL1        0.4294
     29 O         -14.8851    1.6665   16.5064 O.3     1  UNL1       -0.4346
@<TRIPOS>BOND
     1     1     2    2
     2     2     3    1
     3     3     4   ar
     4     4     5   ar
     5     5     6   ar
     6     6     7   ar
     7     7     8   ar
     8     8     9    1
     9     9    10    1
    10    10    11    2
    11    11    20    1
    12    20    21    1
    13    21    22   ar
    14    22    23   ar
    15    23    24   ar
    16    24    25   ar
    17    25    26   ar
    18    25    27    1
    19    27    28    1
    20    28    29    1
    21    11    12    1
    22    12    13    2
    23    13    15    1
    24    15    16   ar
    25    16    17   ar
    26    17    18   ar
    27    18    19   ar
    28    13    14    1
    29    14     2    1
    30     8     3   ar
    31    14    10    1
    32    26    21   ar
    33    19    15   ar
    34    29    24    1
@<TRIPOS>MOLECULE
*****
 29 34 0 0 0
SMALL
GASTEIGER

@<TRIPOS>ATOM
      1 O         -11.2344   -3.5825   18.0403 O.2     1  UNL1       -0.2904
      2 C         -12.6701   -3.3312   18.3947 C.2     1  UNL1        0.1885
      3 C         -13.1914   -1.9262   18.4613 C.ar    1  UNL1        0.0700
      4 C         -12.2769   -0.7726   18.1735 C.ar    1  UNL1        0.0059
      5 C         -12.7982    0.6323   18.2401 C.ar    1  UNL1        0.0003
      6 C         -14.2339    0.8836   18.5944 C.ar    1  UNL1        0.0031
      7 C         -15.1483   -0.2700   18.8822 C.ar    1  UNL1        0.0376
      8 C         -14.6271   -1.6749   18.8156 C.ar    1  UNL1        0.1476
      9 O         -15.5416   -2.8287   19.1034 O.3     1  UNL1       -0.4557
     10 C         -15.0203   -4.2336   19.0368 C.2     1  UNL1        0.1491
     11 C         -15.6798   -5.5608   19.2678 C.2     1  UNL1        0.0940
     12 N         -14.6518   -6.6324   19.0562 N.2     1  UNL1       -0.2480
     13 C         -13.3568   -5.9674   18.6945 C.2     1  UNL1        0.0966
     14 C         -13.5846   -4.4848   18.6825 C.3     1  UNL1        0.1621
     15 C         -12.0615   -6.6628   18.3969 C.ar    1  UNL1        0.1251
     16 N         -10.7898   -6.5314   19.1814 N.ar    1  UNL1       -0.2356
     17 C          -9.7528   -7.3992   18.5319 C.ar    1  UNL1        0.1065
     18 C         -10.3837   -8.0669   17.3461 C.ar    1  UNL1        0.0575
     19 S         -11.8106   -7.6118   17.2626 S.2     1  UNL1       -0.0647
     20 C         -17.1155   -5.7783   19.6443 C.3     1  UNL1        0.0750
     21 C         -17.8206   -7.0321   19.2193 C.ar    1  UNL1       -0.0129
     22 C         -18.2903   -8.0148   20.2506 C.ar    1  UNL1       -0.0006
     23 C         -18.9955   -9.2687   19.8257 C.ar    1  UNL1        0.0399
     24 C         -19.2310   -9.5399   18.3693 C.ar    1  UNL1        0.1764
     25 C         -18.7613   -8.5572   17.3379 C.ar    1  UNL1        0.1761
     26 C         -18.0561   -7.3034   17.7629 C.ar    1  UNL1        0.0363
     27 O         -19.1327   -9.0909   15.9861 O.3     1  UNL1       -0.4346
     28 C         -19.8319  -10.4034   16.1821 C.3     1  UNL1        0.4294
     29 O         -19.8926  -10.6809   17.6550 O.3     1  UNL1       -0.4346
@<TRIPOS>BOND
     1     1     2    2
     2     2     3    1
     3     3     4   ar
     4     4     5   ar
     5     5     6   ar
     6     6     7   ar
     7     7     8   ar
     8     8     9    1
     9     9    10    1
    10    10    11    2
    11    11    20    1
    12    20    21    1
    13    21    22   ar
    14    22    23   ar
    15    23    24   ar
    16    24    25   ar
    17    25    26   ar
    18    25    27    1
    19    27    28    1
    20    28    29    1
    21    11    12    1
    22    12    13    2
    23    13    15    1
    24    15    16   ar
    25    16    17   ar
    26    17    18   ar
    27    18    19   ar
    28    13    14    1
    29    14     2    1
    30     8     3   ar
    31    14    10    1
    32    26    21   ar
    33    19    15   ar
    34    29    24    1
@<TRIPOS>MOLECULE
*****
 29 34 0 0 0
SMALL
GASTEIGER

@<TRIPOS>ATOM
      1 O           5.9027   -4.3632   22.7422 O.2     1  UNL1       -0.2904
      2 C           5.1707   -3.1176   23.1457 C.2     1  UNL1        0.1885
      3 C           4.2506   -2.4403   22.1737 C.ar    1  UNL1        0.0700
      4 C           4.0625   -3.0085   20.7983 C.ar    1  UNL1        0.0059
      5 C           3.1424   -2.3312   19.8264 C.ar    1  UNL1        0.0003
      6 C           2.4104   -1.0856   20.2298 C.ar    1  UNL1        0.0031
      7 C           2.5986   -0.5174   21.6052 C.ar    1  UNL1        0.0376
      8 C           3.5186   -1.1947   22.5771 C.ar    1  UNL1        0.1476
      9 O           3.7068   -0.6264   23.9526 O.3     1  UNL1       -0.4557
     10 C           4.6268   -1.3038   24.9245 C.2     1  UNL1        0.1491
     11 C           5.0092   -0.9788   26.3381 C.2     1  UNL1        0.0940
     12 N           5.9774   -2.0234   26.8083 N.2     1  UNL1       -0.2480
     13 C           6.1935   -2.9941   25.6853 C.2     1  UNL1        0.0966
     14 C           5.3588   -2.5493   24.5210 C.3     1  UNL1        0.1621
     15 C           7.0873   -4.1982   25.7203 C.ar    1  UNL1        0.1251
     16 N           6.7089   -5.5631   26.2141 N.ar    1  UNL1       -0.2356
     17 C           7.9043   -6.4573   26.0667 C.ar    1  UNL1        0.1065
     18 C           9.0215   -5.6448   25.4819 C.ar    1  UNL1        0.0575
     19 S           8.5166   -4.2487   25.2678 S.2     1  UNL1       -0.0647
     20 C           4.5107    0.1864   27.1405 C.3     1  UNL1        0.0750
     21 C           3.0365    0.4262   27.2785 C.ar    1  UNL1       -0.0129
     22 C           2.3293    1.3273   26.3100 C.ar    1  UNL1       -0.0006
     23 C           0.8550    1.5672   26.4479 C.ar    1  UNL1        0.0399
     24 C           0.0879    0.9060   27.5544 C.ar    1  UNL1        0.1764
     25 C           0.7951    0.0050   28.5229 C.ar    1  UNL1        0.1761
     26 C           2.2693   -0.2349   28.3850 C.ar    1  UNL1        0.0363
     27 O          -0.2172   -0.5049   29.5056 O.3     1  UNL1       -0.4346
     28 C          -1.5499    0.0811   29.1443 C.3     1  UNL1        0.4294
     29 O          -1.3613    0.9531   27.9384 O.3     1  UNL1       -0.4346
@<TRIPOS>BOND
     1     1     2    2
     2     2     3    1
     3     3     4   ar
     4     4     5   ar
     5     5     6   ar
     6     6     7   ar
     7     7     8   ar
     8     8     9    1
     9     9    10    1
    10    10    11    2
    11    11    20    1
    12    20    21    1
    13    21    22   ar
    14    22    23   ar
    15    23    24   ar
    16    24    25   ar
    17    25    26   ar
    18    25    27    1
    19    27    28    1
    20    28    29    1
    21    11    12    1
    22    12    13    2
    23    13    15    1
    24    15    16   ar
    25    16    17   ar
    26    17    18   ar
    27    18    19   ar
    28    13    14    1
    29    14     2    1
    30     8     3   ar
    31    14    10    1
    32    26    21   ar
    33    19    15   ar
    34    29    24    1
@<TRIPOS>MOLECULE
*****
 29 34 0 0 0
SMALL
GASTEIGER

@<TRIPOS>ATOM
      1 O           0.4832    3.4915   31.2663 O.2     1  UNL1       -0.2904
      2 C           1.2985    3.0343   32.4394 C.2     1  UNL1        0.1885
      3 C           1.3123    3.8418   33.7035 C.ar    1  UNL1        0.0700
      4 C           0.5107    5.1063   33.7945 C.ar    1  UNL1        0.0059
      5 C           0.5246    5.9137   35.0585 C.ar    1  UNL1        0.0003
      6 C           1.3399    5.4566   36.2316 C.ar    1  UNL1        0.0031
      7 C           2.1415    4.1920   36.1407 C.ar    1  UNL1        0.0376
      8 C           2.1277    3.3846   34.8766 C.ar    1  UNL1        0.1476
      9 O           2.9292    2.1199   34.7856 O.3     1  UNL1       -0.4557
     10 C           2.9154    1.3125   33.5216 C.2     1  UNL1        0.1491
     11 C           3.5999    0.0335   33.1400 C.2     1  UNL1        0.0940
     12 N           3.2076   -0.2998   31.7311 N.2     1  UNL1       -0.2480
     13 C           2.2807    0.7732   31.2419 C.2     1  UNL1        0.0966
     14 C           2.1001    1.7697   32.3485 C.3     1  UNL1        0.1621
     15 C           1.6458    0.8384   29.8845 C.ar    1  UNL1        0.1251
     16 N           0.2875    0.3162   29.5205 N.ar    1  UNL1       -0.2356
     17 C           0.0599    0.5923   28.0637 C.ar    1  UNL1        0.1065
     18 C           1.2776    1.2850   27.5275 C.ar    1  UNL1        0.0575
     19 S           2.2577    1.4371   28.6528 S.2     1  UNL1       -0.0647
     20 C           4.5159   -0.7709   34.0140 C.3     1  UNL1        0.0750
     21 C           5.6800   -1.4994   33.4106 C.ar    1  UNL1       -0.0129
     22 C           7.0498   -0.8895   33.4523 C.ar    1  UNL1       -0.0006
     23 C           8.2140   -1.6179   32.8489 C.ar    1  UNL1        0.0399
     24 C           8.0084   -2.9564   32.2037 C.ar    1  UNL1        0.1764
     25 C           6.6386   -3.5664   32.1620 C.ar    1  UNL1        0.1761
     26 C           5.4745   -2.8380   32.7654 C.ar    1  UNL1        0.0363
     27 O           6.7417   -4.8899   31.4635 O.3     1  UNL1       -0.4346
     28 C           8.1751   -5.0978   31.0736 C.3     1  UNL1        0.4294
     29 O           8.9580   -3.9028   31.5311 O.3     1  UNL1       -0.4346
@<TRIPOS>BOND
     1     1     2    2
     2     2     3    1
     3     3     4   ar
     4     4     5   ar
     5     5     6   ar
     6     6     7   ar
     7     7     8   ar
     8     8     9    1
     9     9    10    1
    10    10    11    2
    11    11    20    1
    12    20    21    1
    13    21    22   ar
    14    22    23   ar
    15    23    24   ar
    16    24    25   ar
    17    25    26   ar
    18    25    27    1
    19    27    28    1
    20    28    29    1
    21    11    12    1
    22    12    13    2
    23    13    15    1
    24    15    16   ar
    25    16    17   ar
    26    17    18   ar
    27    18    19   ar
    28    13    14    1
    29    14     2    1
    30     8     3   ar
    31    14    10    1
    32    26    21   ar
    33    19    15   ar
    34    29    24    1
@<TRIPOS>MOLECULE
*****
 29 34 0 0 0
SMALL
GASTEIGER

@<TRIPOS>ATOM
      1 O           6.8634   -3.7187   27.2266 O.2     1  UNL1       -0.2904
      2 C           6.8942   -4.1749   25.7980 C.2     1  UNL1        0.1885
      3 C           7.7405   -5.3489   25.4037 C.ar    1  UNL1        0.0700
      4 C           8.5559   -6.0667   26.4380 C.ar    1  UNL1        0.0059
      5 C           9.4022   -7.2408   26.0436 C.ar    1  UNL1        0.0003
      6 C           9.4330   -7.6970   24.6150 C.ar    1  UNL1        0.0031
      7 C           8.6176   -6.9791   23.5808 C.ar    1  UNL1        0.0376
      8 C           7.7713   -5.8051   23.9751 C.ar    1  UNL1        0.1476
      9 O           6.9559   -5.0872   22.9408 O.3     1  UNL1       -0.4557
     10 C           6.1096   -3.9132   23.3351 C.2     1  UNL1        0.1491
     11 C           5.2067   -3.0154   22.5423 C.2     1  UNL1        0.0940
     12 N           4.6179   -2.0043   23.4808 N.2     1  UNL1       -0.2480
     13 C           5.1568   -2.2772   24.8538 C.2     1  UNL1        0.0966
     14 C           6.0788   -3.4570   24.7637 C.3     1  UNL1        0.1621
     15 C           4.8311   -1.5059   26.0983 C.ar    1  UNL1        0.1251
     16 N           3.7524   -1.8399   27.0856 N.ar    1  UNL1       -0.2356
     17 C           3.7815   -0.8054   28.1716 C.ar    1  UNL1        0.1065
     18 C           4.8782    0.1678   27.8553 C.ar    1  UNL1        0.0575
     19 S           5.5269   -0.2650   26.5739 S.2     1  UNL1       -0.0647
     20 C           4.9396   -3.1117   21.0694 C.3     1  UNL1        0.0750
     21 C           4.3864   -1.9305   20.3286 C.ar    1  UNL1       -0.0129
     22 C           5.3132   -0.9924   19.6138 C.ar    1  UNL1       -0.0006
     23 C           4.7602    0.1889   18.8729 C.ar    1  UNL1        0.0399
     24 C           3.2803    0.4320   18.8470 C.ar    1  UNL1        0.1764
     25 C           2.3534   -0.5061   19.5619 C.ar    1  UNL1        0.1761
     26 C           2.9065   -1.6873   20.3026 C.ar    1  UNL1        0.0363
     27 O           0.9507   -0.0138   19.3618 O.3     1  UNL1       -0.4346
     28 C           1.0106    1.2285   18.5233 C.3     1  UNL1        0.4294
     29 O           2.4503    1.5040   18.2051 O.3     1  UNL1       -0.4346
@<TRIPOS>BOND
     1     1     2    2
     2     2     3    1
     3     3     4   ar
     4     4     5   ar
     5     5     6   ar
     6     6     7   ar
     7     7     8   ar
     8     8     9    1
     9     9    10    1
    10    10    11    2
    11    11    20    1
    12    20    21    1
    13    21    22   ar
    14    22    23   ar
    15    23    24   ar
    16    24    25   ar
    17    25    26   ar
    18    25    27    1
    19    27    28    1
    20    28    29    1
    21    11    12    1
    22    12    13    2
    23    13    15    1
    24    15    16   ar
    25    16    17   ar
    26    17    18   ar
    27    18    19   ar
    28    13    14    1
    29    14     2    1
    30     8     3   ar
    31    14    10    1
    32    26    21   ar
    33    19    15   ar
    34    29    24    1
@<TRIPOS>MOLECULE
*****
 29 34 0 0 0
SMALL
GASTEIGER

@<TRIPOS>ATOM
      1 O          -0.0957    1.1501   19.7930 O.2     1  UNL1       -0.2904
      2 C           0.4918    1.1876   21.1726 C.2     1  UNL1        0.1885
      3 C           1.5984    0.2449   21.5424 C.ar    1  UNL1        0.0700
      4 C           2.1175   -0.7353   20.5326 C.ar    1  UNL1        0.0059
      5 C           3.2241   -1.6779   20.9024 C.ar    1  UNL1        0.0003
      6 C           3.8116   -1.6404   22.2820 C.ar    1  UNL1        0.0031
      7 C           3.2925   -0.6603   23.2919 C.ar    1  UNL1        0.0376
      8 C           2.1859    0.2824   22.9220 C.ar    1  UNL1        0.1476
      9 O           1.6668    1.2626   23.9319 O.3     1  UNL1       -0.4557
     10 C           0.5602    2.2052   23.5621 C.2     1  UNL1        0.1491
     11 C          -0.1509    3.2727   24.3398 C.2     1  UNL1        0.0940
     12 N          -1.1779    3.8949   23.4409 N.2     1  UNL1       -0.2480
     13 C          -1.1015    3.2120   22.1076 C.2     1  UNL1        0.0966
     14 C          -0.0273    2.1677   22.1824 C.3     1  UNL1        0.1621
     15 C          -1.9503    3.5194   20.9096 C.ar    1  UNL1        0.1251
     16 N          -3.3496    3.0339   20.6725 N.ar    1  UNL1       -0.2356
     17 C          -3.8130    3.5807   19.3548 C.ar    1  UNL1        0.1065
     18 C          -2.6999    4.4041   18.7775 C.ar    1  UNL1        0.0575
     19 S          -1.5487    4.3662   19.7384 S.2     1  UNL1       -0.0647
     20 C           0.1178    3.6514   25.7661 C.3     1  UNL1        0.0750
     21 C           0.2468    2.5855   26.8136 C.ar    1  UNL1       -0.0129
     22 C          -0.9645    1.8211   27.2590 C.ar    1  UNL1       -0.0006
     23 C          -0.8356    0.7552   28.3065 C.ar    1  UNL1        0.0399
     24 C           0.5048    0.4536   28.9085 C.ar    1  UNL1        0.1764
     25 C           1.7161    1.2179   28.4632 C.ar    1  UNL1        0.1761
     26 C           1.5872    2.2838   27.4157 C.ar    1  UNL1        0.0363
     27 O           2.8973    0.7032   29.2313 O.3     1  UNL1       -0.4346
     28 C           2.4159   -0.3792   30.1514 C.3     1  UNL1        0.4294
     29 O           0.9372   -0.5335   29.9519 O.3     1  UNL1       -0.4346
@<TRIPOS>BOND
     1     1     2    2
     2     2     3    1
     3     3     4   ar
     4     4     5   ar
     5     5     6   ar
     6     6     7   ar
     7     7     8   ar
     8     8     9    1
     9     9    10    1
    10    10    11    2
    11    11    20    1
    12    20    21    1
    13    21    22   ar
    14    22    23   ar
    15    23    24   ar
    16    24    25   ar
    17    25    26   ar
    18    25    27    1
    19    27    28    1
    20    28    29    1
    21    11    12    1
    22    12    13    2
    23    13    15    1
    24    15    16   ar
    25    16    17   ar
    26    17    18   ar
    27    18    19   ar
    28    13    14    1
    29    14     2    1
    30     8     3   ar
    31    14    10    1
    32    26    21   ar
    33    19    15   ar
    34    29    24    1
@<TRIPOS>MOLECULE
*****
 29 34 0 0 0
SMALL
GASTEIGER

@<TRIPOS>ATOM
      1 O         -12.1834   -1.0919   17.9640 O.2     1  UNL1       -0.2904
      2 C         -13.5902   -1.3222   18.4308 C.2     1  UNL1        0.1885
      3 C         -14.5037   -0.1554   18.6633 C.ar    1  UNL1        0.0700
      4 C         -14.0104    1.2417   18.4290 C.ar    1  UNL1        0.0059
      5 C         -14.9239    2.4084   18.6615 C.ar    1  UNL1        0.0003
      6 C         -16.3307    2.1782   19.1284 C.ar    1  UNL1        0.0031
      7 C         -16.8240    0.7811   19.3627 C.ar    1  UNL1        0.0376
      8 C         -15.9105   -0.3856   19.1301 C.ar    1  UNL1        0.1476
      9 O         -16.4037   -1.7828   19.3645 O.3     1  UNL1       -0.4557
     10 C         -15.4902   -2.9495   19.1319 C.2     1  UNL1        0.1491
     11 C         -15.6941   -4.4285   19.2772 C.2     1  UNL1        0.0940
     12 N         -14.4134   -5.1123   18.9001 N.2     1  UNL1       -0.2480
     13 C         -13.4180   -4.0559   18.5218 C.2     1  UNL1        0.0966
     14 C         -14.0834   -2.7192   18.6651 C.3     1  UNL1        0.1621
     15 C         -12.0050   -4.2943   18.0782 C.ar    1  UNL1        0.1251
     16 N         -10.7979   -4.3423   18.9673 N.ar    1  UNL1       -0.2356
     17 C          -9.5980   -4.6042   18.1061 C.ar    1  UNL1        0.1065
     18 C         -10.0636   -4.7181   16.6847 C.ar    1  UNL1        0.0575
     19 S         -11.5512   -4.5265   16.6674 S.2     1  UNL1       -0.0647
     20 C         -16.9571   -5.1049   19.7215 C.3     1  UNL1        0.0750
     21 C         -17.2911   -6.4769   19.2155 C.ar    1  UNL1       -0.0129
     22 C         -18.3479   -6.6524   18.1656 C.ar    1  UNL1       -0.0006
     23 C         -18.6820   -8.0245   17.6596 C.ar    1  UNL1        0.0399
     24 C         -17.9591   -9.2210   18.2035 C.ar    1  UNL1        0.1764
     25 C         -16.9022   -9.0454   19.2533 C.ar    1  UNL1        0.1761
     26 C         -16.5682   -7.6735   19.7593 C.ar    1  UNL1        0.0363
     27 O         -16.3620  -10.4016   19.5986 O.3     1  UNL1       -0.4346
     28 C         -17.0851  -11.4152   18.7621 C.3     1  UNL1        0.4294
     29 O         -18.0721  -10.6855   17.8998 O.3     1  UNL1       -0.4346
@<TRIPOS>BOND
     1     1     2    2
     2     2     3    1
     3     3     4   ar
     4     4     5   ar
     5     5     6   ar
     6     6     7   ar
     7     7     8   ar
     8     8     9    1
     9     9    10    1
    10    10    11    2
    11    11    20    1
    12    20    21    1
    13    21    22   ar
    14    22    23   ar
    15    23    24   ar
    16    24    25   ar
    17    25    26   ar
    18    25    27    1
    19    27    28    1
    20    28    29    1
    21    11    12    1
    22    12    13    2
    23    13    15    1
    24    15    16   ar
    25    16    17   ar
    26    17    18   ar
    27    18    19   ar
    28    13    14    1
    29    14     2    1
    30     8     3   ar
    31    14    10    1
    32    26    21   ar
    33    19    15   ar
    34    29    24    1
@<TRIPOS>MOLECULE
*****
 29 34 0 0 0
SMALL
GASTEIGER

@<TRIPOS>ATOM
      1 O           6.4292   -3.6709   27.3226 O.2     1  UNL1       -0.2904
      2 C           6.8552   -4.3825   26.0727 C.2     1  UNL1        0.1885
      3 C           7.5343   -5.7169   26.1639 C.ar    1  UNL1        0.0700
      4 C           7.7875   -6.3396   27.5048 C.ar    1  UNL1        0.0059
      5 C           8.4666   -7.6739   27.5959 C.ar    1  UNL1        0.0003
      6 C           8.8926   -8.3856   26.3461 C.ar    1  UNL1        0.0031
      7 C           8.6394   -7.7629   25.0051 C.ar    1  UNL1        0.0376
      8 C           7.9603   -6.4286   24.9140 C.ar    1  UNL1        0.1476
      9 O           7.7071   -5.8058   23.5730 O.3     1  UNL1       -0.4557
     10 C           7.0280   -4.4715   23.4819 C.2     1  UNL1        0.1491
     11 C           6.6476   -3.6168   22.3094 C.2     1  UNL1        0.0940
     12 N           5.9866   -2.3770   22.8345 N.2     1  UNL1       -0.2480
     13 C           5.9584   -2.4654   24.3316 C.2     1  UNL1        0.0966
     14 C           6.6020   -3.7599   24.7318 C.3     1  UNL1        0.1621
     15 C           5.3870   -1.4394   25.2648 C.ar    1  UNL1        0.1251
     16 N           6.1729   -0.4771   26.1053 N.ar    1  UNL1       -0.2356
     17 C           5.2009    0.3614   26.8814 C.ar    1  UNL1        0.1065
     18 C           3.8143   -0.0827   26.5204 C.ar    1  UNL1        0.0575
     19 S           3.9293   -1.1956   25.5213 S.2     1  UNL1       -0.0647
     20 C           6.8864   -3.9445   20.8652 C.3     1  UNL1        0.0750
     21 C           6.3576   -3.0384   19.7932 C.ar    1  UNL1       -0.0129
     22 C           4.9482   -3.1972   19.3049 C.ar    1  UNL1       -0.0006
     23 C           4.4192   -2.2911   18.2328 C.ar    1  UNL1        0.0399
     24 C           5.2997   -1.2263   17.6490 C.ar    1  UNL1        0.1764
     25 C           6.7091   -1.0675   18.1373 C.ar    1  UNL1        0.1761
     26 C           7.2381   -1.9735   19.2093 C.ar    1  UNL1        0.0363
     27 O           7.3378    0.0638   17.3790 O.3     1  UNL1       -0.4346
     28 C           6.3169    0.6042   16.4221 C.3     1  UNL1        0.4294
     29 O           5.0573   -0.1931   16.5890 O.3     1  UNL1       -0.4346
@<TRIPOS>BOND
     1     1     2    2
     2     2     3    1
     3     3     4   ar
     4     4     5   ar
     5     5     6   ar
     6     6     7   ar
     7     7     8   ar
     8     8     9    1
     9     9    10    1
    10    10    11    2
    11    11    20    1
    12    20    21    1
    13    21    22   ar
    14    22    23   ar
    15    23    24   ar
    16    24    25   ar
    17    25    26   ar
    18    25    27    1
    19    27    28    1
    20    28    29    1
    21    11    12    1
    22    12    13    2
    23    13    15    1
    24    15    16   ar
    25    16    17   ar
    26    17    18   ar
    27    18    19   ar
    28    13    14    1
    29    14     2    1
    30     8     3   ar
    31    14    10    1
    32    26    21   ar
    33    19    15   ar
    34    29    24    1
@<TRIPOS>MOLECULE
*****
 29 34 0 0 0
SMALL
GASTEIGER

@<TRIPOS>ATOM
      1 O           5.3717   -0.3076   35.3292 O.2     1  UNL1       -0.2904
      2 C           4.2475    0.6503   35.0673 C.2     1  UNL1        0.1885
      3 C           3.7793    1.5724   36.1539 C.ar    1  UNL1        0.0700
      4 C           4.4354    1.5365   37.5023 C.ar    1  UNL1        0.0059
      5 C           3.9672    2.4586   38.5889 C.ar    1  UNL1        0.0003
      6 C           2.8430    3.4165   38.3270 C.ar    1  UNL1        0.0031
      7 C           2.1870    3.4523   36.9786 C.ar    1  UNL1        0.0376
      8 C           2.6551    2.5303   35.8921 C.ar    1  UNL1        0.1476
      9 O           1.9991    2.5662   34.5435 O.3     1  UNL1       -0.4557
     10 C           2.4673    1.6441   33.4570 C.2     1  UNL1        0.1491
     11 C           2.0167    1.4535   32.0390 C.2     1  UNL1        0.0940
     12 N           2.8624    0.3778   31.4245 N.2     1  UNL1       -0.2480
     13 C           3.8357   -0.0964   32.4627 C.2     1  UNL1        0.0966
     14 C           3.5915    0.6862   33.7189 C.3     1  UNL1        0.1621
     15 C           4.8713   -1.1655   32.2774 C.ar    1  UNL1        0.1251
     16 N           4.7794   -2.5777   32.7745 N.ar    1  UNL1       -0.2356
     17 C           6.0321   -3.2952   32.3667 C.ar    1  UNL1        0.1065
     18 C           6.8981   -2.3263   31.6175 C.ar    1  UNL1        0.0575
     19 S           6.1807   -1.0101   31.5623 S.2     1  UNL1       -0.0647
     20 C           0.9140    2.2064   31.3555 C.3     1  UNL1        0.0750
     21 C           0.5642    1.8948   29.9306 C.ar    1  UNL1       -0.0129
     22 C          -0.4243    0.8098   29.6211 C.ar    1  UNL1       -0.0006
     23 C          -0.7742    0.4981   28.1961 C.ar    1  UNL1        0.0399
     24 C          -0.1356    1.2714   27.0807 C.ar    1  UNL1        0.1764
     25 C           0.8529    2.3563   27.3902 C.ar    1  UNL1        0.1761
     26 C           1.2028    2.6681   28.8151 C.ar    1  UNL1        0.0363
     27 O           1.3169    2.9451   26.0909 O.3     1  UNL1       -0.4346
     28 C           0.6152    2.2240   24.9785 C.3     1  UNL1        0.4294
     29 O          -0.2825    1.1896   25.5902 O.3     1  UNL1       -0.4346
@<TRIPOS>BOND
     1     1     2    2
     2     2     3    1
     3     3     4   ar
     4     4     5   ar
     5     5     6   ar
     6     6     7   ar
     7     7     8   ar
     8     8     9    1
     9     9    10    1
    10    10    11    2
    11    11    20    1
    12    20    21    1
    13    21    22   ar
    14    22    23   ar
    15    23    24   ar
    16    24    25   ar
    17    25    26   ar
    18    25    27    1
    19    27    28    1
    20    28    29    1
    21    11    12    1
    22    12    13    2
    23    13    15    1
    24    15    16   ar
    25    16    17   ar
    26    17    18   ar
    27    18    19   ar
    28    13    14    1
    29    14     2    1
    30     8     3   ar
    31    14    10    1
    32    26    21   ar
    33    19    15   ar
    34    29    24    1
