@<TRIPOS>MOLECULE
*****
 42 47 0 0 0
SMALL
GASTEIGER

@<TRIPOS>ATOM
      1 N           1.3114    2.0419   29.9846 N.am    1  UNL1       -0.1907
      2 C           2.3438    0.9579   30.0809 C.2     1  UNL1        0.3220
      3 O           2.7426    0.0200   28.9804 O.2     1  UNL1       -0.2512
      4 N           2.9072    0.9765   31.4709 N.am    1  UNL1       -0.2212
      5 C           2.2231    2.0721   32.2338 C.3     1  UNL1        0.1391
      6 C           1.4576    3.1967   32.8655 C.3     1  UNL1        0.0449
      7 C           1.7147    3.5685   34.2958 C.3     1  UNL1        0.0746
      8 N           2.7372    2.8157   35.0943 N.3     1  UNL1       -0.2676
      9 C           3.5027    1.6910   34.4625 C.3     1  UNL1        0.0746
     10 C           3.2457    1.3192   33.0323 C.3     1  UNL1        0.0449
     11 C           1.2369    2.7305   31.3152 C.2     1  UNL1        0.2529
     12 O           0.3345    3.8763   31.6656 O.2     1  UNL1       -0.2724
     13 C          -1.1328    3.0509   26.3435 C.ar    1  UNL1       -0.0002
     14 C          -1.1116    1.6453   26.8667 C.ar    1  UNL1        0.0013
     15 C          -0.2969    1.3089   28.0804 C.ar    1  UNL1        0.0154
     16 C           0.4967    2.3782   28.7709 C.ar    1  UNL1        0.0622
     17 C           0.4755    3.7838   28.2478 C.ar    1  UNL1        0.0154
     18 C          -0.3393    4.1202   27.0341 C.ar    1  UNL1        0.0013
     19 C          -4.0045    3.8656   26.6432 C.3     1  UNL1        0.0310
     20 C          -3.3833    3.7946   25.2797 C.ar    1  UNL1       -0.0218
     21 C          -4.1981    4.1310   24.0659 C.ar    1  UNL1       -0.0031
     22 C          -3.5770    4.0600   22.7024 C.ar    1  UNL1        0.0137
     23 C          -2.1411    3.6526   22.5526 C.ar    1  UNL1        0.0011
     24 C          -1.3264    3.3163   23.7663 C.ar    1  UNL1       -0.0003
     25 C          -1.9475    3.3873   25.1298 C.ar    1  UNL1       -0.0040
     26 C          -4.3918    4.3963   21.4887 C.2     1  UNL1        0.0729
     27 O          -4.6543    3.3487   20.4477 O.co2   1  UNL1       -0.5446
     28 O          -4.9440    5.7803   21.3160 O.co2   1  UNL1       -0.5446
     29 C           3.9684    0.0606   32.0045 C.ar    1  UNL1        0.1583
     30 C           5.4152    0.4374   31.8825 C.ar    1  UNL1        0.1335
     31 N           6.4763   -0.4787   32.4161 N.ar    1  UNL1       -0.2378
     32 C           6.0908   -1.7716   33.0717 C.ar    1  UNL1        0.1196
     33 C           4.6441   -2.1484   33.1937 C.ar    1  UNL1        0.1210
     34 N           3.5829   -1.2324   32.6601 N.ar    1  UNL1       -0.2255
     35 C           2.9942    3.1875   36.5246 C.3     1  UNL1        0.1183
     36 C           2.2453    2.4967   37.6253 C.ar    1  UNL1        0.0712
     37 N           0.9476    3.0635   38.1202 N.ar    1  UNL1       -0.2471
     38 C           0.1987    2.3726   39.2210 C.ar    1  UNL1        0.0985
     39 C           0.7473    1.1149   39.8269 C.ar    1  UNL1        0.0203
     40 C           2.0449    0.5480   39.3320 C.ar    1  UNL1       -0.0015
     41 C           2.7939    1.2389   38.2313 C.ar    1  UNL1       -0.0069
     42 C           4.0915    0.6720   37.7364 C.3     1  UNL1        0.0323
@<TRIPOS>UNITY_ATOM_ATTR
27 1
charge -1
@<TRIPOS>BOND
     1    19    20    1
     2    20    21   ar
     3    21    22   ar
     4    22    26    1
     5    26    27   ar
     6    26    28   ar
     7    22    23   ar
     8    23    24   ar
     9    24    25   ar
    10    25    13    1
    11    13    14   ar
    12    14    15   ar
    13    15    16   ar
    14    16     1    1
    15     1     2   am
    16     2     3    2
    17     2     4   am
    18     4    29    1
    19    29    30   ar
    20    30    31   ar
    21    31    32   ar
    22    32    33   ar
    23    33    34   ar
    24     4     5    1
    25     5     6    1
    26     6     7    1
    27     7     8    1
    28     8    35    1
    29    35    36    1
    30    36    37   ar
    31    37    38   ar
    32    38    39   ar
    33    39    40   ar
    34    40    41   ar
    35    41    42    1
    36     8     9    1
    37     9    10    1
    38     5    11    1
    39    11    12    2
    40    16    17   ar
    41    17    18   ar
    42    25    20   ar
    43    18    13   ar
    44    11     1   am
    45    34    29   ar
    46    10     5    1
    47    41    36   ar
@<TRIPOS>MOLECULE
*****
 42 47 0 0 0
SMALL
GASTEIGER

@<TRIPOS>ATOM
      1 N           1.4203    1.5222   30.2193 N.am    1  UNL1       -0.1907
      2 C           2.4470    0.4324   30.1281 C.2     1  UNL1        0.3220
      3 O           2.7416   -0.4022   28.9172 O.2     1  UNL1       -0.2512
      4 N           3.1274    0.3238   31.4605 N.am    1  UNL1       -0.2212
      5 C           2.5212    1.3465   32.3753 C.3     1  UNL1        0.1391
      6 C           1.8230    2.4102   33.1696 C.3     1  UNL1        0.0449
      7 C           2.2048    2.6501   34.6002 C.3     1  UNL1        0.0746
      8 N           3.2848    1.8263   35.2365 N.3     1  UNL1       -0.2676
      9 C           3.9830    0.7626   34.4422 C.3     1  UNL1        0.0746
     10 C           3.6012    0.5227   33.0116 C.3     1  UNL1        0.0449
     11 C           1.4662    2.0872   31.6082 C.2     1  UNL1        0.2529
     12 O           0.6077    3.1977   32.1371 O.2     1  UNL1       -0.2724
     13 C          -1.3167    2.8616   26.9081 C.ar    1  UNL1       -0.0002
     14 C          -1.3604    1.4414   27.3890 C.ar    1  UNL1        0.0013
     15 C          -0.4480    0.9950   28.4927 C.ar    1  UNL1        0.0154
     16 C           0.5080    1.9687   29.1156 C.ar    1  UNL1        0.0622
     17 C           0.5516    3.3887   28.6347 C.ar    1  UNL1        0.0154
     18 C          -0.3607    3.8352   27.5310 C.ar    1  UNL1        0.0013
     19 C          -0.3547    2.8420   24.0665 C.3     1  UNL1        0.0310
     20 C          -1.7480    3.2982   24.3836 C.ar    1  UNL1       -0.0218
     21 C          -2.6604    3.7447   23.2797 C.ar    1  UNL1       -0.0031
     22 C          -4.0537    4.2010   23.5967 C.ar    1  UNL1        0.0137
     23 C          -4.5347    4.2108   25.0176 C.ar    1  UNL1        0.0011
     24 C          -3.6224    3.7643   26.1213 C.ar    1  UNL1       -0.0003
     25 C          -2.2291    3.3080   25.8043 C.ar    1  UNL1       -0.0040
     26 C          -4.9661    4.6474   22.4930 C.2     1  UNL1        0.0729
     27 O          -6.3747    4.1355   22.4310 O.co2   1  UNL1       -0.5446
     28 O          -4.4698    5.6058   21.4512 O.co2   1  UNL1       -0.5446
     29 C           4.2217   -0.6385   31.8159 C.ar    1  UNL1        0.1583
     30 C           5.6496   -0.2974   31.5080 C.ar    1  UNL1        0.1335
     31 N           6.7440   -1.2597   31.8634 N.ar    1  UNL1       -0.2378
     32 C           6.4105   -2.5632   32.5267 C.ar    1  UNL1        0.1196
     33 C           4.9826   -2.9042   32.8346 C.ar    1  UNL1        0.1210
     34 N           3.8883   -1.9419   32.4792 N.ar    1  UNL1       -0.2255
     35 C           3.6666    2.0662   36.6671 C.3     1  UNL1        0.1183
     36 C           2.6570    1.8609   37.7574 C.ar    1  UNL1        0.0712
     37 N           2.5370    0.5237   38.4263 N.ar    1  UNL1       -0.2471
     38 C           1.5274    0.3185   39.5165 C.ar    1  UNL1        0.0985
     39 C           0.6379    1.4504   39.9378 C.ar    1  UNL1        0.0203
     40 C           0.7579    2.7876   39.2689 C.ar    1  UNL1       -0.0015
     41 C           1.7675    2.9929   38.1787 C.ar    1  UNL1       -0.0069
     42 C           1.8875    4.3301   37.5098 C.3     1  UNL1        0.0323
@<TRIPOS>UNITY_ATOM_ATTR
27 1
charge -1
@<TRIPOS>BOND
     1    19    20    1
     2    20    21   ar
     3    21    22   ar
     4    22    26    1
     5    26    27   ar
     6    26    28   ar
     7    22    23   ar
     8    23    24   ar
     9    24    25   ar
    10    25    13    1
    11    13    14   ar
    12    14    15   ar
    13    15    16   ar
    14    16     1    1
    15     1     2   am
    16     2     3    2
    17     2     4   am
    18     4    29    1
    19    29    30   ar
    20    30    31   ar
    21    31    32   ar
    22    32    33   ar
    23    33    34   ar
    24     4     5    1
    25     5     6    1
    26     6     7    1
    27     7     8    1
    28     8    35    1
    29    35    36    1
    30    36    37   ar
    31    37    38   ar
    32    38    39   ar
    33    39    40   ar
    34    40    41   ar
    35    41    42    1
    36     8     9    1
    37     9    10    1
    38     5    11    1
    39    11    12    2
    40    16    17   ar
    41    17    18   ar
    42    25    20   ar
    43    18    13   ar
    44    11     1   am
    45    34    29   ar
    46    10     5    1
    47    41    36   ar
@<TRIPOS>MOLECULE
*****
 42 47 0 0 0
SMALL
GASTEIGER

@<TRIPOS>ATOM
      1 N           1.9873    1.0623   30.4608 N.am    1  UNL1       -0.1907
      2 C           3.0538    0.0367   30.2136 C.2     1  UNL1        0.3220
      3 O           3.3193   -0.6634   28.9139 O.2     1  UNL1       -0.2512
      4 N           3.8080   -0.1657   31.4942 N.am    1  UNL1       -0.2212
      5 C           3.2078    0.7347   32.5331 C.3     1  UNL1        0.1391
      6 C           2.5076    1.6830   33.4606 C.3     1  UNL1        0.0449
      7 C           2.9542    1.8033   34.8875 C.3     1  UNL1        0.0746
      8 N           4.1010    0.9754   35.3868 N.3     1  UNL1       -0.2676
      9 C           4.8012    0.0271   34.4593 C.3     1  UNL1        0.0746
     10 C           4.3546   -0.0932   33.0324 C.3     1  UNL1        0.0449
     11 C           2.0825    1.4936   31.8944 C.2     1  UNL1        0.2529
     12 O           1.2064    2.5062   32.5705 O.2     1  UNL1       -0.2724
     13 C          -0.9770    2.5785   27.4337 C.ar    1  UNL1       -0.0002
     14 C          -1.0180    1.1440   27.8703 C.ar    1  UNL1        0.0013
     15 C          -0.0299    0.6386   28.8794 C.ar    1  UNL1        0.0154
     16 C           0.9992    1.5677   29.4518 C.ar    1  UNL1        0.0622
     17 C           1.0403    3.0021   29.0152 C.ar    1  UNL1        0.0154
     18 C           0.0522    3.5075   28.0061 C.ar    1  UNL1        0.0013
     19 C          -0.2882    2.5476   24.5139 C.3     1  UNL1        0.0310
     20 C          -1.6207    3.0684   24.9648 C.ar    1  UNL1       -0.0218
     21 C          -2.6088    3.5739   23.9557 C.ar    1  UNL1       -0.0031
     22 C          -3.9413    4.0948   24.4065 C.ar    1  UNL1        0.0137
     23 C          -4.2857    4.1102   25.8664 C.ar    1  UNL1        0.0011
     24 C          -3.2976    3.6048   26.8755 C.ar    1  UNL1       -0.0003
     25 C          -1.9651    3.0839   26.4247 C.ar    1  UNL1       -0.0040
     26 C          -4.9294    4.6002   23.3974 C.2     1  UNL1        0.0729
     27 O          -4.9004    6.0391   22.9749 O.co2   1  UNL1       -0.5446
     28 O          -5.9466    3.6666   22.8110 O.co2   1  UNL1       -0.5446
     29 C           4.9602   -1.1038   31.7001 C.ar    1  UNL1        0.1583
     30 C           4.7247   -2.4631   32.2891 C.ar    1  UNL1        0.1335
     31 N           5.8770   -3.4011   32.4949 N.ar    1  UNL1       -0.2378
     32 C           7.2648   -2.9800   32.1117 C.ar    1  UNL1        0.1196
     33 C           7.5002   -1.6207   31.5226 C.ar    1  UNL1        0.1210
     34 N           6.3480   -0.6827   31.3168 N.ar    1  UNL1       -0.2255
     35 C           4.5476    1.0958   36.8138 C.3     1  UNL1        0.1183
     36 C           4.3397    2.3809   37.5589 C.ar    1  UNL1        0.0712
     37 N           5.2282    3.5582   37.2861 N.ar    1  UNL1       -0.2471
     38 C           5.0203    4.8434   38.0312 C.ar    1  UNL1        0.0985
     39 C           3.9238    4.9512   39.0491 C.ar    1  UNL1        0.0203
     40 C           3.0352    3.7739   39.3218 C.ar    1  UNL1       -0.0015
     41 C           3.2431    2.4888   38.5767 C.ar    1  UNL1       -0.0069
     42 C           2.3545    1.3114   38.8495 C.3     1  UNL1        0.0323
@<TRIPOS>UNITY_ATOM_ATTR
27 1
charge -1
@<TRIPOS>BOND
     1    19    20    1
     2    20    21   ar
     3    21    22   ar
     4    22    26    1
     5    26    27   ar
     6    26    28   ar
     7    22    23   ar
     8    23    24   ar
     9    24    25   ar
    10    25    13    1
    11    13    14   ar
    12    14    15   ar
    13    15    16   ar
    14    16     1    1
    15     1     2   am
    16     2     3    2
    17     2     4   am
    18     4    29    1
    19    29    30   ar
    20    30    31   ar
    21    31    32   ar
    22    32    33   ar
    23    33    34   ar
    24     4     5    1
    25     5     6    1
    26     6     7    1
    27     7     8    1
    28     8    35    1
    29    35    36    1
    30    36    37   ar
    31    37    38   ar
    32    38    39   ar
    33    39    40   ar
    34    40    41   ar
    35    41    42    1
    36     8     9    1
    37     9    10    1
    38     5    11    1
    39    11    12    2
    40    16    17   ar
    41    17    18   ar
    42    25    20   ar
    43    18    13   ar
    44    11     1   am
    45    34    29   ar
    46    10     5    1
    47    41    36   ar
@<TRIPOS>MOLECULE
*****
 42 47 0 0 0
SMALL
GASTEIGER

@<TRIPOS>ATOM
      1 N           2.0429    0.3178   23.4958 N.am    1  UNL1       -0.1907
      2 C           2.2430   -0.0477   22.0548 C.2     1  UNL1        0.3220
      3 O           1.3623    0.3603   20.9113 O.2     1  UNL1       -0.2512
      4 N           3.4784   -0.8928   21.9581 N.am    1  UNL1       -0.2212
      5 C           4.0420   -1.0498   23.3394 C.3     1  UNL1        0.1391
      6 C           4.4857   -1.1182   24.7706 C.3     1  UNL1        0.0449
      7 C           5.7198   -1.8881   25.1372 C.3     1  UNL1        0.0746
      8 N           6.5100   -2.5895   24.0725 N.3     1  UNL1       -0.2676
      9 C           6.0663   -2.5211   22.6413 C.3     1  UNL1        0.0746
     10 C           4.8323   -1.7512   22.2748 C.3     1  UNL1        0.0449
     11 C           3.1548   -0.3016   24.2897 C.2     1  UNL1        0.2529
     12 O           3.3458   -0.1919   25.7735 O.2     1  UNL1       -0.2724
     13 C          -1.3050    2.8307   25.1470 C.ar    1  UNL1       -0.0002
     14 C          -0.7562    1.6900   25.9518 C.ar    1  UNL1        0.0013
     15 C           0.3598    0.8523   25.4014 C.ar    1  UNL1        0.0154
     16 C           0.9269    1.1554   24.0462 C.ar    1  UNL1        0.0622
     17 C           0.3782    2.2961   23.2415 C.ar    1  UNL1        0.0154
     18 C          -0.7378    3.1337   23.7919 C.ar    1  UNL1        0.0013
     19 C          -0.7161    4.9850   27.1502 C.3     1  UNL1        0.0310
     20 C          -2.1265    4.7454   26.6990 C.ar    1  UNL1       -0.0218
     21 C          -3.2425    5.5832   27.2495 C.ar    1  UNL1       -0.0031
     22 C          -4.6528    5.3437   26.7983 C.ar    1  UNL1        0.0137
     23 C          -4.9472    4.2665   25.7967 C.ar    1  UNL1        0.0011
     24 C          -3.8313    3.4289   25.2463 C.ar    1  UNL1       -0.0003
     25 C          -2.4209    3.6683   25.6974 C.ar    1  UNL1       -0.0040
     26 C          -5.7688    6.1814   27.3487 C.2     1  UNL1        0.0729
     27 O          -5.5878    6.9133   28.6454 O.co2   1  UNL1       -0.5446
     28 O          -7.0657    6.2870   26.6025 O.co2   1  UNL1       -0.5446
     29 C           4.0501   -1.4783   20.7010 C.ar    1  UNL1        0.1583
     30 C           5.0358   -0.6923   19.8882 C.ar    1  UNL1        0.1335
     31 N           5.6074   -1.2779   18.6311 N.ar    1  UNL1       -0.2378
     32 C           5.1933   -2.6494   18.1867 C.ar    1  UNL1        0.1196
     33 C           4.2076   -3.4354   18.9994 C.ar    1  UNL1        0.1210
     34 N           3.6360   -2.8498   20.2565 N.ar    1  UNL1       -0.2255
     35 C           7.7441   -3.3595   24.4391 C.3     1  UNL1        0.1183
     36 C           7.6327   -4.7879   24.8832 C.ar    1  UNL1        0.0712
     37 N           6.9772   -5.1176   26.1915 N.ar    1  UNL1       -0.2471
     38 C           6.8658   -6.5461   26.6355 C.ar    1  UNL1        0.0985
     39 C           7.4099   -7.6448   25.7712 C.ar    1  UNL1        0.0203
     40 C           8.0653   -7.3150   24.4629 C.ar    1  UNL1       -0.0015
     41 C           8.1768   -5.8866   24.0189 C.ar    1  UNL1       -0.0069
     42 C           8.8322   -5.5568   22.7106 C.3     1  UNL1        0.0323
@<TRIPOS>UNITY_ATOM_ATTR
27 1
charge -1
@<TRIPOS>BOND
     1    19    20    1
     2    20    21   ar
     3    21    22   ar
     4    22    26    1
     5    26    27   ar
     6    26    28   ar
     7    22    23   ar
     8    23    24   ar
     9    24    25   ar
    10    25    13    1
    11    13    14   ar
    12    14    15   ar
    13    15    16   ar
    14    16     1    1
    15     1     2   am
    16     2     3    2
    17     2     4   am
    18     4    29    1
    19    29    30   ar
    20    30    31   ar
    21    31    32   ar
    22    32    33   ar
    23    33    34   ar
    24     4     5    1
    25     5     6    1
    26     6     7    1
    27     7     8    1
    28     8    35    1
    29    35    36    1
    30    36    37   ar
    31    37    38   ar
    32    38    39   ar
    33    39    40   ar
    34    40    41   ar
    35    41    42    1
    36     8     9    1
    37     9    10    1
    38     5    11    1
    39    11    12    2
    40    16    17   ar
    41    17    18   ar
    42    25    20   ar
    43    18    13   ar
    44    11     1   am
    45    34    29   ar
    46    10     5    1
    47    41    36   ar
@<TRIPOS>MOLECULE
*****
 42 47 0 0 0
SMALL
GASTEIGER

@<TRIPOS>ATOM
      1 N           2.5216    2.1702   30.0660 N.am    1  UNL1       -0.1907
      2 C           1.5817    3.3379   30.1219 C.2     1  UNL1        0.3220
      3 O           0.8252    3.9170   28.9634 O.2     1  UNL1       -0.2512
      4 N           1.5311    3.8248   31.5398 N.am    1  UNL1       -0.2212
      5 C           2.4398    2.9580   32.3603 C.3     1  UNL1        0.1391
      6 C           3.3799    2.0131   33.0482 C.3     1  UNL1        0.0449
      7 C           3.6321    2.1457   34.5209 C.3     1  UNL1        0.0746
      8 N           2.9442    3.2232   35.3056 N.3     1  UNL1       -0.2676
      9 C           2.0041    4.1681   34.6177 C.3     1  UNL1        0.0746
     10 C           1.7519    4.0355   33.1450 C.3     1  UNL1        0.0449
     11 C           3.0520    1.9355   31.4494 C.2     1  UNL1        0.2529
     12 O           4.0238    0.8659   31.8514 O.2     1  UNL1       -0.2724
     13 C           3.5669   -0.2104   26.3932 C.ar    1  UNL1       -0.0002
     14 C           2.8450   -0.8671   27.5324 C.ar    1  UNL1        0.0013
     15 C           2.4966   -0.0736   28.7566 C.ar    1  UNL1        0.0154
     16 C           2.8701    1.3767   28.8417 C.ar    1  UNL1        0.0622
     17 C           3.5919    2.0333   27.7027 C.ar    1  UNL1        0.0154
     18 C           3.9403    1.2398   26.4784 C.ar    1  UNL1        0.0013
     19 C           2.0949    0.2717   23.8239 C.3     1  UNL1        0.0310
     20 C           3.1793   -0.7629   23.8844 C.ar    1  UNL1       -0.0218
     21 C           3.5277   -1.5565   22.6600 C.ar    1  UNL1       -0.0031
     22 C           4.6122   -2.5911   22.7203 C.ar    1  UNL1        0.0137
     23 C           5.3482   -2.8322   24.0050 C.ar    1  UNL1        0.0011
     24 C           4.9997   -2.0386   25.2293 C.ar    1  UNL1       -0.0003
     25 C           3.9153   -1.0040   25.1690 C.ar    1  UNL1       -0.0040
     26 C           4.9606   -3.3847   21.4961 C.2     1  UNL1        0.0729
     27 O           6.1443   -4.3059   21.5112 O.co2   1  UNL1       -0.5446
     28 O           4.1253   -3.2570   20.2567 O.co2   1  UNL1       -0.5446
     29 C           0.7152    4.9762   32.0481 C.ar    1  UNL1        0.1583
     30 C           1.2299    6.3785   31.9113 C.ar    1  UNL1        0.1335
     31 N           0.4139    7.5299   32.4196 N.ar    1  UNL1       -0.2378
     32 C          -0.9169    7.2791   33.0647 C.ar    1  UNL1        0.1196
     33 C          -1.4316    5.8768   33.2015 C.ar    1  UNL1        0.1210
     34 N          -0.6156    4.7255   32.6932 N.ar    1  UNL1       -0.2255
     35 C           3.1965    3.3557   36.7783 C.3     1  UNL1        0.1183
     36 C           2.3755    2.5657   37.7540 C.ar    1  UNL1        0.0712
     37 N           1.0615    3.1041   38.2373 N.ar    1  UNL1       -0.2471
     38 C           0.2405    2.3141   39.2130 C.ar    1  UNL1        0.0985
     39 C           0.7334    0.9857   39.7052 C.ar    1  UNL1        0.0203
     40 C           2.0474    0.4473   39.2218 C.ar    1  UNL1       -0.0015
     41 C           2.8684    1.2372   38.2462 C.ar    1  UNL1       -0.0069
     42 C           4.1823    0.6988   37.7629 C.3     1  UNL1        0.0323
@<TRIPOS>UNITY_ATOM_ATTR
27 1
charge -1
@<TRIPOS>BOND
     1    19    20    1
     2    20    21   ar
     3    21    22   ar
     4    22    26    1
     5    26    27   ar
     6    26    28   ar
     7    22    23   ar
     8    23    24   ar
     9    24    25   ar
    10    25    13    1
    11    13    14   ar
    12    14    15   ar
    13    15    16   ar
    14    16     1    1
    15     1     2   am
    16     2     3    2
    17     2     4   am
    18     4    29    1
    19    29    30   ar
    20    30    31   ar
    21    31    32   ar
    22    32    33   ar
    23    33    34   ar
    24     4     5    1
    25     5     6    1
    26     6     7    1
    27     7     8    1
    28     8    35    1
    29    35    36    1
    30    36    37   ar
    31    37    38   ar
    32    38    39   ar
    33    39    40   ar
    34    40    41   ar
    35    41    42    1
    36     8     9    1
    37     9    10    1
    38     5    11    1
    39    11    12    2
    40    16    17   ar
    41    17    18   ar
    42    25    20   ar
    43    18    13   ar
    44    11     1   am
    45    34    29   ar
    46    10     5    1
    47    41    36   ar
@<TRIPOS>MOLECULE
*****
 42 47 0 0 0
SMALL
GASTEIGER

@<TRIPOS>ATOM
      1 N           4.9093   -1.0997   27.9628 N.am    1  UNL1       -0.1907
      2 C           6.0564   -2.0072   27.6299 C.2     1  UNL1        0.3220
      3 O           7.0828   -2.5213   28.5952 O.2     1  UNL1       -0.2512
      4 N           5.9967   -2.3101   26.1620 N.am    1  UNL1       -0.2212
      5 C           4.8128   -1.5899   25.5877 C.3     1  UNL1        0.1391
      6 C           3.6018   -0.8160   25.1584 C.3     1  UNL1        0.0449
      7 C           3.1664   -0.8397   23.7232 C.3     1  UNL1        0.0746
      8 N           3.9421   -1.6374   22.7173 N.3     1  UNL1       -0.2676
      9 C           5.1531   -2.4114   23.1465 C.3     1  UNL1        0.0746
     10 C           5.5885   -2.3877   24.5817 C.3     1  UNL1        0.0449
     11 C           4.1407   -0.8419   26.7007 C.2     1  UNL1        0.2529
     12 O           2.9153    0.0138   26.5738 O.2     1  UNL1       -0.2724
     13 C           3.9433    0.5580   32.0333 C.ar    1  UNL1       -0.0002
     14 C           5.2500    0.8936   31.3775 C.ar    1  UNL1        0.0013
     15 C           5.5719    0.3411   30.0207 C.ar    1  UNL1        0.0154
     16 C           4.5873   -0.5472   29.3197 C.ar    1  UNL1        0.0622
     17 C           3.2807   -0.8828   29.9754 C.ar    1  UNL1        0.0154
     18 C           2.9587   -0.3302   31.3322 C.ar    1  UNL1        0.0013
     19 C           5.2316   -0.6157   34.4753 C.3     1  UNL1        0.0310
     20 C           4.2655    0.5237   34.6111 C.ar    1  UNL1       -0.0218
     21 C           3.9435    1.0763   35.9680 C.ar    1  UNL1       -0.0031
     22 C           2.9773    2.2156   36.1038 C.ar    1  UNL1        0.0137
     23 C           2.3332    2.8024   34.8828 C.ar    1  UNL1        0.0011
     24 C           2.6552    2.2499   33.5260 C.ar    1  UNL1       -0.0003
     25 C           3.6213    1.1105   33.3901 C.ar    1  UNL1       -0.0040
     26 C           2.6554    2.7682   37.4607 C.2     1  UNL1        0.0729
     27 O           3.7369    2.9043   38.4910 O.co2   1  UNL1       -0.5446
     28 O           1.2518    3.1846   37.7871 O.co2   1  UNL1       -0.5446
     29 C           6.9531   -3.1804   25.4018 C.ar    1  UNL1        0.1583
     30 C           8.1853   -2.5838   24.7889 C.ar    1  UNL1        0.1335
     31 N           9.1416   -3.4542   24.0287 N.ar    1  UNL1       -0.2378
     32 C           8.8657   -4.9213   23.8813 C.ar    1  UNL1        0.1196
     33 C           7.6335   -5.5179   24.4942 C.ar    1  UNL1        0.1210
     34 N           6.6772   -4.6475   25.2544 N.ar    1  UNL1       -0.2255
     35 C           3.5067   -1.6611   21.2820 C.3     1  UNL1        0.1183
     36 C           4.5314   -1.7228   20.1883 C.ar    1  UNL1        0.0712
     37 N           5.5169   -0.6046   20.0200 N.ar    1  UNL1       -0.2471
     38 C           6.5416   -0.6663   18.9263 C.ar    1  UNL1        0.0985
     39 C           6.5808   -1.8462   18.0009 C.ar    1  UNL1        0.0203
     40 C           5.5952   -2.9644   18.1692 C.ar    1  UNL1       -0.0015
     41 C           4.5705   -2.9027   19.2629 C.ar    1  UNL1       -0.0069
     42 C           3.5850   -4.0209   19.4312 C.3     1  UNL1        0.0323
@<TRIPOS>UNITY_ATOM_ATTR
27 1
charge -1
@<TRIPOS>BOND
     1    19    20    1
     2    20    21   ar
     3    21    22   ar
     4    22    26    1
     5    26    27   ar
     6    26    28   ar
     7    22    23   ar
     8    23    24   ar
     9    24    25   ar
    10    25    13    1
    11    13    14   ar
    12    14    15   ar
    13    15    16   ar
    14    16     1    1
    15     1     2   am
    16     2     3    2
    17     2     4   am
    18     4    29    1
    19    29    30   ar
    20    30    31   ar
    21    31    32   ar
    22    32    33   ar
    23    33    34   ar
    24     4     5    1
    25     5     6    1
    26     6     7    1
    27     7     8    1
    28     8    35    1
    29    35    36    1
    30    36    37   ar
    31    37    38   ar
    32    38    39   ar
    33    39    40   ar
    34    40    41   ar
    35    41    42    1
    36     8     9    1
    37     9    10    1
    38     5    11    1
    39    11    12    2
    40    16    17   ar
    41    17    18   ar
    42    25    20   ar
    43    18    13   ar
    44    11     1   am
    45    34    29   ar
    46    10     5    1
    47    41    36   ar
@<TRIPOS>MOLECULE
*****
 42 47 0 0 0
SMALL
GASTEIGER

@<TRIPOS>ATOM
      1 N           1.9454    0.8170   28.8897 N.am    1  UNL1       -0.1907
      2 C           2.1845    0.7467   30.3689 C.2     1  UNL1        0.3220
      3 O           1.3203    1.3577   31.4316 O.2     1  UNL1       -0.2512
      4 N           3.4396   -0.0419   30.5986 N.am    1  UNL1       -0.2212
      5 C           3.9763   -0.4591   29.2613 C.3     1  UNL1        0.1391
      6 C           4.3902   -0.8014   27.8608 C.3     1  UNL1        0.0449
      7 C           5.6322   -1.6077   27.6218 C.3     1  UNL1        0.0746
      8 N           6.4603   -2.0718   28.7833 N.3     1  UNL1       -0.2676
      9 C           6.0463   -1.7295   30.1838 C.3     1  UNL1        0.0746
     10 C           4.8043   -0.9231   30.4228 C.3     1  UNL1        0.0449
     11 C           3.0528    0.0718   28.2052 C.2     1  UNL1        0.2529
     12 O           3.2092   -0.1105   26.7246 O.2     1  UNL1       -0.2724
     13 C          -1.4906    2.8981   26.8616 C.ar    1  UNL1       -0.0002
     14 C          -1.6871    1.5382   27.4635 C.ar    1  UNL1        0.0013
     15 C          -0.5418    0.8446   28.1395 C.ar    1  UNL1        0.0154
     16 C           0.8001    1.5107   28.2136 C.ar    1  UNL1        0.0622
     17 C           0.9966    2.8705   27.6118 C.ar    1  UNL1        0.0154
     18 C          -0.1487    3.5641   26.9358 C.ar    1  UNL1        0.0013
     19 C          -1.4485    3.3162   23.8911 C.3     1  UNL1        0.0310
     20 C          -2.6148    3.8008   24.7004 C.ar    1  UNL1       -0.0218
     21 C          -3.7602    4.4945   24.0243 C.ar    1  UNL1       -0.0031
     22 C          -4.9266    4.9792   24.8335 C.ar    1  UNL1        0.0137
     23 C          -4.9475    4.7701   26.3188 C.ar    1  UNL1        0.0011
     24 C          -3.8022    4.0764   26.9948 C.ar    1  UNL1       -0.0003
     25 C          -2.6359    3.5918   26.1856 C.ar    1  UNL1       -0.0040
     26 C          -6.0719    5.6728   24.1575 C.2     1  UNL1        0.0729
     27 O          -7.2982    4.8979   23.7758 O.co2   1  UNL1       -0.5446
     28 O          -5.9909    7.1415   23.8632 O.co2   1  UNL1       -0.5446
     29 C           4.0508   -0.3580   31.9314 C.ar    1  UNL1        0.1583
     30 C           4.9950    0.6149   32.5732 C.ar    1  UNL1        0.1335
     31 N           5.6062    0.2987   33.9061 N.ar    1  UNL1       -0.2378
     32 C           5.2732   -0.9903   34.5972 C.ar    1  UNL1        0.1196
     33 C           4.3289   -1.9631   33.9554 C.ar    1  UNL1        0.1210
     34 N           3.7178   -1.6470   32.6225 N.ar    1  UNL1       -0.2255
     35 C           7.7023   -2.8782   28.5442 C.3     1  UNL1        0.1183
     36 C           7.6727   -4.0365   27.5917 C.ar    1  UNL1        0.0712
     37 N           8.0644   -3.8383   26.1573 N.ar    1  UNL1       -0.2471
     38 C           8.0347   -4.9968   25.2048 C.ar    1  UNL1        0.0985
     39 C           7.6134   -6.3533   25.6867 C.ar    1  UNL1        0.0203
     40 C           7.2217   -6.5515   27.1210 C.ar    1  UNL1       -0.0015
     41 C           7.2513   -5.3932   28.0735 C.ar    1  UNL1       -0.0069
     42 C           6.8597   -5.5914   29.5078 C.3     1  UNL1        0.0323
@<TRIPOS>UNITY_ATOM_ATTR
27 1
charge -1
@<TRIPOS>BOND
     1    19    20    1
     2    20    21   ar
     3    21    22   ar
     4    22    26    1
     5    26    27   ar
     6    26    28   ar
     7    22    23   ar
     8    23    24   ar
     9    24    25   ar
    10    25    13    1
    11    13    14   ar
    12    14    15   ar
    13    15    16   ar
    14    16     1    1
    15     1     2   am
    16     2     3    2
    17     2     4   am
    18     4    29    1
    19    29    30   ar
    20    30    31   ar
    21    31    32   ar
    22    32    33   ar
    23    33    34   ar
    24     4     5    1
    25     5     6    1
    26     6     7    1
    27     7     8    1
    28     8    35    1
    29    35    36    1
    30    36    37   ar
    31    37    38   ar
    32    38    39   ar
    33    39    40   ar
    34    40    41   ar
    35    41    42    1
    36     8     9    1
    37     9    10    1
    38     5    11    1
    39    11    12    2
    40    16    17   ar
    41    17    18   ar
    42    25    20   ar
    43    18    13   ar
    44    11     1   am
    45    34    29   ar
    46    10     5    1
    47    41    36   ar
@<TRIPOS>MOLECULE
*****
 42 47 0 0 0
SMALL
GASTEIGER

@<TRIPOS>ATOM
      1 N           2.4683    1.0920   26.3273 N.am    1  UNL1       -0.1907
      2 C           1.7088    2.2356   25.7227 C.2     1  UNL1        0.3220
      3 O           1.1679    3.4235   26.4618 O.2     1  UNL1       -0.2512
      4 N           1.5851    1.9826   24.2494 N.am    1  UNL1       -0.2212
      5 C           2.2681    0.6826   23.9433 C.3     1  UNL1        0.1391
      6 C           2.9842   -0.6265   23.7905 C.3     1  UNL1        0.0449
      7 C           3.1009   -1.2640   22.4377 C.3     1  UNL1        0.0746
      8 N           2.5015   -0.5924   21.2379 N.3     1  UNL1       -0.2676
      9 C           1.7854    0.7167   21.3907 C.3     1  UNL1        0.0746
     10 C           1.6687    1.3542   22.7434 C.3     1  UNL1        0.0449
     11 C           2.8140    0.1322   25.2275 C.2     1  UNL1        0.2529
     12 O           3.5724   -1.1524   25.3844 O.2     1  UNL1       -0.2724
     13 C           3.5243    0.6229   30.6763 C.ar    1  UNL1       -0.0002
     14 C           4.3608    1.4991   29.7917 C.ar    1  UNL1        0.0013
     15 C           4.0088    1.6555   28.3420 C.ar    1  UNL1        0.0154
     16 C           2.8203    0.9356   27.7770 C.ar    1  UNL1        0.0622
     17 C           1.9839    0.0594   28.6615 C.ar    1  UNL1        0.0154
     18 C           2.3359   -0.0969   30.1112 C.ar    1  UNL1        0.0013
     19 C           5.2546   -1.6624   31.5618 C.3     1  UNL1        0.0310
     20 C           4.7414   -0.6761   32.5687 C.ar    1  UNL1       -0.0218
     21 C           5.0934   -0.8325   34.0185 C.ar    1  UNL1       -0.0031
     22 C           4.5803    0.1537   35.0255 C.ar    1  UNL1        0.0137
     23 C           3.7152    1.2964   34.5827 C.ar    1  UNL1        0.0011
     24 C           3.3632    1.4528   33.1330 C.ar    1  UNL1       -0.0003
     25 C           3.8763    0.4665   32.1260 C.ar    1  UNL1       -0.0040
     26 C           4.9323   -0.0027   36.4752 C.2     1  UNL1        0.0729
     27 O           6.2461   -0.6116   36.8665 O.co2   1  UNL1       -0.5446
     28 O           3.9705    0.4499   37.5336 O.co2   1  UNL1       -0.5446
     29 C           0.8988    2.8731   23.2565 C.ar    1  UNL1        0.1583
     30 C           1.6685    3.9597   22.5660 C.ar    1  UNL1        0.1335
     31 N           0.9822    4.8502   21.5730 N.ar    1  UNL1       -0.2378
     32 C          -0.4738    4.6542   21.2705 C.ar    1  UNL1        0.1196
     33 C          -1.2436    3.5675   21.9610 C.ar    1  UNL1        0.1210
     34 N          -0.5572    2.6771   22.9539 N.ar    1  UNL1       -0.2255
     35 C           2.6182   -1.2300   19.8851 C.3     1  UNL1        0.1183
     36 C           3.9717   -1.5077   19.3011 C.ar    1  UNL1        0.0712
     37 N           4.9387   -0.3824   19.0809 N.ar    1  UNL1       -0.2471
     38 C           6.2922   -0.6601   18.4969 C.ar    1  UNL1        0.0985
     39 C           6.6786   -2.0631   18.1331 C.ar    1  UNL1        0.0203
     40 C           5.7115   -3.1884   18.3532 C.ar    1  UNL1       -0.0015
     41 C           4.3581   -2.9107   18.9372 C.ar    1  UNL1       -0.0069
     42 C           3.3910   -4.0360   19.1574 C.3     1  UNL1        0.0323
@<TRIPOS>UNITY_ATOM_ATTR
27 1
charge -1
@<TRIPOS>BOND
     1    19    20    1
     2    20    21   ar
     3    21    22   ar
     4    22    26    1
     5    26    27   ar
     6    26    28   ar
     7    22    23   ar
     8    23    24   ar
     9    24    25   ar
    10    25    13    1
    11    13    14   ar
    12    14    15   ar
    13    15    16   ar
    14    16     1    1
    15     1     2   am
    16     2     3    2
    17     2     4   am
    18     4    29    1
    19    29    30   ar
    20    30    31   ar
    21    31    32   ar
    22    32    33   ar
    23    33    34   ar
    24     4     5    1
    25     5     6    1
    26     6     7    1
    27     7     8    1
    28     8    35    1
    29    35    36    1
    30    36    37   ar
    31    37    38   ar
    32    38    39   ar
    33    39    40   ar
    34    40    41   ar
    35    41    42    1
    36     8     9    1
    37     9    10    1
    38     5    11    1
    39    11    12    2
    40    16    17   ar
    41    17    18   ar
    42    25    20   ar
    43    18    13   ar
    44    11     1   am
    45    34    29   ar
    46    10     5    1
    47    41    36   ar
@<TRIPOS>MOLECULE
*****
 42 47 0 0 0
SMALL
GASTEIGER

@<TRIPOS>ATOM
      1 N           2.4871    0.8001   25.2538 N.am    1  UNL1       -0.1907
      2 C           1.8799    1.4311   24.0359 C.2     1  UNL1        0.3220
      3 O           1.0158    2.6569   24.0159 O.2     1  UNL1       -0.2512
      4 N           2.2885    0.6208   22.8415 N.am    1  UNL1       -0.2212
      5 C           3.1483   -0.5109   23.3212 C.3     1  UNL1        0.1391
      6 C           3.9876   -1.5858   23.9459 C.3     1  UNL1        0.0449
      7 C           4.6145   -2.6427   23.0857 C.3     1  UNL1        0.0746
      8 N           4.4021   -2.6248   21.6009 N.3     1  UNL1       -0.2676
      9 C           3.5628   -1.5499   20.9763 C.3     1  UNL1        0.0746
     10 C           2.9359   -0.4930   21.8364 C.3     1  UNL1        0.0449
     11 C           3.2710   -0.4001   24.8121 C.2     1  UNL1        0.2529
     12 O           4.0423   -1.3267   25.7046 O.2     1  UNL1       -0.2724
     13 C           2.0363    2.2529   29.4889 C.ar    1  UNL1       -0.0002
     14 C           3.3193    2.4874   28.7481 C.ar    1  UNL1        0.0013
     15 C           3.4696    2.0032   27.3364 C.ar    1  UNL1        0.0154
     16 C           2.3368    1.2844   26.6655 C.ar    1  UNL1        0.0622
     17 C           1.0539    1.0498   27.4063 C.ar    1  UNL1        0.0154
     18 C           0.9036    1.5341   28.8179 C.ar    1  UNL1        0.0013
     19 C           2.8112    0.4726   31.7759 C.3     1  UNL1        0.0310
     20 C           2.2735    1.8470   32.0440 C.ar    1  UNL1       -0.0218
     21 C           2.1232    2.3312   33.4558 C.ar    1  UNL1       -0.0031
     22 C           1.5855    3.7056   33.7240 C.ar    1  UNL1        0.0137
     23 C           1.1980    4.5957   32.5805 C.ar    1  UNL1        0.0011
     24 C           1.3483    4.1115   31.1688 C.ar    1  UNL1       -0.0003
     25 C           1.8860    2.7371   30.9006 C.ar    1  UNL1       -0.0040
     26 C           1.4352    4.1898   35.1357 C.2     1  UNL1        0.0729
     27 O           1.8324    3.3036   36.2789 O.co2   1  UNL1       -0.5446
     28 O           0.8876    5.5603   35.4043 O.co2   1  UNL1       -0.5446
     29 C           1.9047    0.8942   21.4175 C.ar    1  UNL1        0.1583
     30 C           0.6496    0.2991   20.8514 C.ar    1  UNL1        0.1335
     31 N           0.2659    0.5725   19.4273 N.ar    1  UNL1       -0.2378
     32 C           1.1374    1.4410   18.5692 C.ar    1  UNL1        0.1196
     33 C           2.3925    2.0361   19.1353 C.ar    1  UNL1        0.1210
     34 N           2.7762    1.7627   20.5594 N.ar    1  UNL1       -0.2255
     35 C           5.0291   -3.6818   20.7408 C.3     1  UNL1        0.1183
     36 C           6.5226   -3.7814   20.6439 C.ar    1  UNL1        0.0712
     37 N           7.2654   -4.7673   21.4961 N.ar    1  UNL1       -0.2471
     38 C           8.7590   -4.8668   21.3991 C.ar    1  UNL1        0.0985
     39 C           9.5097   -3.9806   20.4500 C.ar    1  UNL1        0.0203
     40 C           8.7669   -2.9947   19.5978 C.ar    1  UNL1       -0.0015
     41 C           7.2734   -2.8951   19.6947 C.ar    1  UNL1       -0.0069
     42 C           6.5306   -1.9092   18.8425 C.3     1  UNL1        0.0323
@<TRIPOS>UNITY_ATOM_ATTR
27 1
charge -1
@<TRIPOS>BOND
     1    19    20    1
     2    20    21   ar
     3    21    22   ar
     4    22    26    1
     5    26    27   ar
     6    26    28   ar
     7    22    23   ar
     8    23    24   ar
     9    24    25   ar
    10    25    13    1
    11    13    14   ar
    12    14    15   ar
    13    15    16   ar
    14    16     1    1
    15     1     2   am
    16     2     3    2
    17     2     4   am
    18     4    29    1
    19    29    30   ar
    20    30    31   ar
    21    31    32   ar
    22    32    33   ar
    23    33    34   ar
    24     4     5    1
    25     5     6    1
    26     6     7    1
    27     7     8    1
    28     8    35    1
    29    35    36    1
    30    36    37   ar
    31    37    38   ar
    32    38    39   ar
    33    39    40   ar
    34    40    41   ar
    35    41    42    1
    36     8     9    1
    37     9    10    1
    38     5    11    1
    39    11    12    2
    40    16    17   ar
    41    17    18   ar
    42    25    20   ar
    43    18    13   ar
    44    11     1   am
    45    34    29   ar
    46    10     5    1
    47    41    36   ar
