@<TRIPOS>MOLECULE
*****
 30 33 0 0 0
SMALL
GASTEIGER

@<TRIPOS>ATOM
      1 O          -9.3577  -18.5939   21.5134 O.2     1  UNL1       -0.2734
      2 C          -7.8983  -18.2663   21.6268 C.2     1  UNL1        0.2420
      3 N          -7.3925  -17.4945   22.8094 N.am    1  UNL1       -0.2760
      4 C          -5.9331  -17.1669   22.9228 C.3     1  UNL1        0.0983
      5 C          -5.4274  -16.3951   24.1053 C.3     1  UNL1        0.0476
      6 C          -6.3810  -15.9508   25.1746 C.ar    1  UNL1       -0.0229
      7 C          -5.8753  -15.1790   26.3572 C.ar    1  UNL1       -0.0045
      8 C          -6.8289  -14.7348   27.4264 C.ar    1  UNL1       -0.0003
      9 C          -8.2883  -15.0624   27.3130 C.ar    1  UNL1       -0.0003
     10 C          -8.7941  -15.8342   26.1304 C.ar    1  UNL1       -0.0030
     11 C          -7.8404  -16.2784   25.0612 C.ar    1  UNL1       -0.0082
     12 C          -8.3462  -17.0503   23.8786 C.3     1  UNL1        0.0975
     13 C          -9.8056  -17.3779   23.7652 C.3     1  UNL1        0.0224
     14 C         -10.7179  -16.4779   22.9855 C.3     1  UNL1        0.0020
     15 C         -12.1773  -16.8055   22.8722 C.3     1  UNL1        0.0001
     16 C         -12.7244  -18.0330   23.5385 C.3     1  UNL1        0.0000
     17 C         -11.8121  -18.9329   24.3181 C.3     1  UNL1        0.0001
     18 C         -10.3527  -18.6053   24.4315 C.3     1  UNL1        0.0020
     19 C          -6.9446  -18.7105   20.5576 C.3     1  UNL1        0.1552
     20 N          -6.1321  -19.9569   20.7480 N.3     1  UNL1       -0.2879
     21 H          -6.6626  -20.7210   20.3297 H       1  UNL1        0.1238
     22 C          -4.7420  -20.0385   20.1902 C.3     1  UNL1        0.0961
     23 C          -3.6365  -19.2368   20.8107 C.3     1  UNL1        0.1027
     24 O          -4.1747  -19.9257   22.0297 O.3     1  UNL1       -0.3854
     25 C          -3.4824  -18.8264   19.3763 C.3     1  UNL1        0.0283
     26 C          -2.4096  -17.8535   18.9857 C.3     1  UNL1        0.0024
     27 C          -1.4909  -17.2910   20.0296 C.3     1  UNL1        0.0002
     28 C          -1.6451  -17.7015   21.4641 C.3     1  UNL1        0.0024
     29 C          -2.7179  -18.6744   21.8547 C.3     1  UNL1        0.0283
     30 H          -4.9172  -20.4965   21.7773 H       1  UNL1        0.2103
@<TRIPOS>BOND
     1     1     2    2
     2     2    19    1
     3    19    20    1
     4    20    22    1
     5    22    23    1
     6    23    24    1
     7    23    25    1
     8    25    26    1
     9    26    27    1
    10    27    28    1
    11    28    29    1
    12     2     3   am
    13     3     4    1
    14     4     5    1
    15     5     6    1
    16     6     7   ar
    17     7     8   ar
    18     8     9   ar
    19     9    10   ar
    20    10    11   ar
    21    11    12    1
    22    12    13    1
    23    13    14    1
    24    14    15    1
    25    15    16    1
    26    16    17    1
    27    17    18    1
    28    29    23    1
    29    12     3    1
    30    18    13    1
    31    11     6   ar
    32    20    21    1
    33    24    30    1
@<TRIPOS>MOLECULE
*****
 30 33 0 0 0
SMALL
GASTEIGER

@<TRIPOS>ATOM
      1 O          -5.8954  -17.7925   23.3895 O.2     1  UNL1       -0.2734
      2 C          -6.4178  -18.5177   22.1848 C.2     1  UNL1        0.2420
      3 N          -7.8444  -18.3342   21.7591 N.am    1  UNL1       -0.2760
      4 C          -8.3668  -19.0593   20.5544 C.3     1  UNL1        0.0983
      5 C          -9.7933  -18.8759   20.1286 C.3     1  UNL1        0.0476
      6 C         -10.6976  -17.9672   20.9076 C.ar    1  UNL1       -0.0229
      7 C         -12.1241  -17.7837   20.4819 C.ar    1  UNL1       -0.0045
      8 C         -13.0283  -16.8751   21.2609 C.ar    1  UNL1       -0.0003
      9 C         -12.5059  -16.1499   22.4656 C.ar    1  UNL1       -0.0003
     10 C         -11.0794  -16.3334   22.8913 C.ar    1  UNL1       -0.0030
     11 C         -10.1752  -17.2420   22.1123 C.ar    1  UNL1       -0.0082
     12 C          -8.7486  -17.4255   22.5380 C.3     1  UNL1        0.0975
     13 C          -8.2262  -16.7004   23.7427 C.3     1  UNL1        0.0224
     14 C          -7.2893  -15.5414   23.5726 C.3     1  UNL1        0.0020
     15 C          -6.7669  -14.8162   24.7773 C.3     1  UNL1        0.0001
     16 C          -7.1815  -15.2501   26.1521 C.3     1  UNL1        0.0000
     17 C          -8.1184  -16.4090   26.3221 C.3     1  UNL1        0.0001
     18 C          -8.6407  -17.1342   25.1174 C.3     1  UNL1        0.0020
     19 C          -5.5136  -19.4263   21.4058 C.3     1  UNL1        0.1552
     20 N          -4.3547  -20.0936   22.0852 N.3     1  UNL1       -0.2879
     21 H          -4.0066  -20.8051   21.4426 H       1  UNL1        0.1238
     22 C          -3.1692  -19.2819   22.5161 C.3     1  UNL1        0.0961
     23 C          -2.1438  -18.8578   21.5067 C.3     1  UNL1        0.1027
     24 O          -2.1117  -20.3435   21.3022 O.3     1  UNL1       -0.3854
     25 C          -2.5320  -17.5195   22.0618 C.3     1  UNL1        0.0283
     26 C          -1.8837  -16.2730   21.5365 C.3     1  UNL1        0.0024
     27 C          -0.8471  -16.3649   20.4561 C.3     1  UNL1        0.0002
     28 C          -0.4589  -17.7032   19.9011 C.3     1  UNL1        0.0024
     29 C          -1.1072  -18.9497   20.4264 C.3     1  UNL1        0.0283
     30 H          -2.7430  -20.7666   21.9050 H       1  UNL1        0.2103
@<TRIPOS>BOND
     1     1     2    2
     2     2    19    1
     3    19    20    1
     4    20    22    1
     5    22    23    1
     6    23    24    1
     7    23    25    1
     8    25    26    1
     9    26    27    1
    10    27    28    1
    11    28    29    1
    12     2     3   am
    13     3     4    1
    14     4     5    1
    15     5     6    1
    16     6     7   ar
    17     7     8   ar
    18     8     9   ar
    19     9    10   ar
    20    10    11   ar
    21    11    12    1
    22    12    13    1
    23    13    14    1
    24    14    15    1
    25    15    16    1
    26    16    17    1
    27    17    18    1
    28    29    23    1
    29    12     3    1
    30    18    13    1
    31    11     6   ar
    32    20    21    1
    33    24    30    1
@<TRIPOS>MOLECULE
*****
 30 33 0 0 0
SMALL
GASTEIGER

@<TRIPOS>ATOM
      1 O         -12.1384   -7.3608   17.2999 O.2     1  UNL1       -0.2734
      2 C         -13.5958   -7.4396   17.6463 C.2     1  UNL1        0.2420
      3 N         -14.3196   -6.2168   18.1269 N.am    1  UNL1       -0.2760
      4 C         -15.7769   -6.2955   18.4733 C.3     1  UNL1        0.0983
      5 C         -16.5007   -5.0728   18.9540 C.3     1  UNL1        0.0476
      6 C         -15.7672   -3.7713   19.0883 C.ar    1  UNL1       -0.0229
      7 C         -16.4910   -2.5486   19.5690 C.ar    1  UNL1       -0.0045
      8 C         -15.7574   -1.2471   19.7033 C.ar    1  UNL1       -0.0003
      9 C         -14.3001   -1.1684   19.3569 C.ar    1  UNL1       -0.0003
     10 C         -13.5763   -2.3911   18.8762 C.ar    1  UNL1       -0.0030
     11 C         -14.3098   -3.6925   18.7419 C.ar    1  UNL1       -0.0082
     12 C         -13.5860   -4.9153   18.2613 C.3     1  UNL1        0.0975
     13 C         -12.1287   -4.8366   17.9149 C.3     1  UNL1        0.0224
     14 C         -11.0924   -5.0796   18.9719 C.3     1  UNL1        0.0020
     15 C          -9.6351   -5.0009   18.6255 C.3     1  UNL1        0.0001
     16 C          -9.2140   -4.6791   17.2222 C.3     1  UNL1        0.0000
     17 C         -10.2503   -4.4360   16.1653 C.3     1  UNL1        0.0001
     18 C         -11.7076   -4.5148   16.5117 C.3     1  UNL1        0.0020
     19 C         -14.3293   -8.7410   17.5119 C.3     1  UNL1        0.1552
     20 N         -14.6469   -9.5524   18.7329 N.3     1  UNL1       -0.2879
     21 H         -14.5458   -8.9299   19.5346 H       1  UNL1        0.1238
     22 C         -15.9860  -10.2152   18.8655 C.3     1  UNL1        0.0961
     23 C         -17.1269   -9.4800   19.5040 C.3     1  UNL1        0.1027
     24 O         -16.0338   -9.1641   20.4815 O.3     1  UNL1       -0.3854
     25 C         -17.8237  -10.0512   18.3049 C.3     1  UNL1        0.0283
     26 C         -19.2818   -9.7775   18.0836 C.3     1  UNL1        0.0024
     27 C         -20.0431   -8.9325   19.0616 C.3     1  UNL1        0.0002
     28 C         -19.3463   -8.3613   20.2608 C.3     1  UNL1        0.0024
     29 C         -17.8882   -8.6350   20.4821 C.3     1  UNL1        0.0283
     30 H         -15.2094   -9.5851   20.1918 H       1  UNL1        0.2103
@<TRIPOS>BOND
     1     1     2    2
     2     2    19    1
     3    19    20    1
     4    20    22    1
     5    22    23    1
     6    23    24    1
     7    23    25    1
     8    25    26    1
     9    26    27    1
    10    27    28    1
    11    28    29    1
    12     2     3   am
    13     3     4    1
    14     4     5    1
    15     5     6    1
    16     6     7   ar
    17     7     8   ar
    18     8     9   ar
    19     9    10   ar
    20    10    11   ar
    21    11    12    1
    22    12    13    1
    23    13    14    1
    24    14    15    1
    25    15    16    1
    26    16    17    1
    27    17    18    1
    28    29    23    1
    29    12     3    1
    30    18    13    1
    31    11     6   ar
    32    20    21    1
    33    24    30    1
@<TRIPOS>MOLECULE
*****
 30 33 0 0 0
SMALL
GASTEIGER

@<TRIPOS>ATOM
      1 O         -13.0823   -6.5027   18.5963 O.2     1  UNL1       -0.2734
      2 C         -14.3911   -5.8868   18.9933 C.2     1  UNL1        0.2420
      3 N         -14.5534   -4.3956   18.9787 N.am    1  UNL1       -0.2760
      4 C         -15.8622   -3.7797   19.3757 C.3     1  UNL1        0.0983
      5 C         -16.0244   -2.2886   19.3612 C.3     1  UNL1        0.0476
      6 C         -14.8778   -1.4133   18.9495 C.ar    1  UNL1       -0.0229
      7 C         -15.0401    0.0778   18.9350 C.ar    1  UNL1       -0.0045
      8 C         -13.8935    0.9529   18.5234 C.ar    1  UNL1       -0.0003
      9 C         -12.5847    0.3370   18.1264 C.ar    1  UNL1       -0.0003
     10 C         -12.4225   -1.1541   18.1409 C.ar    1  UNL1       -0.0030
     11 C         -13.5690   -2.0293   18.5525 C.ar    1  UNL1       -0.0082
     12 C         -13.4068   -3.5205   18.5671 C.3     1  UNL1        0.0975
     13 C         -12.0980   -4.1364   18.1701 C.3     1  UNL1        0.0224
     14 C         -11.0581   -4.4248   19.2120 C.3     1  UNL1        0.0020
     15 C          -9.7493   -5.0407   18.8150 C.3     1  UNL1        0.0001
     16 C          -9.4804   -5.3683   17.3760 C.3     1  UNL1        0.0000
     17 C         -10.5202   -5.0799   16.3342 C.3     1  UNL1        0.0001
     18 C         -11.8290   -4.4639   16.7312 C.3     1  UNL1        0.0020
     19 C         -15.5377   -6.7620   19.4049 C.3     1  UNL1        0.1552
     20 N         -15.3254   -8.2341   19.5990 N.3     1  UNL1       -0.2879
     21 H         -14.5345   -8.3362   20.2349 H       1  UNL1        0.1238
     22 C         -16.4329   -9.0860   20.1449 C.3     1  UNL1        0.0961
     23 C         -17.4440   -9.6882   19.2149 C.3     1  UNL1        0.1027
     24 O         -16.1925  -10.3243   18.6863 O.3     1  UNL1       -0.3854
     25 C         -18.3442   -8.8430   20.0664 C.3     1  UNL1        0.0283
     26 C         -19.8210   -8.8209   19.8044 C.3     1  UNL1        0.0024
     27 C         -20.3975   -9.6441   18.6908 C.3     1  UNL1        0.0002
     28 C         -19.4972  -10.4893   17.8392 C.3     1  UNL1        0.0024
     29 C         -18.0205  -10.5114   18.1013 C.3     1  UNL1        0.0283
     30 H         -15.4313  -10.0202   19.2050 H       1  UNL1        0.2103
@<TRIPOS>BOND
     1     1     2    2
     2     2    19    1
     3    19    20    1
     4    20    22    1
     5    22    23    1
     6    23    24    1
     7    23    25    1
     8    25    26    1
     9    26    27    1
    10    27    28    1
    11    28    29    1
    12     2     3   am
    13     3     4    1
    14     4     5    1
    15     5     6    1
    16     6     7   ar
    17     7     8   ar
    18     8     9   ar
    19     9    10   ar
    20    10    11   ar
    21    11    12    1
    22    12    13    1
    23    13    14    1
    24    14    15    1
    25    15    16    1
    26    16    17    1
    27    17    18    1
    28    29    23    1
    29    12     3    1
    30    18    13    1
    31    11     6   ar
    32    20    21    1
    33    24    30    1
@<TRIPOS>MOLECULE
*****
 30 33 0 0 0
SMALL
GASTEIGER

@<TRIPOS>ATOM
      1 O         -13.4366   -6.0682   19.4152 O.2     1  UNL1       -0.2734
      2 C         -14.3668   -4.9106   19.6265 C.2     1  UNL1        0.2420
      3 N         -13.9759   -3.5395   19.1601 N.am    1  UNL1       -0.2760
      4 C         -14.9061   -2.3819   19.3714 C.3     1  UNL1        0.0983
      5 C         -14.5153   -1.0109   18.9050 C.3     1  UNL1        0.0476
      6 C         -13.1942   -0.7975   18.2273 C.ar    1  UNL1       -0.0229
      7 C         -12.8033    0.5735   17.7610 C.ar    1  UNL1       -0.0045
      8 C         -11.4823    0.7869   17.0833 C.ar    1  UNL1       -0.0003
      9 C         -10.5521   -0.3707   16.8720 C.ar    1  UNL1       -0.0003
     10 C         -10.9429   -1.7417   17.3384 C.ar    1  UNL1       -0.0030
     11 C         -12.2640   -1.9551   18.0160 C.ar    1  UNL1       -0.0082
     12 C         -12.6549   -3.3262   18.4824 C.3     1  UNL1        0.0975
     13 C         -11.7247   -4.4838   18.2711 C.3     1  UNL1        0.0224
     14 C         -11.9062   -5.3852   17.0859 C.3     1  UNL1        0.0020
     15 C         -10.9760   -6.5428   16.8746 C.3     1  UNL1        0.0001
     16 C          -9.8643   -6.7990   17.8485 C.3     1  UNL1        0.0000
     17 C          -9.6827   -5.8977   19.0336 C.3     1  UNL1        0.0001
     18 C         -10.6129   -4.7400   19.2449 C.3     1  UNL1        0.0020
     19 C         -15.6878   -5.1240   20.3042 C.3     1  UNL1        0.1552
     20 N         -16.8112   -5.7884   19.5650 N.3     1  UNL1       -0.2879
     21 H         -17.5439   -5.0879   19.4513 H       1  UNL1        0.1238
     22 C         -16.5685   -6.3849   18.2102 C.3     1  UNL1        0.0961
     23 C         -16.1875   -7.8302   18.0844 C.3     1  UNL1        0.1027
     24 O         -15.1035   -7.2023   17.2592 O.3     1  UNL1       -0.3854
     25 C         -17.4037   -7.9561   18.9532 C.3     1  UNL1        0.0283
     26 C         -17.8625   -9.3092   19.4097 C.3     1  UNL1        0.0024
     27 C         -17.1051  -10.5365   18.9973 C.3     1  UNL1        0.0002
     28 C         -15.8889  -10.4107   18.1285 C.3     1  UNL1        0.0024
     29 C         -15.4300   -9.0575   17.6720 C.3     1  UNL1        0.0283
     30 H         -15.2223   -6.2397   17.2479 H       1  UNL1        0.2103
@<TRIPOS>BOND
     1     1     2    2
     2     2    19    1
     3    19    20    1
     4    20    22    1
     5    22    23    1
     6    23    24    1
     7    23    25    1
     8    25    26    1
     9    26    27    1
    10    27    28    1
    11    28    29    1
    12     2     3   am
    13     3     4    1
    14     4     5    1
    15     5     6    1
    16     6     7   ar
    17     7     8   ar
    18     8     9   ar
    19     9    10   ar
    20    10    11   ar
    21    11    12    1
    22    12    13    1
    23    13    14    1
    24    14    15    1
    25    15    16    1
    26    16    17    1
    27    17    18    1
    28    29    23    1
    29    12     3    1
    30    18    13    1
    31    11     6   ar
    32    20    21    1
    33    24    30    1
@<TRIPOS>MOLECULE
*****
 30 33 0 0 0
SMALL
GASTEIGER

@<TRIPOS>ATOM
      1 O         -13.9538   -8.2736   18.6318 O.2     1  UNL1       -0.2734
      2 C         -13.4650   -6.8878   18.9327 C.2     1  UNL1        0.2420
      3 N         -14.4481   -5.7901   19.2132 N.am    1  UNL1       -0.2760
      4 C         -13.9593   -4.4043   19.5141 C.3     1  UNL1        0.0983
      5 C         -14.9424   -3.3067   19.7946 C.3     1  UNL1        0.0476
      6 C         -16.4144   -3.5948   19.7742 C.ar    1  UNL1       -0.0229
      7 C         -17.3974   -2.4972   20.0546 C.ar    1  UNL1       -0.0045
      8 C         -18.8693   -2.7854   20.0342 C.ar    1  UNL1       -0.0003
      9 C         -19.3581   -4.1712   19.7333 C.ar    1  UNL1       -0.0003
     10 C         -18.3751   -5.2689   19.4529 C.ar    1  UNL1       -0.0030
     11 C         -16.9032   -4.9807   19.4733 C.ar    1  UNL1       -0.0082
     12 C         -15.9200   -6.0783   19.1928 C.3     1  UNL1        0.0975
     13 C         -16.4088   -7.4642   18.8919 C.3     1  UNL1        0.0224
     14 C         -16.5552   -8.4649   19.9998 C.3     1  UNL1        0.0020
     15 C         -17.0440   -9.8507   19.6989 C.3     1  UNL1        0.0001
     16 C         -17.3864  -10.2358   18.2901 C.3     1  UNL1        0.0000
     17 C         -17.2401   -9.2352   17.1824 C.3     1  UNL1        0.0001
     18 C         -16.7513   -7.8493   17.4832 C.3     1  UNL1        0.0020
     19 C         -11.9931   -6.5996   18.9532 C.3     1  UNL1        0.1552
     20 N         -11.3120   -6.0875   17.7188 N.3     1  UNL1       -0.2879
     21 H         -12.0471   -5.7686   17.0877 H       1  UNL1        0.1238
     22 C         -10.3146   -4.9717   17.8206 C.3     1  UNL1        0.0961
     23 C         -10.7737   -3.5835   18.1552 C.3     1  UNL1        0.1027
     24 O          -9.7935   -3.8089   19.2681 O.3     1  UNL1       -0.3854
     25 C         -11.5945   -3.8402   16.9262 C.3     1  UNL1        0.0283
     26 C         -12.5340   -2.7870   16.4182 C.3     1  UNL1        0.0024
     27 C         -12.6527   -1.4770   17.1393 C.3     1  UNL1        0.0002
     28 C         -11.8320   -1.2203   18.3683 C.3     1  UNL1        0.0024
     29 C         -10.8925   -2.2735   18.8763 C.3     1  UNL1        0.0283
     30 H          -9.4033   -4.6927   19.1812 H       1  UNL1        0.2103
@<TRIPOS>BOND
     1     1     2    2
     2     2    19    1
     3    19    20    1
     4    20    22    1
     5    22    23    1
     6    23    24    1
     7    23    25    1
     8    25    26    1
     9    26    27    1
    10    27    28    1
    11    28    29    1
    12     2     3   am
    13     3     4    1
    14     4     5    1
    15     5     6    1
    16     6     7   ar
    17     7     8   ar
    18     8     9   ar
    19     9    10   ar
    20    10    11   ar
    21    11    12    1
    22    12    13    1
    23    13    14    1
    24    14    15    1
    25    15    16    1
    26    16    17    1
    27    17    18    1
    28    29    23    1
    29    12     3    1
    30    18    13    1
    31    11     6   ar
    32    20    21    1
    33    24    30    1
@<TRIPOS>MOLECULE
*****
 30 33 0 0 0
SMALL
GASTEIGER

@<TRIPOS>ATOM
      1 O           6.2914   -4.3616   22.2379 O.2     1  UNL1       -0.2734
      2 C           6.0419   -3.6352   23.5264 C.2     1  UNL1        0.2420
      3 N           4.9978   -2.5602   23.5913 N.am    1  UNL1       -0.2760
      4 C           4.7482   -1.8338   24.8797 C.3     1  UNL1        0.0983
      5 C           3.7042   -0.7588   24.9447 C.3     1  UNL1        0.0476
      6 C           2.9096   -0.4101   23.7211 C.ar    1  UNL1       -0.0229
      7 C           1.8656    0.6649   23.7860 C.ar    1  UNL1       -0.0045
      8 C           1.0711    1.0136   22.5625 C.ar    1  UNL1       -0.0003
      9 C           1.3206    0.2873   21.2740 C.ar    1  UNL1       -0.0003
     10 C           2.3646   -0.7877   21.2090 C.ar    1  UNL1       -0.0030
     11 C           3.1591   -1.1364   22.4326 C.ar    1  UNL1       -0.0082
     12 C           4.2033   -2.2115   22.3677 C.3     1  UNL1        0.0975
     13 C           4.4528   -2.9378   21.0792 C.3     1  UNL1        0.0224
     14 C           3.7315   -4.2208   20.7896 C.3     1  UNL1        0.0020
     15 C           3.9810   -4.9471   19.5011 C.3     1  UNL1        0.0001
     16 C           4.9519   -4.3904   18.5023 C.3     1  UNL1        0.0000
     17 C           5.6731   -3.1075   18.7919 C.3     1  UNL1        0.0001
     18 C           5.4236   -2.3812   20.0804 C.3     1  UNL1        0.0020
     19 C           6.8364   -3.9839   24.7499 C.3     1  UNL1        0.1552
     20 N           6.1959   -4.7559   25.8652 N.3     1  UNL1       -0.2879
     21 H           5.4335   -5.2927   25.4518 H       1  UNL1        0.1238
     22 C           7.0121   -5.7176   26.6770 C.3     1  UNL1        0.0961
     23 C           7.0659   -5.5815   28.1698 C.3     1  UNL1        0.1027
     24 O           5.5900   -5.7691   27.9784 O.3     1  UNL1       -0.3854
     25 C           8.5231   -5.4413   27.8428 C.3     1  UNL1        0.0283
     26 C           9.5215   -5.2301   28.9421 C.3     1  UNL1        0.0024
     27 C           9.0628   -5.1592   30.3685 C.3     1  UNL1        0.0002
     28 C           7.6057   -5.2995   30.6955 C.3     1  UNL1        0.0024
     29 C           6.6072   -5.5106   29.5963 C.3     1  UNL1        0.0283
     30 H           5.3972   -5.8736   27.0335 H       1  UNL1        0.2103
@<TRIPOS>BOND
     1     1     2    2
     2     2    19    1
     3    19    20    1
     4    20    22    1
     5    22    23    1
     6    23    24    1
     7    23    25    1
     8    25    26    1
     9    26    27    1
    10    27    28    1
    11    28    29    1
    12     2     3   am
    13     3     4    1
    14     4     5    1
    15     5     6    1
    16     6     7   ar
    17     7     8   ar
    18     8     9   ar
    19     9    10   ar
    20    10    11   ar
    21    11    12    1
    22    12    13    1
    23    13    14    1
    24    14    15    1
    25    15    16    1
    26    16    17    1
    27    17    18    1
    28    29    23    1
    29    12     3    1
    30    18    13    1
    31    11     6   ar
    32    20    21    1
    33    24    30    1
@<TRIPOS>MOLECULE
*****
 30 33 0 0 0
SMALL
GASTEIGER

@<TRIPOS>ATOM
      1 O         -13.9728   -5.7373   19.8188 O.2     1  UNL1       -0.2734
      2 C         -14.1957   -4.2654   19.6347 C.2     1  UNL1        0.2420
      3 N         -15.3897   -3.7778   18.8687 N.am    1  UNL1       -0.2760
      4 C         -15.6126   -2.3059   18.6846 C.3     1  UNL1        0.0983
      5 C         -16.8065   -1.8182   17.9185 C.3     1  UNL1        0.0476
      6 C         -17.7774   -2.8024   17.3365 C.ar    1  UNL1       -0.0229
      7 C         -18.9713   -2.3147   16.5705 C.ar    1  UNL1       -0.0045
      8 C         -19.9422   -3.2989   15.9886 C.ar    1  UNL1       -0.0003
      9 C         -19.7192   -4.7708   16.1726 C.ar    1  UNL1       -0.0003
     10 C         -18.5254   -5.2585   16.9387 C.ar    1  UNL1       -0.0030
     11 C         -17.5545   -4.2743   17.5206 C.ar    1  UNL1       -0.0082
     12 C         -16.3606   -4.7620   18.2867 C.3     1  UNL1        0.0975
     13 C         -16.1376   -6.2338   18.4708 C.3     1  UNL1        0.0224
     14 C         -16.7632   -6.9477   19.6323 C.3     1  UNL1        0.0020
     15 C         -16.5403   -8.4195   19.8164 C.3     1  UNL1        0.0001
     16 C         -15.6917   -9.1776   18.8389 C.3     1  UNL1        0.0000
     17 C         -15.0661   -8.4637   17.6775 C.3     1  UNL1        0.0001
     18 C         -15.2891   -6.9919   17.4934 C.3     1  UNL1        0.0020
     19 C         -13.2249   -3.2813   20.2167 C.3     1  UNL1        0.1552
     20 N         -11.8749   -3.0988   19.5889 N.3     1  UNL1       -0.2879
     21 H         -11.1842   -3.3029   20.3112 H       1  UNL1        0.1238
     22 C         -11.4927   -3.9064   18.3839 C.3     1  UNL1        0.0961
     23 C         -10.6563   -5.1413   18.5431 C.3     1  UNL1        0.1027
     24 O          -9.9439   -4.2204   19.4890 O.3     1  UNL1       -0.3854
     25 C         -11.6591   -5.6331   17.5420 C.3     1  UNL1        0.0283
     26 C         -11.5781   -7.0402   17.0285 C.3     1  UNL1        0.0024
     27 C         -10.4942   -7.9553   17.5162 C.3     1  UNL1        0.0002
     28 C          -9.4914   -7.4634   18.5173 C.3     1  UNL1        0.0024
     29 C          -9.5724   -6.0564   19.0308 C.3     1  UNL1        0.0283
     30 H         -10.3848   -3.3564   19.4927 H       1  UNL1        0.2103
@<TRIPOS>BOND
     1     1     2    2
     2     2    19    1
     3    19    20    1
     4    20    22    1
     5    22    23    1
     6    23    24    1
     7    23    25    1
     8    25    26    1
     9    26    27    1
    10    27    28    1
    11    28    29    1
    12     2     3   am
    13     3     4    1
    14     4     5    1
    15     5     6    1
    16     6     7   ar
    17     7     8   ar
    18     8     9   ar
    19     9    10   ar
    20    10    11   ar
    21    11    12    1
    22    12    13    1
    23    13    14    1
    24    14    15    1
    25    15    16    1
    26    16    17    1
    27    17    18    1
    28    29    23    1
    29    12     3    1
    30    18    13    1
    31    11     6   ar
    32    20    21    1
    33    24    30    1
@<TRIPOS>MOLECULE
*****
 30 33 0 0 0
SMALL
GASTEIGER

@<TRIPOS>ATOM
      1 O           6.4481   -1.2714   21.0689 O.2     1  UNL1       -0.2734
      2 C           7.2959   -2.3557   20.4724 C.2     1  UNL1        0.2420
      3 N           7.6578   -3.5601   21.2901 N.am    1  UNL1       -0.2760
      4 C           8.5055   -4.6443   20.6936 C.3     1  UNL1        0.0983
      5 C           8.8674   -5.8487   21.5111 C.3     1  UNL1        0.0476
      6 C           8.3816   -5.9689   22.9252 C.ar    1  UNL1       -0.0229
      7 C           8.7435   -7.1733   23.7428 C.ar    1  UNL1       -0.0045
      8 C           8.2576   -7.2935   25.1568 C.ar    1  UNL1       -0.0003
      9 C           7.4099   -6.2092   25.7533 C.ar    1  UNL1       -0.0003
     10 C           7.0480   -5.0049   24.9357 C.ar    1  UNL1       -0.0030
     11 C           7.5338   -4.8847   23.5217 C.ar    1  UNL1       -0.0082
     12 C           7.1719   -3.6803   22.7041 C.3     1  UNL1        0.0975
     13 C           6.3242   -2.5960   23.3006 C.3     1  UNL1        0.0224
     14 C           4.8308   -2.6556   23.1725 C.3     1  UNL1        0.0020
     15 C           3.9831   -1.5714   23.7690 C.3     1  UNL1        0.0001
     16 C           4.6287   -0.4276   24.4935 C.3     1  UNL1        0.0000
     17 C           6.1220   -0.3680   24.6215 C.3     1  UNL1        0.0001
     18 C           6.9698   -1.4523   24.0251 C.3     1  UNL1        0.0020
     19 C           7.7817   -2.2355   19.0584 C.3     1  UNL1        0.1552
     20 N           6.8031   -2.2831   17.9226 N.3     1  UNL1       -0.2879
     21 H           7.1335   -3.0024   17.2793 H       1  UNL1        0.1238
     22 C           5.3561   -2.5737   18.1910 C.3     1  UNL1        0.0961
     23 C           4.3430   -1.4703   18.1149 C.3     1  UNL1        0.1027
     24 O           5.1820   -1.1364   16.9171 O.3     1  UNL1       -0.3854
     25 C           3.8558   -2.1873   19.3390 C.3     1  UNL1        0.0283
     26 C           2.6469   -1.6850   20.0712 C.3     1  UNL1        0.0024
     27 C           1.9250   -0.4655   19.5792 C.3     1  UNL1        0.0002
     28 C           2.4121    0.2515   18.3550 C.3     1  UNL1        0.0024
     29 C           3.6211   -0.2509   17.6229 C.3     1  UNL1        0.0283
     30 H           5.8999   -1.7835   16.8348 H       1  UNL1        0.2103
@<TRIPOS>BOND
     1     1     2    2
     2     2    19    1
     3    19    20    1
     4    20    22    1
     5    22    23    1
     6    23    24    1
     7    23    25    1
     8    25    26    1
     9    26    27    1
    10    27    28    1
    11    28    29    1
    12     2     3   am
    13     3     4    1
    14     4     5    1
    15     5     6    1
    16     6     7   ar
    17     7     8   ar
    18     8     9   ar
    19     9    10   ar
    20    10    11   ar
    21    11    12    1
    22    12    13    1
    23    13    14    1
    24    14    15    1
    25    15    16    1
    26    16    17    1
    27    17    18    1
    28    29    23    1
    29    12     3    1
    30    18    13    1
    31    11     6   ar
    32    20    21    1
    33    24    30    1
