@<TRIPOS>MOLECULE
*****
 33 38 0 0 0
SMALL
GASTEIGER

@<TRIPOS>ATOM
      1 C          -9.9234  -17.2669   22.7719 C.ar    1  UNL1        0.0436
      2 C         -11.3420  -17.0295   23.1974 C.ar    1  UNL1        0.0142
      3 C         -12.4715  -17.6120   22.4005 C.ar    1  UNL1        0.0010
      4 C         -12.1823  -18.4319   21.1782 C.ar    1  UNL1       -0.0032
      5 C         -10.7637  -18.6693   20.7526 C.ar    1  UNL1       -0.0091
      6 C          -9.6342  -18.0868   21.5495 C.ar    1  UNL1       -0.0101
      7 C          -8.2155  -18.3241   21.1240 C.3     1  UNL1        0.0444
      8 C          -7.9263  -19.1440   19.9016 C.3     1  UNL1        0.0749
      9 N          -9.0559  -19.7265   19.1048 N.3     1  UNL1       -0.2934
     10 C         -10.4745  -19.4892   19.5303 C.3     1  UNL1        0.0954
     11 H          -8.9172  -20.7370   19.0926 H       1  UNL1        0.1236
     12 C          -7.0737  -15.2707   28.0002 C.3     1  UNL1        0.0896
     13 N          -6.6440  -15.3336   26.5645 N.3     1  UNL1       -0.2711
     14 C          -5.3176  -14.8917   26.0210 C.3     1  UNL1        0.0722
     15 C          -5.3190  -15.1345   24.5408 C.3     1  UNL1        0.0204
     16 C          -6.6463  -15.7265   24.1695 C.3     1  UNL1        0.0375
     17 C          -7.4675  -16.2425   23.0252 C.3     1  UNL1        0.0922
     18 N          -8.7939  -16.6844   23.5687 N.pl3   1  UNL1       -0.3063
     19 C          -8.7924  -16.4416   25.0489 C.3     1  UNL1        0.1067
     20 C          -7.4652  -15.8496   25.4202 C.3     1  UNL1        0.0790
     21 C          -6.5077  -19.3814   19.4761 C.3     1  UNL1        0.0886
     22 N          -5.5458  -20.0507   20.4125 N.3     1  UNL1       -0.2667
     23 C          -5.5397  -21.5453   20.5394 C.3     1  UNL1        0.0899
     24 C          -4.5900  -19.2253   21.2220 C.3     1  UNL1        0.0978
     25 C          -4.8537  -18.9860   22.6791 C.3     1  UNL1        0.0224
     26 C          -3.8979  -18.1607   23.4886 C.3     1  UNL1        0.0065
     27 C          -2.6784  -17.5747   22.8410 C.3     1  UNL1        0.0277
     28 C          -2.4147  -17.8140   21.3839 C.ar    1  UNL1       -0.0073
     29 C          -1.1952  -17.2279   20.7363 C.ar    1  UNL1       -0.0015
     30 C          -0.9315  -17.4672   19.2791 C.ar    1  UNL1        0.0203
     31 C          -1.8873  -18.2925   18.4696 C.ar    1  UNL1        0.0985
     32 N          -3.1068  -18.8786   19.1173 N.ar    1  UNL1       -0.2471
     33 C          -3.3705  -18.6393   20.5743 C.ar    1  UNL1        0.0695
@<TRIPOS>BOND
     1    12    13    1
     2    13    14    1
     3    14    15    1
     4    16    15    1
     5    16    17    1
     6    17    18    1
     7    18     1    1
     8     1     2   ar
     9     2     3   ar
    10     3     4   ar
    11     4     5   ar
    12     5     6   ar
    13     6     7    1
    14     7     8    1
    15     8    21    1
    16    21    22    1
    17    22    23    1
    18    24    22    1
    19    24    25    1
    20    25    26    1
    21    26    27    1
    22    27    28    1
    23    28    29   ar
    24    29    30   ar
    25    30    31   ar
    26    31    32   ar
    27    32    33   ar
    28     8     9    1
    29     9    10    1
    30    18    19    1
    31    20    19    1
    32    20    13    1
    33    20    16    1
    34     6     1   ar
    35    33    24    1
    36    10     5    1
    37    33    28   ar
    38     9    11    1
@<TRIPOS>MOLECULE
*****
 33 38 0 0 0
SMALL
GASTEIGER

@<TRIPOS>ATOM
      1 C          -7.4259  -16.0645   24.0870 C.ar    1  UNL1        0.0436
      2 C          -7.2874  -15.2406   25.3327 C.ar    1  UNL1        0.0142
      3 C          -5.9662  -15.1651   26.0389 C.ar    1  UNL1        0.0010
      4 C          -4.7835  -15.9135   25.4993 C.ar    1  UNL1       -0.0032
      5 C          -4.9221  -16.7375   24.2536 C.ar    1  UNL1       -0.0091
      6 C          -6.2433  -16.8130   23.5475 C.ar    1  UNL1       -0.0101
      7 C          -6.3819  -17.6370   22.3017 C.3     1  UNL1        0.0444
      8 C          -5.1992  -18.3854   21.7621 C.3     1  UNL1        0.0749
      9 N          -3.8779  -18.3099   22.4683 N.3     1  UNL1       -0.2934
     10 C          -3.7394  -17.4859   23.7140 C.3     1  UNL1        0.0954
     11 H          -3.2051  -17.9421   21.7957 H       1  UNL1        0.1236
     12 C         -11.2810  -15.6257   19.1486 C.3     1  UNL1        0.0896
     13 N         -11.5018  -15.9946   20.5857 N.3     1  UNL1       -0.2711
     14 C         -12.8135  -16.3725   21.2074 C.3     1  UNL1        0.0722
     15 C         -12.5720  -16.6617   22.6593 C.3     1  UNL1        0.0204
     16 C         -11.1111  -16.4625   22.9349 C.3     1  UNL1        0.0375
     17 C         -10.0589  -16.5181   24.0026 C.3     1  UNL1        0.0922
     18 N          -8.7472  -16.1401   23.3808 N.pl3   1  UNL1       -0.3063
     19 C          -8.9887  -15.8509   21.9289 C.3     1  UNL1        0.1067
     20 C         -10.4496  -16.0501   21.6533 C.3     1  UNL1        0.0790
     21 C          -5.3377  -19.2094   20.5164 C.3     1  UNL1        0.0886
     22 N          -6.3406  -20.3234   20.4617 N.3     1  UNL1       -0.2667
     23 C          -5.8847  -21.7487   20.5655 C.3     1  UNL1        0.0899
     24 C          -7.7994  -20.0123   20.3031 C.3     1  UNL1        0.0978
     25 C          -8.3465  -19.6488   18.9545 C.3     1  UNL1        0.0224
     26 C          -9.8053  -19.3377   18.7960 C.3     1  UNL1        0.0065
     27 C         -10.7170  -19.3899   19.9860 C.3     1  UNL1        0.0277
     28 C         -10.1699  -19.7533   21.3345 C.ar    1  UNL1       -0.0073
     29 C         -11.0816  -19.8056   22.5245 C.ar    1  UNL1       -0.0015
     30 C         -10.5345  -20.1690   23.8731 C.ar    1  UNL1        0.0203
     31 C          -9.0757  -20.4802   24.0317 C.ar    1  UNL1        0.0985
     32 N          -8.1640  -20.4279   22.8417 N.ar    1  UNL1       -0.2471
     33 C          -8.7111  -20.0645   21.4931 C.ar    1  UNL1        0.0695
@<TRIPOS>BOND
     1    12    13    1
     2    13    14    1
     3    14    15    1
     4    16    15    1
     5    16    17    1
     6    17    18    1
     7    18     1    1
     8     1     2   ar
     9     2     3   ar
    10     3     4   ar
    11     4     5   ar
    12     5     6   ar
    13     6     7    1
    14     7     8    1
    15     8    21    1
    16    21    22    1
    17    22    23    1
    18    24    22    1
    19    24    25    1
    20    25    26    1
    21    26    27    1
    22    27    28    1
    23    28    29   ar
    24    29    30   ar
    25    30    31   ar
    26    31    32   ar
    27    32    33   ar
    28     8     9    1
    29     9    10    1
    30    18    19    1
    31    20    19    1
    32    20    13    1
    33    20    16    1
    34     6     1   ar
    35    33    24    1
    36    10     5    1
    37    33    28   ar
    38     9    11    1
@<TRIPOS>MOLECULE
*****
 33 38 0 0 0
SMALL
GASTEIGER

@<TRIPOS>ATOM
      1 C          -3.7523  -16.9798   22.6427 C.ar    1  UNL1        0.0436
      2 C          -2.4353  -16.2757   22.5021 C.ar    1  UNL1        0.0142
      3 C          -1.4536  -16.7225   21.4597 C.ar    1  UNL1        0.0010
      4 C          -1.7889  -17.8733   20.5579 C.ar    1  UNL1       -0.0032
      5 C          -3.1059  -18.5773   20.6985 C.ar    1  UNL1       -0.0091
      6 C          -4.0876  -18.1306   21.7409 C.ar    1  UNL1       -0.0101
      7 C          -5.4046  -18.8347   21.8815 C.3     1  UNL1        0.0444
      8 C          -5.7399  -19.9855   20.9797 C.3     1  UNL1        0.0749
      9 N          -4.7581  -20.4322   19.9373 N.3     1  UNL1       -0.2934
     10 C          -3.4411  -19.7281   19.7967 C.3     1  UNL1        0.0954
     11 H          -5.2303  -20.3562   19.0363 H       1  UNL1        0.1236
     12 C          -9.4238  -15.3834   24.8171 C.3     1  UNL1        0.0896
     13 N          -8.0711  -15.4671   25.4599 N.3     1  UNL1       -0.2711
     14 C          -7.7555  -15.1583   26.8935 C.3     1  UNL1        0.0722
     15 C          -6.2859  -15.3746   27.1016 C.3     1  UNL1        0.0204
     16 C          -5.6931  -15.8171   25.7966 C.3     1  UNL1        0.0375
     17 C          -4.4185  -16.2243   25.1187 C.3     1  UNL1        0.0922
     18 N          -4.7341  -16.5331   23.6852 N.pl3   1  UNL1       -0.3063
     19 C          -6.2037  -16.3168   23.4771 C.3     1  UNL1        0.1067
     20 C          -6.7965  -15.8743   24.7820 C.3     1  UNL1        0.0790
     21 C          -7.0569  -20.6895   21.1203 C.3     1  UNL1        0.0886
     22 N          -8.3340  -19.9546   20.8394 N.3     1  UNL1       -0.2667
     23 C          -8.7064  -19.6106   19.4276 C.3     1  UNL1        0.0899
     24 C          -9.2386  -19.5637   21.9702 C.3     1  UNL1        0.0978
     25 C          -9.1169  -20.2486   23.2992 C.3     1  UNL1        0.0224
     26 C         -10.0216  -19.8577   24.4300 C.3     1  UNL1        0.0065
     27 C         -11.0480  -18.7819   24.2319 C.3     1  UNL1        0.0277
     28 C         -11.1697  -18.0971   22.9030 C.ar    1  UNL1       -0.0073
     29 C         -12.1961  -17.0213   22.7048 C.ar    1  UNL1       -0.0015
     30 C         -12.3179  -16.3365   21.3758 C.ar    1  UNL1        0.0203
     31 C         -11.4132  -16.7274   20.2450 C.ar    1  UNL1        0.0985
     32 N         -10.3868  -17.8031   20.4432 N.ar    1  UNL1       -0.2471
     33 C         -10.2651  -18.4880   21.7721 C.ar    1  UNL1        0.0695
@<TRIPOS>BOND
     1    12    13    1
     2    13    14    1
     3    14    15    1
     4    16    15    1
     5    16    17    1
     6    17    18    1
     7    18     1    1
     8     1     2   ar
     9     2     3   ar
    10     3     4   ar
    11     4     5   ar
    12     5     6   ar
    13     6     7    1
    14     7     8    1
    15     8    21    1
    16    21    22    1
    17    22    23    1
    18    24    22    1
    19    24    25    1
    20    25    26    1
    21    26    27    1
    22    27    28    1
    23    28    29   ar
    24    29    30   ar
    25    30    31   ar
    26    31    32   ar
    27    32    33   ar
    28     8     9    1
    29     9    10    1
    30    18    19    1
    31    20    19    1
    32    20    13    1
    33    20    16    1
    34     6     1   ar
    35    33    24    1
    36    10     5    1
    37    33    28   ar
    38     9    11    1
@<TRIPOS>MOLECULE
*****
 33 38 0 0 0
SMALL
GASTEIGER

@<TRIPOS>ATOM
      1 C          -6.2190  -20.3163   21.0255 C.ar    1  UNL1        0.0436
      2 C          -6.1424  -21.3085   19.9032 C.ar    1  UNL1        0.0142
      3 C          -4.8197  -21.6245   19.2704 C.ar    1  UNL1        0.0010
      4 C          -3.5735  -20.9483   19.7599 C.ar    1  UNL1       -0.0032
      5 C          -3.6500  -19.9561   20.8823 C.ar    1  UNL1       -0.0091
      6 C          -4.9727  -19.6401   21.5151 C.ar    1  UNL1       -0.0101
      7 C          -5.0493  -18.6479   22.6375 C.3     1  UNL1        0.0444
      8 C          -3.8031  -17.9717   23.1270 C.3     1  UNL1        0.0749
      9 N          -2.4803  -18.2877   22.4942 N.3     1  UNL1       -0.2934
     10 C          -2.4038  -19.2799   21.3718 C.3     1  UNL1        0.0954
     11 H          -1.8742  -18.6361   23.2370 H       1  UNL1        0.1236
     12 C         -12.1251  -18.1834   21.1223 C.3     1  UNL1        0.0896
     13 N         -11.2402  -18.7849   22.1735 N.3     1  UNL1       -0.2711
     14 C         -11.6127  -19.0278   23.6061 C.3     1  UNL1        0.0722
     15 C         -10.4302  -19.6421   24.2948 C.3     1  UNL1        0.0204
     16 C          -9.3269  -19.7790   23.2878 C.3     1  UNL1        0.0375
     17 C          -7.9142  -20.2432   23.0910 C.3     1  UNL1        0.0922
     18 N          -7.5417  -20.0003   21.6584 N.pl3   1  UNL1       -0.3063
     19 C          -8.7243  -19.3860   20.9698 C.3     1  UNL1        0.1067
     20 C          -9.8275  -19.2492   21.9767 C.3     1  UNL1        0.0790
     21 C          -3.8796  -16.9795   24.2493 C.3     1  UNL1        0.0886
     22 N          -4.7646  -15.7747   24.1263 N.3     1  UNL1       -0.2667
     23 C          -4.3956  -14.6660   23.1857 C.3     1  UNL1        0.0899
     24 C          -6.0185  -15.6786   24.9438 C.3     1  UNL1        0.0978
     25 C          -5.9328  -15.5284   26.4338 C.3     1  UNL1        0.0224
     26 C          -7.1868  -15.4322   27.2513 C.3     1  UNL1        0.0065
     27 C          -8.5265  -15.4863   26.5788 C.3     1  UNL1        0.0277
     28 C          -8.6122  -15.6365   25.0888 C.ar    1  UNL1       -0.0073
     29 C          -9.9520  -15.6905   24.4164 C.ar    1  UNL1       -0.0015
     30 C         -10.0377  -15.8407   22.9263 C.ar    1  UNL1        0.0203
     31 C          -8.7837  -15.9368   22.1088 C.ar    1  UNL1        0.0985
     32 N          -7.4440  -15.8828   22.7813 N.ar    1  UNL1       -0.2471
     33 C          -7.3583  -15.7326   24.2713 C.ar    1  UNL1        0.0695
@<TRIPOS>BOND
     1    12    13    1
     2    13    14    1
     3    14    15    1
     4    16    15    1
     5    16    17    1
     6    17    18    1
     7    18     1    1
     8     1     2   ar
     9     2     3   ar
    10     3     4   ar
    11     4     5   ar
    12     5     6   ar
    13     6     7    1
    14     7     8    1
    15     8    21    1
    16    21    22    1
    17    22    23    1
    18    24    22    1
    19    24    25    1
    20    25    26    1
    21    26    27    1
    22    27    28    1
    23    28    29   ar
    24    29    30   ar
    25    30    31   ar
    26    31    32   ar
    27    32    33   ar
    28     8     9    1
    29     9    10    1
    30    18    19    1
    31    20    19    1
    32    20    13    1
    33    20    16    1
    34     6     1   ar
    35    33    24    1
    36    10     5    1
    37    33    28   ar
    38     9    11    1
@<TRIPOS>MOLECULE
*****
 33 38 0 0 0
SMALL
GASTEIGER

@<TRIPOS>ATOM
      1 C           2.9792   -1.2589   20.4774 C.ar    1  UNL1        0.0436
      2 C           3.1756   -2.0075   19.1925 C.ar    1  UNL1        0.0142
      3 C           3.9956   -3.2633   19.1740 C.ar    1  UNL1        0.0010
      4 C           4.6192   -3.7706   20.4404 C.ar    1  UNL1       -0.0032
      5 C           4.4228   -3.0220   21.7253 C.ar    1  UNL1       -0.0091
      6 C           3.6027   -1.7662   21.7438 C.ar    1  UNL1       -0.0101
      7 C           3.4062   -1.0175   23.0287 C.3     1  UNL1        0.0444
      8 C           4.0298   -1.5248   24.2951 C.3     1  UNL1        0.0749
      9 N           4.8499   -2.7807   24.2766 N.3     1  UNL1       -0.2934
     10 C           5.0464   -3.5293   22.9917 C.3     1  UNL1        0.0954
     11 H           4.4109   -3.4287   24.9307 H       1  UNL1        0.1236
     12 C           2.0690    4.9544   20.3852 C.3     1  UNL1        0.0896
     13 N           1.1308    3.7869   20.4673 N.3     1  UNL1       -0.2711
     14 C          -0.3649    3.8620   20.5529 C.3     1  UNL1        0.0722
     15 C          -0.8965    2.4609   20.6167 C.3     1  UNL1        0.0204
     16 C           0.2706    1.5197   20.5706 C.3     1  UNL1        0.0375
     17 C           0.6634    0.0721   20.5815 C.3     1  UNL1        0.0922
     18 N           2.1591   -0.0030   20.4959 N.pl3   1  UNL1       -0.3063
     19 C           2.6907    1.3982   20.4320 C.3     1  UNL1        0.1067
     20 C           1.5236    2.3393   20.4782 C.3     1  UNL1        0.0790
     21 C           3.8334   -0.7762   25.5800 C.3     1  UNL1        0.0886
     22 N           3.5202    0.6905   25.5532 N.3     1  UNL1       -0.2667
     23 C           4.6340    1.6953   25.5531 C.3     1  UNL1        0.0899
     24 C           2.0934    1.1524   25.5266 C.3     1  UNL1        0.0978
     25 C           1.5332    1.7860   24.2877 C.3     1  UNL1        0.0224
     26 C           0.1064    2.2480   24.2611 C.3     1  UNL1        0.0065
     27 C          -0.7603    2.0763   25.4732 C.3     1  UNL1        0.0277
     28 C          -0.2002    1.4427   26.7121 C.ar    1  UNL1       -0.0073
     29 C          -1.0669    1.2710   27.9243 C.ar    1  UNL1       -0.0015
     30 C          -0.5066    0.6374   29.1631 C.ar    1  UNL1        0.0203
     31 C           0.9202    0.1754   29.1898 C.ar    1  UNL1        0.0985
     32 N           1.7869    0.3471   27.9776 N.ar    1  UNL1       -0.2471
     33 C           1.2267    0.9807   26.7388 C.ar    1  UNL1        0.0695
@<TRIPOS>BOND
     1    12    13    1
     2    13    14    1
     3    14    15    1
     4    16    15    1
     5    16    17    1
     6    17    18    1
     7    18     1    1
     8     1     2   ar
     9     2     3   ar
    10     3     4   ar
    11     4     5   ar
    12     5     6   ar
    13     6     7    1
    14     7     8    1
    15     8    21    1
    16    21    22    1
    17    22    23    1
    18    24    22    1
    19    24    25    1
    20    25    26    1
    21    26    27    1
    22    27    28    1
    23    28    29   ar
    24    29    30   ar
    25    30    31   ar
    26    31    32   ar
    27    32    33   ar
    28     8     9    1
    29     9    10    1
    30    18    19    1
    31    20    19    1
    32    20    13    1
    33    20    16    1
    34     6     1   ar
    35    33    24    1
    36    10     5    1
    37    33    28   ar
    38     9    11    1
@<TRIPOS>MOLECULE
*****
 33 38 0 0 0
SMALL
GASTEIGER

@<TRIPOS>ATOM
      1 C          -7.3579  -15.9649   24.2250 C.ar    1  UNL1        0.0436
      2 C          -7.2996  -15.0744   25.4306 C.ar    1  UNL1        0.0142
      3 C          -6.0266  -14.9567   26.2152 C.ar    1  UNL1        0.0010
      4 C          -4.8119  -15.7295   25.7942 C.ar    1  UNL1       -0.0032
      5 C          -4.8702  -16.6200   24.5886 C.ar    1  UNL1       -0.0091
      6 C          -6.1432  -16.7377   23.8040 C.ar    1  UNL1       -0.0101
      7 C          -6.2015  -17.6282   22.5983 C.3     1  UNL1        0.0444
      8 C          -4.9868  -18.4010   22.1773 C.3     1  UNL1        0.0749
      9 N          -3.7137  -18.2832   22.9619 N.3     1  UNL1       -0.2934
     10 C          -3.6555  -17.3927   24.1676 C.3     1  UNL1        0.0954
     11 H          -2.9989  -17.9502   22.3151 H       1  UNL1        0.1236
     12 C         -13.3797  -17.5086   23.3326 C.3     1  UNL1        0.0896
     13 N         -12.3455  -16.8798   22.4466 N.3     1  UNL1       -0.2711
     14 C         -12.5487  -16.4449   21.0254 C.3     1  UNL1        0.0722
     15 C         -11.2554  -15.8717   20.5267 C.3     1  UNL1        0.0204
     16 C         -10.2529  -15.9523   21.6396 C.3     1  UNL1        0.0375
     17 C          -8.8340  -15.6478   22.0192 C.3     1  UNL1        0.0922
     18 N          -8.6309  -16.0826   23.4404 N.pl3   1  UNL1       -0.3063
     19 C          -9.9242  -16.6558   23.9391 C.3     1  UNL1        0.1067
     20 C         -10.9267  -16.5753   22.8262 C.3     1  UNL1        0.0790
     21 C          -5.0450  -19.2915   20.9716 C.3     1  UNL1        0.0886
     22 N          -5.9964  -20.4507   20.9407 N.3     1  UNL1       -0.2667
     23 C          -5.6047  -21.7244   20.2519 C.3     1  UNL1        0.0899
     24 C          -7.3396  -20.3364   21.5986 C.3     1  UNL1        0.0978
     25 C          -7.4756  -20.5778   23.0729 C.3     1  UNL1        0.0224
     26 C          -8.8187  -20.4635   23.7308 C.3     1  UNL1        0.0065
     27 C         -10.0259  -20.1077   22.9146 C.3     1  UNL1        0.0277
     28 C          -9.8899  -19.8664   21.4404 C.ar    1  UNL1       -0.0073
     29 C         -11.0970  -19.5106   20.6241 C.ar    1  UNL1       -0.0015
     30 C         -10.9610  -19.2692   19.1499 C.ar    1  UNL1        0.0203
     31 C          -9.6179  -19.3836   18.4920 C.ar    1  UNL1        0.0985
     32 N          -8.4107  -19.7393   19.3082 N.ar    1  UNL1       -0.2471
     33 C          -8.5467  -19.9807   20.7824 C.ar    1  UNL1        0.0695
@<TRIPOS>BOND
     1    12    13    1
     2    13    14    1
     3    14    15    1
     4    16    15    1
     5    16    17    1
     6    17    18    1
     7    18     1    1
     8     1     2   ar
     9     2     3   ar
    10     3     4   ar
    11     4     5   ar
    12     5     6   ar
    13     6     7    1
    14     7     8    1
    15     8    21    1
    16    21    22    1
    17    22    23    1
    18    24    22    1
    19    24    25    1
    20    25    26    1
    21    26    27    1
    22    27    28    1
    23    28    29   ar
    24    29    30   ar
    25    30    31   ar
    26    31    32   ar
    27    32    33   ar
    28     8     9    1
    29     9    10    1
    30    18    19    1
    31    20    19    1
    32    20    13    1
    33    20    16    1
    34     6     1   ar
    35    33    24    1
    36    10     5    1
    37    33    28   ar
    38     9    11    1
@<TRIPOS>MOLECULE
*****
 33 38 0 0 0
SMALL
GASTEIGER

@<TRIPOS>ATOM
      1 C           6.8131   -3.5594   23.7322 C.ar    1  UNL1        0.0436
      2 C           6.9557   -4.7698   24.6064 C.ar    1  UNL1        0.0142
      3 C           7.8984   -5.8695   24.2168 C.ar    1  UNL1        0.0010
      4 C           8.6985   -5.7588   22.9529 C.ar    1  UNL1       -0.0032
      5 C           8.5559   -4.5483   22.0786 C.ar    1  UNL1       -0.0091
      6 C           7.6132   -3.4486   22.4683 C.ar    1  UNL1       -0.0101
      7 C           7.4706   -2.2381   21.5940 C.3     1  UNL1        0.0444
      8 C           8.2707   -2.1273   20.3300 C.3     1  UNL1        0.0749
      9 N           9.2135   -3.2271   19.9404 N.3     1  UNL1       -0.2934
     10 C           9.3561   -4.4375   20.8147 C.3     1  UNL1        0.0954
     11 H          10.1402   -2.8076   19.8649 H       1  UNL1        0.1236
     12 C           5.0758    1.6352   26.8047 C.3     1  UNL1        0.0896
     13 N           4.3706    0.7460   25.8238 N.3     1  UNL1       -0.2711
     14 C           2.9688    0.9250   25.3209 C.3     1  UNL1        0.0722
     15 C           2.6753   -0.1887   24.3600 C.3     1  UNL1        0.0204
     16 C           3.8957   -1.0561   24.2690 C.3     1  UNL1        0.0375
     17 C           4.4685   -2.2805   23.6189 C.3     1  UNL1        0.0922
     18 N           5.8703   -2.4596   24.1218 N.pl3   1  UNL1       -0.3063
     19 C           6.1638   -1.3459   25.0828 C.3     1  UNL1        0.1067
     20 C           4.9435   -0.4784   25.1737 C.3     1  UNL1        0.0790
     21 C           8.1281   -0.9168   19.4558 C.3     1  UNL1        0.0886
     22 N           6.9427   -0.7840   18.5463 N.3     1  UNL1       -0.2667
     23 C           6.9866    0.1731   17.3920 C.3     1  UNL1        0.0899
     24 C           5.7136   -1.6081   18.7909 C.3     1  UNL1        0.0978
     25 C           5.6696   -3.0398   18.3456 C.3     1  UNL1        0.0224
     26 C           4.4404   -3.8640   18.5902 C.3     1  UNL1        0.0065
     27 C           3.2552   -3.2565   19.2803 C.3     1  UNL1        0.0277
     28 C           3.2992   -1.8248   19.7257 C.ar    1  UNL1       -0.0073
     29 C           2.1139   -1.2173   20.4157 C.ar    1  UNL1       -0.0015
     30 C           2.1579    0.2144   20.8611 C.ar    1  UNL1        0.0203
     31 C           3.3871    1.0386   20.6164 C.ar    1  UNL1        0.0985
     32 N           4.5723    0.4311   19.9264 N.ar    1  UNL1       -0.2471
     33 C           4.5284   -1.0006   19.4810 C.ar    1  UNL1        0.0695
@<TRIPOS>BOND
     1    12    13    1
     2    13    14    1
     3    14    15    1
     4    16    15    1
     5    16    17    1
     6    17    18    1
     7    18     1    1
     8     1     2   ar
     9     2     3   ar
    10     3     4   ar
    11     4     5   ar
    12     5     6   ar
    13     6     7    1
    14     7     8    1
    15     8    21    1
    16    21    22    1
    17    22    23    1
    18    24    22    1
    19    24    25    1
    20    25    26    1
    21    26    27    1
    22    27    28    1
    23    28    29   ar
    24    29    30   ar
    25    30    31   ar
    26    31    32   ar
    27    32    33   ar
    28     8     9    1
    29     9    10    1
    30    18    19    1
    31    20    19    1
    32    20    13    1
    33    20    16    1
    34     6     1   ar
    35    33    24    1
    36    10     5    1
    37    33    28   ar
    38     9    11    1
@<TRIPOS>MOLECULE
*****
 33 38 0 0 0
SMALL
GASTEIGER

@<TRIPOS>ATOM
      1 C           2.1762    0.4586   21.9057 C.ar    1  UNL1        0.0436
      2 C           1.1228    1.3591   21.3317 C.ar    1  UNL1        0.0142
      3 C           0.2086    2.1208   22.2448 C.ar    1  UNL1        0.0010
      4 C           0.3477    1.9822   23.7319 C.ar    1  UNL1       -0.0032
      5 C           1.4011    1.0817   24.3059 C.ar    1  UNL1       -0.0091
      6 C           2.3154    0.3199   23.3928 C.ar    1  UNL1       -0.0101
      7 C           3.3688   -0.5806   23.9667 C.3     1  UNL1        0.0444
      8 C           3.5080   -0.7192   25.4538 C.3     1  UNL1        0.0749
      9 N           2.5936    0.0426   26.3669 N.3     1  UNL1       -0.2934
     10 C           1.5403    0.9431   25.7929 C.3     1  UNL1        0.0954
     11 H           3.1866    0.6236   26.9596 H       1  UNL1        0.1236
     12 C           7.3921   -0.4544   18.5289 C.3     1  UNL1        0.0896
     13 N           6.1680   -1.2895   18.7614 N.3     1  UNL1       -0.2711
     14 C           5.9044   -2.6480   18.1824 C.3     1  UNL1        0.0722
     15 C           4.5660   -3.1108   18.6769 C.3     1  UNL1        0.0204
     16 C           4.0024   -2.0384   19.5614 C.3     1  UNL1        0.0375
     17 C           2.8270   -1.6617   20.4136 C.3     1  UNL1        0.0922
     18 N           3.0906   -0.3032   20.9926 N.pl3   1  UNL1       -0.3063
     19 C           4.4289    0.1596   20.4981 C.3     1  UNL1        0.1067
     20 C           4.9925   -0.9128   19.6136 C.3     1  UNL1        0.0790
     21 C           4.5614   -1.6197   26.0278 C.3     1  UNL1        0.0886
     22 N           5.9805   -1.5109   25.5542 N.3     1  UNL1       -0.2667
     23 C           6.8904   -0.4741   26.1436 C.3     1  UNL1        0.0899
     24 C           6.4896   -2.4386   24.4912 C.3     1  UNL1        0.0978
     25 C           6.5860   -1.9697   23.0696 C.3     1  UNL1        0.0224
     26 C           7.0951   -2.8974   22.0067 C.3     1  UNL1        0.0065
     27 C           7.5079   -4.2942   22.3652 C.3     1  UNL1        0.0277
     28 C           7.4116   -4.7632   23.7867 C.ar    1  UNL1       -0.0073
     29 C           7.8244   -6.1600   24.1453 C.ar    1  UNL1       -0.0015
     30 C           7.7281   -6.6290   25.5669 C.ar    1  UNL1        0.0203
     31 C           7.2189   -5.7012   26.6298 C.ar    1  UNL1        0.0985
     32 N           6.8061   -4.3044   26.2713 N.ar    1  UNL1       -0.2471
     33 C           6.9024   -3.8354   24.8498 C.ar    1  UNL1        0.0695
@<TRIPOS>BOND
     1    12    13    1
     2    13    14    1
     3    14    15    1
     4    16    15    1
     5    16    17    1
     6    17    18    1
     7    18     1    1
     8     1     2   ar
     9     2     3   ar
    10     3     4   ar
    11     4     5   ar
    12     5     6   ar
    13     6     7    1
    14     7     8    1
    15     8    21    1
    16    21    22    1
    17    22    23    1
    18    24    22    1
    19    24    25    1
    20    25    26    1
    21    26    27    1
    22    27    28    1
    23    28    29   ar
    24    29    30   ar
    25    30    31   ar
    26    31    32   ar
    27    32    33   ar
    28     8     9    1
    29     9    10    1
    30    18    19    1
    31    20    19    1
    32    20    13    1
    33    20    16    1
    34     6     1   ar
    35    33    24    1
    36    10     5    1
    37    33    28   ar
    38     9    11    1
