@<TRIPOS>MOLECULE
*****
 31 35 0 0 0
SMALL
GASTEIGER

@<TRIPOS>ATOM
      1 C          -4.2708  -19.6936   22.2788 C.3     1  UNL1        0.0731
      2 N          -5.6123  -19.6184   21.6119 N.3     1  UNL1       -0.2712
      3 C          -5.8761  -19.7672   20.1428 C.3     1  UNL1        0.0738
      4 C          -7.3524  -19.6219   19.9200 C.3     1  UNL1        0.0372
      5 C          -8.4278  -19.6240   18.8744 C.3     1  UNL1        0.0245
      6 C          -9.7410  -19.3867   19.5595 C.3     1  UNL1        0.0909
      7 N          -9.4771  -19.2379   21.0286 N.pl3   1  UNL1       -0.3077
      8 C          -8.0008  -19.3832   21.2514 C.3     1  UNL1        0.0901
      9 C          -6.9254  -19.3811   22.2971 C.3     1  UNL1        0.0921
     10 C         -10.5083  -18.9877   22.0888 C.ar    1  UNL1        0.0480
     11 C         -10.3223  -19.5550   23.4648 C.ar    1  UNL1        0.0168
     12 C         -11.3536  -19.3048   24.5249 C.ar    1  UNL1        0.0309
     13 C         -12.5709  -18.4872   24.2090 C.ar    1  UNL1        0.1402
     14 F         -13.6021  -18.2370   25.2692 F       1  UNL1       -0.2042
     15 C         -12.7569  -17.9199   22.8329 C.ar    1  UNL1        0.0309
     16 C         -11.7257  -18.1701   21.7728 C.ar    1  UNL1        0.0168
     17 C          -3.0200  -19.5193   21.4694 C.3     1  UNL1        0.0294
     18 C          -2.4969  -18.1427   21.1843 C.3     1  UNL1        0.0666
     19 S          -2.2843  -17.1732   22.3089 S.3     1  UNL1       -0.0756
     20 C          -5.2600  -15.5878   24.2318 C.ar    1  UNL1        0.2029
     21 N          -5.1592  -14.6724   23.0478 N.ar    1  UNL1       -0.1250
     22 N          -4.0323  -15.1549   22.1833 N.ar    1  UNL1       -0.1220
     23 C          -3.4365  -16.3685   22.8332 C.ar    1  UNL1        0.1933
     24 N          -4.1952  -16.6360   24.0992 N.ar    1  UNL1       -0.2860
     25 C          -3.9350  -17.7553   25.0633 C.3     1  UNL1        0.1341
     26 C          -8.4768  -16.0879   24.0040 C.3     1  UNL1        0.0556
     27 C          -7.7299  -15.7046   25.2471 C.ar    1  UNL1        0.1001
     28 N          -8.3305  -15.4839   26.6038 N.ar    1  UNL1       -0.2085
     29 C          -7.2231  -15.1176   27.5470 C.ar    1  UNL1        0.2849
     30 O          -5.9381  -15.1119   26.7732 O.2     1  UNL1       -0.4283
     31 C          -6.2514  -15.4747   25.3519 C.ar    1  UNL1        0.1964
@<TRIPOS>BOND
     1    26    27    1
     2    27    28   ar
     3    28    29   ar
     4    29    30   ar
     5    30    31   ar
     6    31    20    1
     7    20    21   ar
     8    21    22   ar
     9    22    23   ar
    10    23    19    1
    11    19    18    1
    12    18    17    1
    13    17     1    1
    14     1     2    1
    15     2     3    1
    16     3     4    1
    17     4     5    1
    18     5     6    1
    19     6     7    1
    20     7    10    1
    21    10    11   ar
    22    11    12   ar
    23    12    13   ar
    24    13    14    1
    25    13    15   ar
    26    15    16   ar
    27     7     8    1
    28     8     9    1
    29    23    24   ar
    30    24    25    1
    31    31    27   ar
    32    24    20   ar
    33     9     2    1
    34     8     4    1
    35    16    10   ar
@<TRIPOS>MOLECULE
*****
 31 35 0 0 0
SMALL
GASTEIGER

@<TRIPOS>ATOM
      1 C         -10.2902  -16.3365   22.9181 C.3     1  UNL1        0.0731
      2 N          -8.9842  -16.1412   23.6296 N.3     1  UNL1       -0.2712
      3 C          -8.8057  -15.5610   25.0013 C.3     1  UNL1        0.0738
      4 C          -7.3386  -15.5531   25.3138 C.3     1  UNL1        0.0372
      5 C          -6.3215  -15.1896   26.3546 C.3     1  UNL1        0.0245
      6 C          -4.9648  -15.5402   25.8195 C.3     1  UNL1        0.0909
      7 N          -5.1434  -16.1204   24.4477 N.pl3   1  UNL1       -0.3077
      8 C          -6.6105  -16.1283   24.1352 C.3     1  UNL1        0.0901
      9 C          -7.6276  -16.4918   23.0943 C.3     1  UNL1        0.0921
     10 C          -4.0474  -16.6072   23.5467 C.ar    1  UNL1        0.0480
     11 C          -3.3670  -15.6531   22.6104 C.ar    1  UNL1        0.0168
     12 C          -2.2709  -16.1399   21.7094 C.ar    1  UNL1        0.0309
     13 C          -1.8553  -17.5807   21.7448 C.ar    1  UNL1        0.1402
     14 F          -0.7593  -18.0675   20.8438 F       1  UNL1       -0.2042
     15 C          -2.5357  -18.5348   22.6812 C.ar    1  UNL1        0.0309
     16 C          -3.6318  -18.0481   23.5821 C.ar    1  UNL1        0.0168
     17 C         -11.2261  -17.4248   23.3535 C.3     1  UNL1        0.0294
     18 C         -11.8902  -18.2972   22.3297 C.3     1  UNL1        0.0666
     19 S         -11.2116  -19.5487   21.8572 S.3     1  UNL1       -0.0756
     20 C          -7.7998  -19.4299   20.0102 C.ar    1  UNL1        0.2029
     21 N          -8.7535  -19.2239   18.8709 N.ar    1  UNL1       -0.1250
     22 N         -10.1477  -19.2433   19.4241 N.ar    1  UNL1       -0.1220
     23 C         -10.0556  -19.4613   20.9053 C.ar    1  UNL1        0.1933
     24 N          -8.6046  -19.5766   21.2676 N.ar    1  UNL1       -0.2860
     25 C          -8.0548  -19.7995   22.6453 C.3     1  UNL1        0.1341
     26 C          -5.9259  -22.0403   20.5794 C.3     1  UNL1        0.0556
     27 C          -5.4427  -20.6801   20.1714 C.ar    1  UNL1        0.1001
     28 N          -4.0133  -20.2810   19.9534 N.ar    1  UNL1       -0.2085
     29 C          -3.9912  -18.8344   19.5571 C.ar    1  UNL1        0.2849
     30 O          -5.4069  -18.3395   19.5302 O.2     1  UNL1       -0.4283
     31 C          -6.3040  -19.4802   19.9098 C.ar    1  UNL1        0.1964
@<TRIPOS>BOND
     1    26    27    1
     2    27    28   ar
     3    28    29   ar
     4    29    30   ar
     5    30    31   ar
     6    31    20    1
     7    20    21   ar
     8    21    22   ar
     9    22    23   ar
    10    23    19    1
    11    19    18    1
    12    18    17    1
    13    17     1    1
    14     1     2    1
    15     2     3    1
    16     3     4    1
    17     4     5    1
    18     5     6    1
    19     6     7    1
    20     7    10    1
    21    10    11   ar
    22    11    12   ar
    23    12    13   ar
    24    13    14    1
    25    13    15   ar
    26    15    16   ar
    27     7     8    1
    28     8     9    1
    29    23    24   ar
    30    24    25    1
    31    31    27   ar
    32    24    20   ar
    33     9     2    1
    34     8     4    1
    35    16    10   ar
@<TRIPOS>MOLECULE
*****
 31 35 0 0 0
SMALL
GASTEIGER

@<TRIPOS>ATOM
      1 C          -4.6003  -19.8039   19.7913 C.3     1  UNL1        0.0731
      2 N          -5.8252  -19.8121   20.6571 N.3     1  UNL1       -0.2712
      3 C          -6.0231  -20.6331   21.8967 C.3     1  UNL1        0.0738
      4 C          -7.3875  -20.3292   22.4410 C.3     1  UNL1        0.0372
      5 C          -8.3530  -20.6487   23.5435 C.3     1  UNL1        0.0245
      6 C          -9.5951  -19.8374   23.3216 C.3     1  UNL1        0.0909
      7 N          -9.3971  -19.0164   22.0819 N.pl3   1  UNL1       -0.3077
      8 C          -8.0327  -19.3204   21.5377 C.3     1  UNL1        0.0901
      9 C          -7.0672  -19.0008   20.4351 C.3     1  UNL1        0.0921
     10 C         -10.3892  -18.0595   21.4903 C.ar    1  UNL1        0.0480
     11 C         -10.5686  -17.9895   20.0028 C.ar    1  UNL1        0.0168
     12 C         -11.5608  -17.0326   19.4112 C.ar    1  UNL1        0.0309
     13 C         -12.3736  -16.1457   20.3072 C.ar    1  UNL1        0.1402
     14 F         -13.3657  -15.1888   19.7157 F       1  UNL1       -0.2042
     15 C         -12.1942  -16.2158   21.7949 C.ar    1  UNL1        0.0309
     16 C         -11.2020  -17.1727   22.3864 C.ar    1  UNL1        0.0168
     17 C          -3.2388  -19.8675   20.4175 C.3     1  UNL1        0.0294
     18 C          -2.2658  -18.7443   20.2130 C.3     1  UNL1        0.0666
     19 S          -1.7849  -17.9453   21.3878 S.3     1  UNL1       -0.0756
     20 C          -4.3647  -15.9547   23.4968 C.ar    1  UNL1        0.2029
     21 N          -3.8348  -14.8787   22.5959 N.ar    1  UNL1       -0.1250
     22 N          -2.8039  -15.4935   21.6962 N.ar    1  UNL1       -0.1220
     23 C          -2.6967  -16.9494   22.0411 C.ar    1  UNL1        0.1933
     24 N          -3.6613  -17.2344   23.1539 N.ar    1  UNL1       -0.2860
     25 C          -3.8834  -18.5655   23.8088 C.3     1  UNL1        0.1341
     26 C          -7.5918  -15.9282   23.0122 C.3     1  UNL1        0.0556
     27 C          -6.8971  -15.7691   24.3321 C.ar    1  UNL1        0.1001
     28 N          -7.5637  -15.5700   25.6610 N.ar    1  UNL1       -0.2085
     29 C          -6.4924  -15.4591   26.7050 C.ar    1  UNL1        0.2849
     30 O          -5.1637  -15.5897   26.0214 O.2     1  UNL1       -0.4283
     31 C          -5.4138  -15.7813   24.5549 C.ar    1  UNL1        0.1964
@<TRIPOS>BOND
     1    26    27    1
     2    27    28   ar
     3    28    29   ar
     4    29    30   ar
     5    30    31   ar
     6    31    20    1
     7    20    21   ar
     8    21    22   ar
     9    22    23   ar
    10    23    19    1
    11    19    18    1
    12    18    17    1
    13    17     1    1
    14     1     2    1
    15     2     3    1
    16     3     4    1
    17     4     5    1
    18     5     6    1
    19     6     7    1
    20     7    10    1
    21    10    11   ar
    22    11    12   ar
    23    12    13   ar
    24    13    14    1
    25    13    15   ar
    26    15    16   ar
    27     7     8    1
    28     8     9    1
    29    23    24   ar
    30    24    25    1
    31    31    27   ar
    32    24    20   ar
    33     9     2    1
    34     8     4    1
    35    16    10   ar
@<TRIPOS>MOLECULE
*****
 31 35 0 0 0
SMALL
GASTEIGER

@<TRIPOS>ATOM
      1 C          -4.3244  -15.9369   24.9458 C.3     1  UNL1        0.0731
      2 N          -4.5289  -16.9775   23.8850 N.3     1  UNL1       -0.2712
      3 C          -3.4491  -17.7583   23.1961 C.3     1  UNL1        0.0738
      4 C          -4.1020  -18.6834   22.2122 C.3     1  UNL1        0.0372
      5 C          -3.8381  -19.7377   21.1784 C.3     1  UNL1        0.0245
      6 C          -5.1582  -20.1803   20.6202 C.3     1  UNL1        0.0909
      7 N          -6.2379  -19.3994   21.3091 N.pl3   1  UNL1       -0.3077
      8 C          -5.5851  -18.4743   22.2930 C.3     1  UNL1        0.0901
      9 C          -5.8490  -17.4200   23.3268 C.3     1  UNL1        0.0921
     10 C          -7.7117  -19.5221   21.0582 C.ar    1  UNL1        0.0480
     11 C          -8.6478  -19.7841   22.2005 C.ar    1  UNL1        0.0168
     12 C         -10.1215  -19.9068   21.9496 C.ar    1  UNL1        0.0309
     13 C         -10.6592  -19.7676   20.5562 C.ar    1  UNL1        0.1402
     14 F         -12.1330  -19.8903   20.3053 F       1  UNL1       -0.2042
     15 C          -9.7231  -19.5056   19.4138 C.ar    1  UNL1        0.0309
     16 C          -8.2494  -19.3829   19.6647 C.ar    1  UNL1        0.0168
     17 C          -5.5088  -15.3103   25.6199 C.3     1  UNL1        0.0294
     18 C          -6.1094  -15.9556   26.8335 C.3     1  UNL1        0.0666
     19 S          -7.5913  -15.8971   27.0583 S.3     1  UNL1       -0.0756
     20 C          -9.8620  -16.8106   24.0457 C.ar    1  UNL1        0.2029
     21 N         -10.0723  -17.9980   24.9378 N.ar    1  UNL1       -0.1250
     22 N          -9.2473  -17.8003   26.1749 N.ar    1  UNL1       -0.1220
     23 C          -8.5271  -16.4907   26.0474 C.ar    1  UNL1        0.1933
     24 N          -8.9069  -15.8790   24.7315 N.ar    1  UNL1       -0.2860
     25 C          -8.4177  -14.5663   24.1955 C.3     1  UNL1        0.1341
     26 C         -12.9908  -17.3497   23.2912 C.3     1  UNL1        0.0556
     27 C         -11.9336  -16.8408   22.3567 C.ar    1  UNL1        0.1001
     28 N         -12.1288  -16.4902   20.9114 N.ar    1  UNL1       -0.2085
     29 C         -10.8113  -16.0258   20.3649 C.ar    1  UNL1        0.2849
     30 O          -9.8018  -16.0893   21.4726 O.2     1  UNL1       -0.4283
     31 C         -10.4954  -16.5929   22.7035 C.ar    1  UNL1        0.1964
@<TRIPOS>BOND
     1    26    27    1
     2    27    28   ar
     3    28    29   ar
     4    29    30   ar
     5    30    31   ar
     6    31    20    1
     7    20    21   ar
     8    21    22   ar
     9    22    23   ar
    10    23    19    1
    11    19    18    1
    12    18    17    1
    13    17     1    1
    14     1     2    1
    15     2     3    1
    16     3     4    1
    17     4     5    1
    18     5     6    1
    19     6     7    1
    20     7    10    1
    21    10    11   ar
    22    11    12   ar
    23    12    13   ar
    24    13    14    1
    25    13    15   ar
    26    15    16   ar
    27     7     8    1
    28     8     9    1
    29    23    24   ar
    30    24    25    1
    31    31    27   ar
    32    24    20   ar
    33     9     2    1
    34     8     4    1
    35    16    10   ar
@<TRIPOS>MOLECULE
*****
 31 35 0 0 0
SMALL
GASTEIGER

@<TRIPOS>ATOM
      1 C          -5.4369  -15.4134   24.8051 C.3     1  UNL1        0.0731
      2 N          -4.9146  -16.5068   23.9208 N.3     1  UNL1       -0.2712
      3 C          -3.4976  -16.9958   23.8668 C.3     1  UNL1        0.0738
      4 C          -3.4250  -18.0943   22.8480 C.3     1  UNL1        0.0372
      5 C          -2.5043  -19.0755   22.1849 C.3     1  UNL1        0.0245
      6 C          -3.3073  -19.8718   21.1995 C.3     1  UNL1        0.0909
      7 N          -4.7244  -19.3828   21.2536 N.pl3   1  UNL1       -0.3077
      8 C          -4.7971  -18.2843   22.2724 C.3     1  UNL1        0.0901
      9 C          -5.7177  -17.3031   22.9355 C.3     1  UNL1        0.0921
     10 C          -5.8680  -19.9013   20.4330 C.ar    1  UNL1        0.0480
     11 C          -5.9205  -21.3509   20.0511 C.ar    1  UNL1        0.0168
     12 C          -7.0640  -21.8694   19.2305 C.ar    1  UNL1        0.0309
     13 C          -8.1551  -20.9383   18.7918 C.ar    1  UNL1        0.1402
     14 F          -9.2987  -21.4568   17.9712 F       1  UNL1       -0.2042
     15 C          -8.1027  -19.4886   19.1737 C.ar    1  UNL1        0.0309
     16 C          -6.9591  -18.9701   19.9943 C.ar    1  UNL1        0.0168
     17 C          -5.3304  -15.5393   26.2959 C.3     1  UNL1        0.0294
     18 C          -6.5636  -15.7643   27.1198 C.3     1  UNL1        0.0666
     19 S          -7.9179  -15.5093   26.5276 S.3     1  UNL1       -0.0756
     20 C          -9.8642  -18.0004   24.2753 C.ar    1  UNL1        0.2029
     21 N          -9.8680  -18.7304   25.5857 N.ar    1  UNL1       -0.1250
     22 N          -9.1394  -17.8861   26.5889 N.ar    1  UNL1       -0.1220
     23 C          -8.6853  -16.6343   25.8985 C.ar    1  UNL1        0.1933
     24 N          -9.1332  -16.7048   24.4687 N.ar    1  UNL1       -0.2860
     25 C          -8.8924  -15.6628   23.4169 C.3     1  UNL1        0.1341
     26 C         -12.2969  -16.5479   22.6561 C.3     1  UNL1        0.0556
     27 C         -11.6009  -17.8138   22.2520 C.ar    1  UNL1        0.1001
     28 N         -11.9008  -18.6342   21.0326 N.ar    1  UNL1       -0.2085
     29 C         -10.9681  -19.8089   21.0233 C.ar    1  UNL1        0.2849
     30 O         -10.0916  -19.7144   22.2369 O.2     1  UNL1       -0.4283
     31 C         -10.4827  -18.4814   22.9962 C.ar    1  UNL1        0.1964
@<TRIPOS>BOND
     1    26    27    1
     2    27    28   ar
     3    28    29   ar
     4    29    30   ar
     5    30    31   ar
     6    31    20    1
     7    20    21   ar
     8    21    22   ar
     9    22    23   ar
    10    23    19    1
    11    19    18    1
    12    18    17    1
    13    17     1    1
    14     1     2    1
    15     2     3    1
    16     3     4    1
    17     4     5    1
    18     5     6    1
    19     6     7    1
    20     7    10    1
    21    10    11   ar
    22    11    12   ar
    23    12    13   ar
    24    13    14    1
    25    13    15   ar
    26    15    16   ar
    27     7     8    1
    28     8     9    1
    29    23    24   ar
    30    24    25    1
    31    31    27   ar
    32    24    20   ar
    33     9     2    1
    34     8     4    1
    35    16    10   ar
@<TRIPOS>MOLECULE
*****
 31 35 0 0 0
SMALL
GASTEIGER

@<TRIPOS>ATOM
      1 C          -7.7366  -15.0802   27.2642 C.3     1  UNL1        0.0731
      2 N          -8.4794  -16.0993   26.4519 N.3     1  UNL1       -0.2712
      3 C          -8.7335  -17.5246   26.8443 C.3     1  UNL1        0.0738
      4 C          -9.5095  -18.1782   25.7395 C.3     1  UNL1        0.0372
      5 C         -10.1462  -19.4630   25.2992 C.3     1  UNL1        0.0245
      6 C         -10.7653  -19.2358   23.9519 C.3     1  UNL1        0.0909
      7 N         -10.5111  -17.8104   23.5596 N.pl3   1  UNL1       -0.3077
      8 C          -9.7351  -17.1568   24.6643 C.3     1  UNL1        0.0901
      9 C          -9.0984  -15.8720   25.1046 C.3     1  UNL1        0.0921
     10 C         -10.9552  -17.1539   22.2860 C.ar    1  UNL1        0.0480
     11 C         -10.0430  -16.1963   21.5783 C.ar    1  UNL1        0.0168
     12 C         -10.4871  -15.5398   20.3047 C.ar    1  UNL1        0.0309
     13 C         -11.8432  -15.8410   19.7389 C.ar    1  UNL1        0.1402
     14 F         -12.2872  -15.1846   18.4654 F       1  UNL1       -0.2042
     15 C         -12.7554  -16.7987   20.4467 C.ar    1  UNL1        0.0309
     16 C         -12.3114  -17.4551   21.7202 C.ar    1  UNL1        0.0168
     17 C          -6.2631  -14.8875   27.0601 C.3     1  UNL1        0.0294
     18 C          -5.4893  -15.8580   26.2178 C.3     1  UNL1        0.0666
     19 S          -5.1757  -15.5270   24.7888 S.3     1  UNL1       -0.0756
     20 C          -5.7573  -18.2259   22.0606 C.ar    1  UNL1        0.2029
     21 N          -7.0074  -17.4072   21.9296 N.ar    1  UNL1       -0.1250
     22 N          -6.9417  -16.2966   22.9357 N.ar    1  UNL1       -0.1220
     23 C          -5.6510  -16.4288   23.6884 C.ar    1  UNL1        0.1933
     24 N          -4.9190  -17.6211   23.1476 N.ar    1  UNL1       -0.2860
     25 C          -3.5832  -18.1210   23.6122 C.3     1  UNL1        0.1341
     26 C          -3.2214  -18.5016   20.0252 C.3     1  UNL1        0.0556
     27 C          -4.2414  -19.5634   20.3118 C.ar    1  UNL1        0.1001
     28 N          -4.2750  -20.9383   19.7131 N.ar    1  UNL1       -0.2085
     29 C          -5.4613  -21.6614   20.2787 C.ar    1  UNL1        0.2849
     30 O          -6.1610  -20.7333   21.2269 O.2     1  UNL1       -0.4283
     31 C          -5.4070  -19.4367   21.2473 C.ar    1  UNL1        0.1964
@<TRIPOS>BOND
     1    26    27    1
     2    27    28   ar
     3    28    29   ar
     4    29    30   ar
     5    30    31   ar
     6    31    20    1
     7    20    21   ar
     8    21    22   ar
     9    22    23   ar
    10    23    19    1
    11    19    18    1
    12    18    17    1
    13    17     1    1
    14     1     2    1
    15     2     3    1
    16     3     4    1
    17     4     5    1
    18     5     6    1
    19     6     7    1
    20     7    10    1
    21    10    11   ar
    22    11    12   ar
    23    12    13   ar
    24    13    14    1
    25    13    15   ar
    26    15    16   ar
    27     7     8    1
    28     8     9    1
    29    23    24   ar
    30    24    25    1
    31    31    27   ar
    32    24    20   ar
    33     9     2    1
    34     8     4    1
    35    16    10   ar
@<TRIPOS>MOLECULE
*****
 31 35 0 0 0
SMALL
GASTEIGER

@<TRIPOS>ATOM
      1 C          -7.8523  -15.3728   27.2264 C.3     1  UNL1        0.0731
      2 N          -8.6010  -16.3364   26.3541 N.3     1  UNL1       -0.2712
      3 C          -8.9179  -17.7642   26.6872 C.3     1  UNL1        0.0738
      4 C          -9.6771  -18.3515   25.5345 C.3     1  UNL1        0.0372
      5 C         -10.3421  -19.5969   25.0279 C.3     1  UNL1        0.0245
      6 C         -10.9055  -19.3019   23.6694 C.3     1  UNL1        0.0909
      7 N         -10.5885  -17.8740   23.3363 N.pl3   1  UNL1       -0.3077
      8 C          -9.8294  -17.2867   24.4890 C.3     1  UNL1        0.0901
      9 C          -9.1643  -16.0413   24.9956 C.3     1  UNL1        0.0921
     10 C         -10.9647  -17.1591   22.0725 C.ar    1  UNL1        0.0480
     11 C         -12.2764  -17.4527   21.4067 C.ar    1  UNL1        0.0168
     12 C         -12.6526  -16.7377   20.1428 C.ar    1  UNL1        0.0309
     13 C         -11.7171  -15.7292   19.5448 C.ar    1  UNL1        0.1402
     14 F         -12.0934  -15.0143   18.2809 F       1  UNL1       -0.2042
     15 C         -10.4054  -15.4355   20.2105 C.ar    1  UNL1        0.0309
     16 C         -10.0292  -16.1505   21.4744 C.ar    1  UNL1        0.0168
     17 C          -6.3524  -15.3803   27.2369 C.3     1  UNL1        0.0294
     18 C          -5.5922  -15.1430   25.9657 C.3     1  UNL1        0.0666
     19 S          -5.3685  -16.2719   25.0038 S.3     1  UNL1       -0.0756
     20 C          -2.9691  -16.4944   21.9608 C.ar    1  UNL1        0.2029
     21 N          -3.3115  -15.0340   21.9539 N.ar    1  UNL1       -0.1250
     22 N          -4.2519  -14.7729   23.0929 N.ar    1  UNL1       -0.1220
     23 C          -4.4908  -16.0720   23.8039 C.ar    1  UNL1        0.1933
     24 N          -3.6980  -17.1359   23.1043 N.ar    1  UNL1       -0.2860
     25 C          -3.6436  -18.5866   23.4817 C.3     1  UNL1        0.1341
     26 C          -3.8513  -18.7636   19.7878 C.3     1  UNL1        0.0556
     27 C          -2.4634  -18.2340   19.9954 C.ar    1  UNL1        0.1001
     28 N          -1.2372  -18.6545   19.2406 N.ar    1  UNL1       -0.2085
     29 C          -0.0739  -17.8713   19.7729 C.ar    1  UNL1        0.2849
     30 O          -0.5811  -16.9668   20.8567 O.2     1  UNL1       -0.4283
     31 C          -2.0578  -17.1910   20.9942 C.ar    1  UNL1        0.1964
@<TRIPOS>BOND
     1    26    27    1
     2    27    28   ar
     3    28    29   ar
     4    29    30   ar
     5    30    31   ar
     6    31    20    1
     7    20    21   ar
     8    21    22   ar
     9    22    23   ar
    10    23    19    1
    11    19    18    1
    12    18    17    1
    13    17     1    1
    14     1     2    1
    15     2     3    1
    16     3     4    1
    17     4     5    1
    18     5     6    1
    19     6     7    1
    20     7    10    1
    21    10    11   ar
    22    11    12   ar
    23    12    13   ar
    24    13    14    1
    25    13    15   ar
    26    15    16   ar
    27     7     8    1
    28     8     9    1
    29    23    24   ar
    30    24    25    1
    31    31    27   ar
    32    24    20   ar
    33     9     2    1
    34     8     4    1
    35    16    10   ar
@<TRIPOS>MOLECULE
*****
 31 35 0 0 0
SMALL
GASTEIGER

@<TRIPOS>ATOM
      1 C          -4.3513  -19.6972   21.3731 C.3     1  UNL1        0.0731
      2 N          -5.7242  -19.7787   20.7743 N.3     1  UNL1       -0.2712
      3 C          -6.1477  -20.6898   19.6605 C.3     1  UNL1        0.0738
      4 C          -7.5999  -20.4376   19.3821 C.3     1  UNL1        0.0372
      5 C          -8.7591  -20.8448   18.5216 C.3     1  UNL1        0.0245
      6 C          -9.9496  -20.0296   18.9316 C.3     1  UNL1        0.0909
      7 N          -9.5262  -19.1185   20.0455 N.pl3   1  UNL1       -0.3077
      8 C          -8.0740  -19.3707   20.3239 C.3     1  UNL1        0.0901
      9 C          -6.9147  -18.9635   21.1844 C.3     1  UNL1        0.0921
     10 C         -10.4013  -18.1290   20.7562 C.ar    1  UNL1        0.0480
     11 C         -11.2867  -17.2094   19.9686 C.ar    1  UNL1        0.0168
     12 C         -12.1618  -16.2200   20.6793 C.ar    1  UNL1        0.0309
     13 C         -12.1515  -16.1500   22.1776 C.ar    1  UNL1        0.1402
     14 F         -13.0267  -15.1605   22.8882 F       1  UNL1       -0.2042
     15 C         -11.2661  -17.0696   22.9653 C.ar    1  UNL1        0.0309
     16 C         -10.3910  -18.0591   22.2546 C.ar    1  UNL1        0.0168
     17 C          -3.2915  -18.8690   20.7091 C.3     1  UNL1        0.0294
     18 C          -1.9717  -18.6545   21.3888 C.3     1  UNL1        0.0666
     19 S          -1.7781  -17.4758   22.2961 S.3     1  UNL1       -0.0756
     20 C          -5.0051  -15.6679   23.4726 C.ar    1  UNL1        0.2029
     21 N          -4.3868  -14.6177   22.5980 N.ar    1  UNL1       -0.1250
     22 N          -3.1028  -15.1671   22.0509 N.ar    1  UNL1       -0.1220
     23 C          -2.9274  -16.5569   22.5873 C.ar    1  UNL1        0.1933
     24 N          -4.1031  -16.8665   23.4659 N.ar    1  UNL1       -0.2860
     25 C          -4.3359  -18.1493   24.2077 C.3     1  UNL1        0.1341
     26 C          -5.3425  -15.6007   26.7178 C.3     1  UNL1        0.0556
     27 C          -6.4533  -15.5109   25.7138 C.ar    1  UNL1        0.1001
     28 N          -7.9143  -15.3744   26.0251 N.ar    1  UNL1       -0.2085
     29 C          -8.6622  -15.3210   24.7260 C.ar    1  UNL1        0.2849
     30 O          -7.6634  -15.4244   23.6116 O.2     1  UNL1       -0.4283
     31 C          -6.2983  -15.5418   24.2222 C.ar    1  UNL1        0.1964
@<TRIPOS>BOND
     1    26    27    1
     2    27    28   ar
     3    28    29   ar
     4    29    30   ar
     5    30    31   ar
     6    31    20    1
     7    20    21   ar
     8    21    22   ar
     9    22    23   ar
    10    23    19    1
    11    19    18    1
    12    18    17    1
    13    17     1    1
    14     1     2    1
    15     2     3    1
    16     3     4    1
    17     4     5    1
    18     5     6    1
    19     6     7    1
    20     7    10    1
    21    10    11   ar
    22    11    12   ar
    23    12    13   ar
    24    13    14    1
    25    13    15   ar
    26    15    16   ar
    27     7     8    1
    28     8     9    1
    29    23    24   ar
    30    24    25    1
    31    31    27   ar
    32    24    20   ar
    33     9     2    1
    34     8     4    1
    35    16    10   ar
@<TRIPOS>MOLECULE
*****
 31 35 0 0 0
SMALL
GASTEIGER

@<TRIPOS>ATOM
      1 C           6.9013   -6.9032   26.4937 C.3     1  UNL1        0.0731
      2 N           7.3272   -6.1847   27.7396 N.3     1  UNL1       -0.2712
      3 C           8.6290   -6.3683   28.4619 C.3     1  UNL1        0.0738
      4 C           8.6324   -5.4534   29.6506 C.3     1  UNL1        0.0372
      5 C           9.4391   -5.0015   30.8317 C.3     1  UNL1        0.0245
      6 C           8.6380   -3.9732   31.5741 C.3     1  UNL1        0.0909
      7 N           7.3363   -3.7896   30.8517 N.pl3   1  UNL1       -0.3077
      8 C           7.3328   -4.7045   29.6629 C.3     1  UNL1        0.0901
      9 C           6.5262   -5.1564   28.4818 C.3     1  UNL1        0.0921
     10 C           6.2319   -2.8553   31.2484 C.ar    1  UNL1        0.0480
     11 C           5.7466   -1.8149   30.2829 C.ar    1  UNL1        0.0168
     12 C           4.6422   -0.8806   30.6796 C.ar    1  UNL1        0.0309
     13 C           4.0232   -0.9866   32.0418 C.ar    1  UNL1        0.1402
     14 F           2.9188   -0.0523   32.4385 F       1  UNL1       -0.2042
     15 C           4.5085   -2.0270   33.0073 C.ar    1  UNL1        0.0309
     16 C           5.6128   -2.9613   32.6106 C.ar    1  UNL1        0.0168
     17 C           7.9303   -7.5318   25.6014 C.3     1  UNL1        0.0294
     18 C           8.1279   -7.0178   24.2061 C.3     1  UNL1        0.0666
     19 S           8.4457   -5.5696   23.9784 S.3     1  UNL1       -0.0756
     20 C           6.5743   -3.4935   21.2852 C.ar    1  UNL1        0.2029
     21 N           5.6542   -3.3409   22.4600 N.ar    1  UNL1       -0.1250
     22 N           6.2432   -4.1000   23.6118 N.ar    1  UNL1       -0.1220
     23 C           7.5274   -4.7218   23.1489 C.ar    1  UNL1        0.1933
     24 N           7.7321   -4.3470   21.7110 N.ar    1  UNL1       -0.2860
     25 C           8.8909   -4.7542   20.8500 C.3     1  UNL1        0.1341
     26 C           4.5564   -4.6168   18.9795 C.3     1  UNL1        0.0556
     27 C           5.4447   -3.4136   18.8639 C.ar    1  UNL1        0.1001
     28 N           5.5614   -2.5155   17.6682 N.ar    1  UNL1       -0.2085
     29 C           6.5611   -1.4441   17.9889 C.ar    1  UNL1        0.2849
     30 O           7.0622   -1.6801   19.3829 O.2     1  UNL1       -0.4283
     31 C           6.3722   -2.8973   19.9236 C.ar    1  UNL1        0.1964
@<TRIPOS>BOND
     1    26    27    1
     2    27    28   ar
     3    28    29   ar
     4    29    30   ar
     5    30    31   ar
     6    31    20    1
     7    20    21   ar
     8    21    22   ar
     9    22    23   ar
    10    23    19    1
    11    19    18    1
    12    18    17    1
    13    17     1    1
    14     1     2    1
    15     2     3    1
    16     3     4    1
    17     4     5    1
    18     5     6    1
    19     6     7    1
    20     7    10    1
    21    10    11   ar
    22    11    12   ar
    23    12    13   ar
    24    13    14    1
    25    13    15   ar
    26    15    16   ar
    27     7     8    1
    28     8     9    1
    29    23    24   ar
    30    24    25    1
    31    31    27   ar
    32    24    20   ar
    33     9     2    1
    34     8     4    1
    35    16    10   ar
