@<TRIPOS>MOLECULE
*****
 42 47 0 0 0
SMALL
GASTEIGER

@<TRIPOS>ATOM
      1 C          -0.4702    3.5595   22.0336 C.3     1  UNL1        0.1631
      2 N          -1.9305    3.5947   22.3747 N.ar    1  UNL1       -0.3047
      3 C          -2.5132    3.5968   23.7569 C.ar    1  UNL1        0.1441
      4 N          -4.0073    3.6374   23.6299 N.ar    1  UNL1       -0.2267
      5 C          -4.3479    3.6603   22.1692 C.ar    1  UNL1        0.1010
      6 C          -5.6609    3.7018   21.4453 C.ar    1  UNL1        0.0526
      7 C          -5.6905    3.7169   19.9457 C.ar    1  UNL1        0.1690
      8 F          -7.0037    3.7584   19.2218 F       1  UNL1       -0.2017
      9 C          -4.4070    3.6906   19.1699 C.ar    1  UNL1        0.1689
     10 F          -4.4365    3.7057   17.6703 F       1  UNL1       -0.2017
     11 C          -3.0939    3.6491   19.8938 C.ar    1  UNL1        0.0507
     12 C          -3.0643    3.6339   21.3935 C.ar    1  UNL1        0.0816
     13 C          -1.7380    3.5641   25.0406 C.ar    1  UNL1        0.0342
     14 C          -0.9942    2.3230   25.4362 C.ar    1  UNL1        0.0039
     15 C          -0.2190    2.2903   26.7199 C.ar    1  UNL1        0.0115
     16 C          -0.1876    3.4987   27.6080 C.ar    1  UNL1        0.0577
     17 CL          0.5877    3.4659   28.8918 Cl      1  UNL1       -0.0822
     18 C          -0.9314    4.7397   27.2124 C.ar    1  UNL1        0.0115
     19 C          -1.7066    4.7725   25.9288 C.ar    1  UNL1        0.0039
     20 C           0.3592    4.8032   22.1574 C.3     1  UNL1        0.0297
     21 C           1.0593    5.1125   23.4474 C.3     1  UNL1        0.0024
     22 C           1.8886    6.3563   23.5712 C.3     1  UNL1        0.0001
     23 C           2.0179    7.2907   22.4050 C.3     1  UNL1        0.0000
     24 C           1.3178    6.9814   21.1149 C.3     1  UNL1        0.0001
     25 C           0.4884    5.7377   20.9912 C.3     1  UNL1        0.0024
     26 O          -0.6731    1.2379   20.8849 O.2     1  UNL1       -0.2727
     27 C           0.1609    2.2805   21.5687 C.2     1  UNL1        0.2469
     28 N           1.6259    2.0441   21.7877 N.am    1  UNL1       -0.2806
     29 H           2.1732    2.7283   22.2365 H       1  UNL1        0.1550
     30 C           2.2568    0.7651   21.3228 C.ar    1  UNL1        0.0782
     31 C           2.7106   -0.2547   22.3248 C.ar    1  UNL1        0.0171
     32 C           3.3416   -1.5338   21.8599 C.ar    1  UNL1        0.0045
     33 C           3.5187   -1.7930   20.3932 C.ar    1  UNL1        0.0394
     34 C           3.0648   -0.7731   19.3912 C.ar    1  UNL1        0.0340
     35 C           2.4339    0.5059   19.8560 C.ar    1  UNL1        0.1536
     36 F           1.9800    1.5258   18.8541 F       1  UNL1       -0.2029
     37 C           4.1496   -3.0719   19.9283 C.ar    1  UNL1        0.1806
     38 N           5.3764   -3.7115   20.5078 N.ar    1  UNL1       -0.1083
     39 N           5.6494   -4.9707   19.7399 N.ar    1  UNL1       -0.0229
     40 N           4.5914   -5.1095   18.6857 N.ar    1  UNL1       -0.0464
     41 N           3.6644   -3.9359   18.8021 N.ar    1  UNL1       -0.2388
     42 H           2.8760   -3.7631   18.2384 H       1  UNL1        0.1923
@<TRIPOS>BOND
     1    26    27    2
     2    27    28   am
     3    28    30    1
     4    30    31   ar
     5    31    32   ar
     6    32    33   ar
     7    33    37    1
     8    37    38   ar
     9    38    39   ar
    10    39    40   ar
    11    40    41   ar
    12    33    34   ar
    13    34    35   ar
    14    35    36    1
    15    27     1    1
    16     1    20    1
    17    20    21    1
    18    21    22    1
    19    22    23    1
    20    23    24    1
    21    24    25    1
    22     1     2    1
    23     2     3   ar
    24     3    13    1
    25    13    14   ar
    26    14    15   ar
    27    15    16   ar
    28    16    17    1
    29    16    18   ar
    30    18    19   ar
    31     3     4   ar
    32     4     5   ar
    33     5     6   ar
    34     6     7   ar
    35     7     8    1
    36     7     9   ar
    37     9    10    1
    38     9    11   ar
    39    11    12   ar
    40    35    30   ar
    41    25    20    1
    42    12     2   ar
    43    41    37   ar
    44    19    13   ar
    45    12     5   ar
    46    28    29    1
    47    41    42    1
@<TRIPOS>MOLECULE
*****
 42 47 0 0 0
SMALL
GASTEIGER

@<TRIPOS>ATOM
      1 C          -1.5056    4.0810   21.3416 C.3     1  UNL1        0.1631
      2 N          -2.1627    3.8415   22.6686 N.ar    1  UNL1       -0.3047
      3 C          -3.6356    3.8999   22.9464 C.ar    1  UNL1        0.1441
      4 N          -3.8455    3.5960   24.4002 N.ar    1  UNL1       -0.2267
      5 C          -2.5023    3.3498   25.0208 C.ar    1  UNL1        0.1010
      6 C          -2.0919    3.0070   26.4223 C.ar    1  UNL1        0.0526
      7 C          -0.6414    2.8160   26.7535 C.ar    1  UNL1        0.1690
      8 F          -0.2310    2.4732   28.1551 F       1  UNL1       -0.2017
      9 C           0.3986    2.9677   25.6833 C.ar    1  UNL1        0.1689
     10 F           1.8491    2.7766   26.0146 F       1  UNL1       -0.2017
     11 C          -0.0118    3.3104   24.2819 C.ar    1  UNL1        0.0507
     12 C          -1.4623    3.5015   23.9507 C.ar    1  UNL1        0.0816
     13 C          -4.7100    4.2081   21.9460 C.ar    1  UNL1        0.0342
     14 C          -5.0584    3.2050   20.8866 C.ar    1  UNL1        0.0039
     15 C          -6.1327    3.5132   19.8862 C.ar    1  UNL1        0.0115
     16 C          -6.8586    4.8244   19.9452 C.ar    1  UNL1        0.0577
     17 CL         -7.9330    5.1326   18.9447 Cl      1  UNL1       -0.0822
     18 C          -6.5102    5.8275   21.0046 C.ar    1  UNL1        0.0115
     19 C          -5.4359    5.5194   22.0050 C.ar    1  UNL1        0.0039
     20 C          -1.9901    5.1887   20.4538 C.3     1  UNL1        0.0297
     21 C          -2.4706    4.8821   19.0663 C.3     1  UNL1        0.0024
     22 C          -2.9550    5.9899   18.1785 C.3     1  UNL1        0.0001
     23 C          -2.9590    7.4042   18.6782 C.3     1  UNL1        0.0000
     24 C          -2.4785    7.7108   20.0657 C.3     1  UNL1        0.0001
     25 C          -1.9941    6.6031   20.9535 C.3     1  UNL1        0.0024
     26 O           1.0298    3.7663   20.8692 O.2     1  UNL1       -0.2727
     27 C          -0.3639    3.2127   20.9024 C.2     1  UNL1        0.2469
     28 N          -0.6160    1.7909   20.4963 N.am    1  UNL1       -0.2806
     29 H          -1.5308    1.4275   20.5181 H       1  UNL1        0.1550
     30 C           0.5256    0.9228   20.0572 C.ar    1  UNL1        0.0782
     31 C           1.0429   -0.1525   20.9661 C.ar    1  UNL1        0.0171
     32 C           2.1846   -1.0208   20.5270 C.ar    1  UNL1        0.0045
     33 C           2.8090   -0.8137   19.1789 C.ar    1  UNL1        0.0394
     34 C           2.2916    0.2616   18.2700 C.ar    1  UNL1        0.0340
     35 C           1.1500    1.1298   18.7091 C.ar    1  UNL1        0.1536
     36 F           0.6327    2.2051   17.8001 F       1  UNL1       -0.2029
     37 C           3.9507   -1.6818   18.7398 C.ar    1  UNL1        0.1806
     38 N           4.9119   -1.3792   17.6287 N.ar    1  UNL1       -0.1083
     39 N           5.8868   -2.5154   17.5369 N.ar    1  UNL1       -0.0229
     40 N           5.5281   -3.5204   18.5912 N.ar    1  UNL1       -0.0464
     41 N           4.3315   -3.0052   19.3346 N.ar    1  UNL1       -0.2388
     42 H           3.8761   -3.4564   20.0818 H       1  UNL1        0.1923
@<TRIPOS>BOND
     1    26    27    2
     2    27    28   am
     3    28    30    1
     4    30    31   ar
     5    31    32   ar
     6    32    33   ar
     7    33    37    1
     8    37    38   ar
     9    38    39   ar
    10    39    40   ar
    11    40    41   ar
    12    33    34   ar
    13    34    35   ar
    14    35    36    1
    15    27     1    1
    16     1    20    1
    17    20    21    1
    18    21    22    1
    19    22    23    1
    20    23    24    1
    21    24    25    1
    22     1     2    1
    23     2     3   ar
    24     3    13    1
    25    13    14   ar
    26    14    15   ar
    27    15    16   ar
    28    16    17    1
    29    16    18   ar
    30    18    19   ar
    31     3     4   ar
    32     4     5   ar
    33     5     6   ar
    34     6     7   ar
    35     7     8    1
    36     7     9   ar
    37     9    10    1
    38     9    11   ar
    39    11    12   ar
    40    35    30   ar
    41    25    20    1
    42    12     2   ar
    43    41    37   ar
    44    19    13   ar
    45    12     5   ar
    46    28    29    1
    47    41    42    1
@<TRIPOS>MOLECULE
*****
 42 47 0 0 0
SMALL
GASTEIGER

@<TRIPOS>ATOM
      1 C           1.2754    2.5227   20.6403 C.3     1  UNL1        0.1631
      2 N           2.0015    1.2717   21.0375 N.ar    1  UNL1       -0.3047
      3 C           2.2001    0.7747   22.4388 C.ar    1  UNL1        0.1441
      4 N           2.9778   -0.5061   22.3705 N.ar    1  UNL1       -0.2267
      5 C           3.2599   -0.8006   20.9270 C.ar    1  UNL1        0.1010
      6 C           3.9883   -1.9274   20.2563 C.ar    1  UNL1        0.0526
      7 C           4.1133   -1.9554   18.7617 C.ar    1  UNL1        0.1690
      8 F           4.8417   -3.0823   18.0910 F       1  UNL1       -0.2017
      9 C           3.5099   -0.8567   17.9379 C.ar    1  UNL1        0.1689
     10 F           3.6349   -0.8848   16.4434 F       1  UNL1       -0.2017
     11 C           2.7815    0.2700   18.6086 C.ar    1  UNL1        0.0507
     12 C           2.6565    0.2981   20.1031 C.ar    1  UNL1        0.0816
     13 C           1.7074    1.4415   23.6888 C.ar    1  UNL1        0.0342
     14 C           2.4681    2.5944   24.2736 C.ar    1  UNL1        0.0039
     15 C           1.9754    3.2612   25.5237 C.ar    1  UNL1        0.0115
     16 C           0.7220    2.7750   26.1889 C.ar    1  UNL1        0.0577
     17 CL          0.2294    3.4418   27.4390 Cl      1  UNL1       -0.0822
     18 C          -0.0387    1.6220   25.6041 C.ar    1  UNL1        0.0115
     19 C           0.4539    0.9553   24.3541 C.ar    1  UNL1        0.0039
     20 C           1.9804    3.5771   19.8398 C.3     1  UNL1        0.0297
     21 C           3.1344    4.3262   20.4375 C.3     1  UNL1        0.0024
     22 C           3.8395    5.3807   19.6370 C.3     1  UNL1        0.0001
     23 C           3.3907    5.6862   18.2387 C.3     1  UNL1        0.0000
     24 C           2.2367    4.9372   17.6409 C.3     1  UNL1        0.0001
     25 C           1.5316    3.8827   18.4415 C.3     1  UNL1        0.0024
     26 O          -1.2178    1.8029   20.5116 O.2     1  UNL1       -0.2727
     27 C          -0.1560    2.7192   21.0437 C.2     1  UNL1        0.2469
     28 N          -0.5256    3.8321   21.9791 N.am    1  UNL1       -0.2806
     29 H           0.1712    4.4335   22.3283 H       1  UNL1        0.1550
     30 C          -1.9570    4.0285   22.3823 C.ar    1  UNL1        0.0782
     31 C          -2.4035    3.6603   23.7662 C.ar    1  UNL1        0.0171
     32 C          -3.8349    3.8567   24.1696 C.ar    1  UNL1        0.0045
     33 C          -4.8197    4.4214   23.1891 C.ar    1  UNL1        0.0394
     34 C          -4.3731    4.7896   21.8052 C.ar    1  UNL1        0.0340
     35 C          -2.9418    4.5932   21.4019 C.ar    1  UNL1        0.1536
     36 F          -2.4952    4.9614   20.0180 F       1  UNL1       -0.2029
     37 C          -6.2510    4.6178   23.5924 C.ar    1  UNL1        0.1806
     38 N          -6.7525    5.5908   24.6179 N.ar    1  UNL1       -0.1083
     39 N          -8.2436    5.4500   24.7002 N.ar    1  UNL1       -0.0229
     40 N          -8.6637    4.3900   23.7256 N.ar    1  UNL1       -0.0464
     41 N          -7.4322    3.8756   23.0408 N.ar    1  UNL1       -0.2388
     42 H          -7.4041    3.1741   22.3507 H       1  UNL1        0.1923
@<TRIPOS>BOND
     1    26    27    2
     2    27    28   am
     3    28    30    1
     4    30    31   ar
     5    31    32   ar
     6    32    33   ar
     7    33    37    1
     8    37    38   ar
     9    38    39   ar
    10    39    40   ar
    11    40    41   ar
    12    33    34   ar
    13    34    35   ar
    14    35    36    1
    15    27     1    1
    16     1    20    1
    17    20    21    1
    18    21    22    1
    19    22    23    1
    20    23    24    1
    21    24    25    1
    22     1     2    1
    23     2     3   ar
    24     3    13    1
    25    13    14   ar
    26    14    15   ar
    27    15    16   ar
    28    16    17    1
    29    16    18   ar
    30    18    19   ar
    31     3     4   ar
    32     4     5   ar
    33     5     6   ar
    34     6     7   ar
    35     7     8    1
    36     7     9   ar
    37     9    10    1
    38     9    11   ar
    39    11    12   ar
    40    35    30   ar
    41    25    20    1
    42    12     2   ar
    43    41    37   ar
    44    19    13   ar
    45    12     5   ar
    46    28    29    1
    47    41    42    1
@<TRIPOS>MOLECULE
*****
 42 47 0 0 0
SMALL
GASTEIGER

@<TRIPOS>ATOM
      1 C           0.7726    2.9115   21.3843 C.3     1  UNL1        0.1631
      2 N           0.9180    2.0439   22.5993 N.ar    1  UNL1       -0.3047
      3 C           1.7790    0.8207   22.7112 C.ar    1  UNL1        0.1441
      4 N           1.6211    0.2680   24.0967 N.ar    1  UNL1       -0.2267
      5 C           0.6625    1.1496   24.8410 C.ar    1  UNL1        0.1010
      6 C           0.1292    1.0947   26.2419 C.ar    1  UNL1        0.0526
      7 C          -0.8387    2.1374   26.7173 C.ar    1  UNL1        0.1690
      8 F          -1.3720    2.0825   28.1183 F       1  UNL1       -0.2017
      9 C          -1.2732    3.2350   25.7918 C.ar    1  UNL1        0.1689
     10 F          -2.2411    4.2777   26.2672 F       1  UNL1       -0.2017
     11 C          -0.7399    3.2899   24.3909 C.ar    1  UNL1        0.0507
     12 C           0.2280    2.2472   23.9155 C.ar    1  UNL1        0.0816
     13 C           2.6457    0.2504   21.6279 C.ar    1  UNL1        0.0342
     14 C           4.1023    0.6038   21.5688 C.ar    1  UNL1        0.0039
     15 C           4.9690    0.0335   20.4855 C.ar    1  UNL1        0.0115
     16 C           4.3792   -0.8901   19.4614 C.ar    1  UNL1        0.0577
     17 CL          5.2460   -1.4604   18.3781 Cl      1  UNL1       -0.0822
     18 C           2.9226   -1.2435   19.5205 C.ar    1  UNL1        0.0115
     19 C           2.0559   -0.6732   20.6037 C.ar    1  UNL1        0.0039
     20 C           1.9580    3.1731   20.5032 C.3     1  UNL1        0.0297
     21 C           3.1001    4.0033   21.0094 C.3     1  UNL1        0.0024
     22 C           4.2855    4.2649   20.1283 C.3     1  UNL1        0.0001
     23 C           4.3288    3.6963   18.7409 C.3     1  UNL1        0.0000
     24 C           3.1867    2.8660   18.2347 C.3     1  UNL1        0.0001
     25 C           2.0013    2.6044   19.1158 C.3     1  UNL1        0.0024
     26 O          -0.7015    5.0077   20.9563 O.2     1  UNL1       -0.2727
     27 C          -0.5584    3.5175   21.0503 C.2     1  UNL1        0.2469
     28 N          -1.7461    2.6333   20.8105 N.am    1  UNL1       -0.2806
     29 H          -1.6522    1.6552   20.8723 H       1  UNL1        0.1550
     30 C          -3.0769    3.2393   20.4766 C.ar    1  UNL1        0.0782
     31 C          -4.1637    3.2781   21.5098 C.ar    1  UNL1        0.0171
     32 C          -5.4947    3.8842   21.1759 C.ar    1  UNL1        0.0045
     33 C          -5.7388    4.4515   19.8090 C.ar    1  UNL1        0.0394
     34 C          -4.6519    4.4127   18.7759 C.ar    1  UNL1        0.0340
     35 C          -3.3210    3.8066   19.1097 C.ar    1  UNL1        0.1536
     36 F          -2.2342    3.7679   18.0765 F       1  UNL1       -0.2029
     37 C          -7.0696    5.0575   19.4751 C.ar    1  UNL1        0.1806
     38 N          -7.6590    6.2884   20.0975 N.ar    1  UNL1       -0.1083
     39 N          -8.9984    6.5306   19.4672 N.ar    1  UNL1       -0.0229
     40 N          -9.2368    5.4495   18.4551 N.ar    1  UNL1       -0.0464
     41 N          -8.0447    4.5390   18.4599 N.ar    1  UNL1       -0.2388
     42 H          -7.9236    3.7412   17.8959 H       1  UNL1        0.1923
@<TRIPOS>BOND
     1    26    27    2
     2    27    28   am
     3    28    30    1
     4    30    31   ar
     5    31    32   ar
     6    32    33   ar
     7    33    37    1
     8    37    38   ar
     9    38    39   ar
    10    39    40   ar
    11    40    41   ar
    12    33    34   ar
    13    34    35   ar
    14    35    36    1
    15    27     1    1
    16     1    20    1
    17    20    21    1
    18    21    22    1
    19    22    23    1
    20    23    24    1
    21    24    25    1
    22     1     2    1
    23     2     3   ar
    24     3    13    1
    25    13    14   ar
    26    14    15   ar
    27    15    16   ar
    28    16    17    1
    29    16    18   ar
    30    18    19   ar
    31     3     4   ar
    32     4     5   ar
    33     5     6   ar
    34     6     7   ar
    35     7     8    1
    36     7     9   ar
    37     9    10    1
    38     9    11   ar
    39    11    12   ar
    40    35    30   ar
    41    25    20    1
    42    12     2   ar
    43    41    37   ar
    44    19    13   ar
    45    12     5   ar
    46    28    29    1
    47    41    42    1
@<TRIPOS>MOLECULE
*****
 42 47 0 0 0
SMALL
GASTEIGER

@<TRIPOS>ATOM
      1 C           2.2130    1.1639   21.2930 C.3     1  UNL1        0.1631
      2 N           2.7508    0.5800   20.0202 N.ar    1  UNL1       -0.3047
      3 C           2.8452    1.2830   18.6985 C.ar    1  UNL1        0.1441
      4 N           3.4413    0.3281   17.7072 N.ar    1  UNL1       -0.2267
      5 C           3.7153   -0.9651   18.4162 C.ar    1  UNL1        0.1010
      6 C           4.2983   -2.2642   17.9448 C.ar    1  UNL1        0.0526
      7 C           4.4545   -3.4077   18.9030 C.ar    1  UNL1        0.1690
      8 F           5.0375   -4.7070   18.4315 F       1  UNL1       -0.2017
      9 C           4.0277   -3.2521   20.3325 C.ar    1  UNL1        0.1689
     10 F           4.1839   -4.3956   21.2907 F       1  UNL1       -0.2017
     11 C           3.4447   -1.9529   20.8039 C.ar    1  UNL1        0.0507
     12 C           3.2885   -0.8094   19.8458 C.ar    1  UNL1        0.0816
     13 C           2.4184    2.6932   18.4176 C.ar    1  UNL1        0.0342
     14 C           0.9615    3.0226   18.2797 C.ar    1  UNL1        0.0039
     15 C           0.5347    4.4328   17.9987 C.ar    1  UNL1        0.0115
     16 C           1.5647    5.5137   17.8556 C.ar    1  UNL1        0.0577
     17 CL          1.1379    6.9241   17.5746 Cl      1  UNL1       -0.0822
     18 C           3.0216    5.1844   17.9935 C.ar    1  UNL1        0.0115
     19 C           3.4485    3.7742   18.2744 C.ar    1  UNL1        0.0039
     20 C           3.1286    1.3933   22.4586 C.3     1  UNL1        0.0297
     21 C           4.2128    2.4260   22.3689 C.3     1  UNL1        0.0024
     22 C           5.1285    2.6553   23.5346 C.3     1  UNL1        0.0001
     23 C           4.9600    1.8520   24.7901 C.3     1  UNL1        0.0000
     24 C           3.8758    0.8193   24.8799 C.3     1  UNL1        0.0001
     25 C           2.9602    0.5899   23.7142 C.3     1  UNL1        0.0024
     26 O          -0.2871    0.5253   20.9892 O.2     1  UNL1       -0.2727
     27 C           0.7593    1.5184   21.4001 C.2     1  UNL1        0.2469
     28 N           0.3522    2.8660   21.9179 N.am    1  UNL1       -0.2806
     29 H           1.0390    3.5178   22.1876 H       1  UNL1        0.1550
     30 C          -1.1014    3.2205   22.0250 C.ar    1  UNL1        0.0782
     31 C          -1.9266    3.3846   20.7832 C.ar    1  UNL1        0.0171
     32 C          -3.3803    3.7391   20.8902 C.ar    1  UNL1        0.0045
     33 C          -4.0086    3.9294   22.2389 C.ar    1  UNL1        0.0394
     34 C          -3.1832    3.7653   23.4806 C.ar    1  UNL1        0.0340
     35 C          -1.7296    3.4108   23.3737 C.ar    1  UNL1        0.1536
     36 F          -0.9043    3.2467   24.6154 F       1  UNL1       -0.2029
     37 C          -5.4621    4.2839   22.3459 C.ar    1  UNL1        0.1806
     38 N          -6.1853    5.3009   21.5137 N.ar    1  UNL1       -0.1083
     39 N          -7.6178    5.3291   21.9574 N.ar    1  UNL1       -0.0229
     40 N          -7.7801    4.3294   23.0640 N.ar    1  UNL1       -0.0464
     41 N          -6.4478    3.6834   23.3041 N.ar    1  UNL1       -0.2388
     42 H          -6.2542    2.9875   23.9731 H       1  UNL1        0.1923
@<TRIPOS>BOND
     1    26    27    2
     2    27    28   am
     3    28    30    1
     4    30    31   ar
     5    31    32   ar
     6    32    33   ar
     7    33    37    1
     8    37    38   ar
     9    38    39   ar
    10    39    40   ar
    11    40    41   ar
    12    33    34   ar
    13    34    35   ar
    14    35    36    1
    15    27     1    1
    16     1    20    1
    17    20    21    1
    18    21    22    1
    19    22    23    1
    20    23    24    1
    21    24    25    1
    22     1     2    1
    23     2     3   ar
    24     3    13    1
    25    13    14   ar
    26    14    15   ar
    27    15    16   ar
    28    16    17    1
    29    16    18   ar
    30    18    19   ar
    31     3     4   ar
    32     4     5   ar
    33     5     6   ar
    34     6     7   ar
    35     7     8    1
    36     7     9   ar
    37     9    10    1
    38     9    11   ar
    39    11    12   ar
    40    35    30   ar
    41    25    20    1
    42    12     2   ar
    43    41    37   ar
    44    19    13   ar
    45    12     5   ar
    46    28    29    1
    47    41    42    1
@<TRIPOS>MOLECULE
*****
 42 47 0 0 0
SMALL
GASTEIGER

@<TRIPOS>ATOM
      1 C           4.4870   -0.0941   23.5426 C.3     1  UNL1        0.1631
      2 N           3.0448    0.3182   23.5320 N.ar    1  UNL1       -0.3047
      3 C           2.1631    0.4104   22.3220 C.ar    1  UNL1        0.1441
      4 N           0.8045    0.8598   22.7717 N.ar    1  UNL1       -0.2267
      5 C           0.8466    1.0453   24.2596 C.ar    1  UNL1        0.1010
      6 C          -0.1970    1.4758   25.2473 C.ar    1  UNL1        0.0526
      7 C           0.1440    1.5716   26.7049 C.ar    1  UNL1        0.1690
      8 F          -0.8996    2.0021   27.6926 F       1  UNL1       -0.2017
      9 C           1.5286    1.2368   27.1748 C.ar    1  UNL1        0.1689
     10 F           1.8697    1.3326   28.6324 F       1  UNL1       -0.2017
     11 C           2.5722    0.8063   26.1871 C.ar    1  UNL1        0.0507
     12 C           2.2312    0.7106   24.7295 C.ar    1  UNL1        0.0816
     13 C           2.5687    0.1066   20.9102 C.ar    1  UNL1        0.0342
     14 C           2.6228    1.2069   19.8922 C.ar    1  UNL1        0.0039
     15 C           3.0285    0.9030   18.4804 C.ar    1  UNL1        0.0115
     16 C           3.3800   -0.5010   18.0867 C.ar    1  UNL1        0.0577
     17 CL          3.7857   -0.8048   16.6749 Cl      1  UNL1       -0.0822
     18 C           3.3259   -1.6012   19.1048 C.ar    1  UNL1        0.0115
     19 C           2.9203   -1.2975   20.5165 C.ar    1  UNL1        0.0039
     20 C           5.5419    0.8546   23.0556 C.3     1  UNL1        0.0297
     21 C           6.1549    0.6630   21.7000 C.3     1  UNL1        0.0024
     22 C           7.2098    1.6118   21.2131 C.3     1  UNL1        0.0001
     23 C           7.6517    2.7520   22.0816 C.3     1  UNL1        0.0000
     24 C           7.0387    2.9437   23.4372 C.3     1  UNL1        0.0001
     25 C           5.9838    1.9950   23.9241 C.3     1  UNL1        0.0024
     26 O           4.0339   -2.6480   23.6928 O.2     1  UNL1       -0.2727
     27 C           4.8744   -1.4551   24.0402 C.2     1  UNL1        0.2469
     28 N           6.1023   -1.6233   24.8852 N.am    1  UNL1       -0.2806
     29 H           6.6539   -0.8404   25.1132 H       1  UNL1        0.1550
     30 C           6.4895   -2.9843   25.3828 C.ar    1  UNL1        0.0782
     31 C           6.3654   -3.3130   26.8410 C.ar    1  UNL1        0.0171
     32 C           6.7527   -4.6741   27.3387 C.ar    1  UNL1        0.0045
     33 C           7.2641   -5.7064   26.3781 C.ar    1  UNL1        0.0394
     34 C           7.3882   -5.3776   24.9198 C.ar    1  UNL1        0.0340
     35 C           7.0009   -4.0166   24.4221 C.ar    1  UNL1        0.1536
     36 F           7.1250   -3.6879   22.9639 F       1  UNL1       -0.2029
     37 C           7.6514   -7.0674   26.8756 C.ar    1  UNL1        0.1806
     38 N           8.8477   -7.3896   27.7212 N.ar    1  UNL1       -0.1083
     39 N           8.8460   -8.8666   27.9831 N.ar    1  UNL1       -0.0229
     40 N           7.6485   -9.4573   27.2994 N.ar    1  UNL1       -0.0464
     41 N           6.9102   -8.3453   26.6149 N.ar    1  UNL1       -0.2388
     42 H           6.0842   -8.4379   26.0873 H       1  UNL1        0.1923
@<TRIPOS>BOND
     1    26    27    2
     2    27    28   am
     3    28    30    1
     4    30    31   ar
     5    31    32   ar
     6    32    33   ar
     7    33    37    1
     8    37    38   ar
     9    38    39   ar
    10    39    40   ar
    11    40    41   ar
    12    33    34   ar
    13    34    35   ar
    14    35    36    1
    15    27     1    1
    16     1    20    1
    17    20    21    1
    18    21    22    1
    19    22    23    1
    20    23    24    1
    21    24    25    1
    22     1     2    1
    23     2     3   ar
    24     3    13    1
    25    13    14   ar
    26    14    15   ar
    27    15    16   ar
    28    16    17    1
    29    16    18   ar
    30    18    19   ar
    31     3     4   ar
    32     4     5   ar
    33     5     6   ar
    34     6     7   ar
    35     7     8    1
    36     7     9   ar
    37     9    10    1
    38     9    11   ar
    39    11    12   ar
    40    35    30   ar
    41    25    20    1
    42    12     2   ar
    43    41    37   ar
    44    19    13   ar
    45    12     5   ar
    46    28    29    1
    47    41    42    1
@<TRIPOS>MOLECULE
*****
 42 47 0 0 0
SMALL
GASTEIGER

@<TRIPOS>ATOM
      1 C           5.6231   -1.2750   29.1229 C.3     1  UNL1        0.1631
      2 N           6.1166   -2.6336   29.5236 N.ar    1  UNL1       -0.3047
      3 C           6.2831   -3.1322   30.9285 C.ar    1  UNL1        0.1441
      4 N           6.7997   -4.5389   30.8629 N.ar    1  UNL1       -0.2267
      5 C           6.9524   -4.9097   29.4175 C.ar    1  UNL1        0.1010
      6 C           7.4214   -6.1674   28.7481 C.ar    1  UNL1        0.0526
      7 C           7.4682   -6.2476   27.2509 C.ar    1  UNL1        0.1690
      8 F           7.9372   -7.5055   26.5815 F       1  UNL1       -0.2017
      9 C           7.0460   -5.0701   26.4232 C.ar    1  UNL1        0.1689
     10 F           7.0928   -5.1503   24.9260 F       1  UNL1       -0.2017
     11 C           6.5770   -3.8124   27.0926 C.ar    1  UNL1        0.0507
     12 C           6.5303   -3.7321   28.5897 C.ar    1  UNL1        0.0816
     13 C           5.9853   -2.3597   32.1793 C.ar    1  UNL1        0.0342
     14 C           7.0740   -1.5821   32.8575 C.ar    1  UNL1        0.0039
     15 C           6.7762   -0.8096   34.1084 C.ar    1  UNL1        0.0115
     16 C           5.3899   -0.8147   34.6809 C.ar    1  UNL1        0.0577
     17 CL          5.0921   -0.0422   35.9318 Cl      1  UNL1       -0.0822
     18 C           4.3012   -1.5924   34.0026 C.ar    1  UNL1        0.0115
     19 C           4.5989   -2.3649   32.7519 C.ar    1  UNL1        0.0039
     20 C           6.0196   -0.0678   29.9200 C.3     1  UNL1        0.0297
     21 C           4.9857    0.6888   30.7000 C.3     1  UNL1        0.0024
     22 C           5.3823    1.8960   31.4970 C.3     1  UNL1        0.0001
     23 C           6.8129    2.3467   31.5141 C.3     1  UNL1        0.0000
     24 C           7.8469    1.5901   30.7340 C.3     1  UNL1        0.0001
     25 C           7.4503    0.3829   29.9370 C.3     1  UNL1        0.0024
     26 O           3.3235   -1.6352   27.9686 O.2     1  UNL1       -0.2727
     27 C           4.7328   -1.1235   27.9251 C.2     1  UNL1        0.2469
     28 N           5.2520   -0.4604   26.6838 N.am    1  UNL1       -0.2806
     29 H           6.1770   -0.1245   26.6553 H       1  UNL1        0.1550
     30 C           4.3618   -0.3090   25.4862 C.ar    1  UNL1        0.0782
     31 C           4.4957   -1.2529   24.3281 C.ar    1  UNL1        0.0171
     32 C           3.6054   -1.1016   23.1303 C.ar    1  UNL1        0.0045
     33 C           2.5813   -0.0063   23.0906 C.ar    1  UNL1        0.0394
     34 C           2.4475    0.9376   24.2487 C.ar    1  UNL1        0.0340
     35 C           3.3377    0.7863   25.4464 C.ar    1  UNL1        0.1536
     36 F           3.2038    1.7302   26.6045 F       1  UNL1       -0.2029
     37 C           1.6911    0.1451   21.8929 C.ar    1  UNL1        0.1806
     38 N           1.8460   -0.5695   20.5832 N.ar    1  UNL1       -0.1083
     39 N           0.7403   -0.1185   19.6755 N.ar    1  UNL1       -0.0229
     40 N          -0.0981    0.8749   20.4242 N.ar    1  UNL1       -0.0464
     41 N           0.4896    1.0378   21.7946 N.ar    1  UNL1       -0.2388
     42 H           0.1469    1.6272   22.5049 H       1  UNL1        0.1923
@<TRIPOS>BOND
     1    26    27    2
     2    27    28   am
     3    28    30    1
     4    30    31   ar
     5    31    32   ar
     6    32    33   ar
     7    33    37    1
     8    37    38   ar
     9    38    39   ar
    10    39    40   ar
    11    40    41   ar
    12    33    34   ar
    13    34    35   ar
    14    35    36    1
    15    27     1    1
    16     1    20    1
    17    20    21    1
    18    21    22    1
    19    22    23    1
    20    23    24    1
    21    24    25    1
    22     1     2    1
    23     2     3   ar
    24     3    13    1
    25    13    14   ar
    26    14    15   ar
    27    15    16   ar
    28    16    17    1
    29    16    18   ar
    30    18    19   ar
    31     3     4   ar
    32     4     5   ar
    33     5     6   ar
    34     6     7   ar
    35     7     8    1
    36     7     9   ar
    37     9    10    1
    38     9    11   ar
    39    11    12   ar
    40    35    30   ar
    41    25    20    1
    42    12     2   ar
    43    41    37   ar
    44    19    13   ar
    45    12     5   ar
    46    28    29    1
    47    41    42    1
@<TRIPOS>MOLECULE
*****
 42 47 0 0 0
SMALL
GASTEIGER

@<TRIPOS>ATOM
      1 C           2.9299    0.0718   20.4558 C.3     1  UNL1        0.1631
      2 N           3.7234    1.0378   19.6268 N.ar    1  UNL1       -0.3047
      3 C           5.1870    0.9362   19.3141 C.ar    1  UNL1        0.1441
      4 N           5.5608    2.1106   18.4591 N.ar    1  UNL1       -0.2267
      5 C           4.3284    2.9379   18.2434 C.ar    1  UNL1        0.1010
      6 C           4.0935    4.2094   17.4831 C.ar    1  UNL1        0.0526
      7 C           2.7230    4.8179   17.4445 C.ar    1  UNL1        0.1690
      8 F           2.4881    6.0895   16.6841 F       1  UNL1       -0.2017
      9 C           1.5874    4.1549   18.1662 C.ar    1  UNL1        0.1689
     10 F           0.2169    4.7634   18.1276 F       1  UNL1       -0.2017
     11 C           1.8223    2.8834   18.9265 C.ar    1  UNL1        0.0507
     12 C           3.1928    2.2749   18.9651 C.ar    1  UNL1        0.0816
     13 C           6.1138   -0.1492   19.7754 C.ar    1  UNL1        0.0342
     14 C           6.4673   -1.2766   18.8512 C.ar    1  UNL1        0.0039
     15 C           7.3942   -2.3620   19.3125 C.ar    1  UNL1        0.0115
     16 C           7.9675   -2.3201   20.6979 C.ar    1  UNL1        0.0577
     17 CL          8.8944   -3.4056   21.1591 Cl      1  UNL1       -0.0822
     18 C           7.6140   -1.1928   21.6221 C.ar    1  UNL1        0.0115
     19 C           6.6872   -0.1074   21.1609 C.ar    1  UNL1        0.0039
     20 C           3.3316   -1.3721   20.5149 C.3     1  UNL1        0.0297
     21 C           3.1715   -2.2454   19.3059 C.3     1  UNL1        0.0024
     22 C           3.5733   -3.6894   19.3652 C.3     1  UNL1        0.0001
     23 C           4.1352   -4.2601   20.6334 C.3     1  UNL1        0.0000
     24 C           4.2954   -3.3869   21.8425 C.3     1  UNL1        0.0001
     25 C           3.8936   -1.9429   21.7832 C.3     1  UNL1        0.0024
     26 O           0.3740   -0.0013   20.9166 O.2     1  UNL1       -0.2727
     27 C           1.7344    0.5498   21.2256 C.2     1  UNL1        0.2469
     28 N           1.8995    1.5789   22.3044 N.am    1  UNL1       -0.2806
     29 H           2.7924    1.9406   22.5072 H       1  UNL1        0.1550
     30 C           0.7041    2.0568   23.0741 C.ar    1  UNL1        0.0782
     31 C          -0.2610    3.0152   22.4416 C.ar    1  UNL1        0.0171
     32 C          -1.4565    3.4932   23.2114 C.ar    1  UNL1        0.0045
     33 C          -1.6869    3.0128   24.6135 C.ar    1  UNL1        0.0394
     34 C          -0.7217    2.0543   25.2460 C.ar    1  UNL1        0.0340
     35 C           0.4738    1.5764   24.4763 C.ar    1  UNL1        0.1536
     36 F           1.4389    0.6180   25.1088 F       1  UNL1       -0.2029
     37 C          -2.8823    3.4907   25.3833 C.ar    1  UNL1        0.1806
     38 N          -2.8819    3.9691   26.8049 N.ar    1  UNL1       -0.1083
     39 N          -4.2874    4.3482   27.1667 N.ar    1  UNL1       -0.0229
     40 N          -5.1564    4.1040   25.9687 N.ar    1  UNL1       -0.0464
     41 N          -4.2880    3.5740   24.8664 N.ar    1  UNL1       -0.2388
     42 H          -4.5880    3.3247   23.9625 H       1  UNL1        0.1923
@<TRIPOS>BOND
     1    26    27    2
     2    27    28   am
     3    28    30    1
     4    30    31   ar
     5    31    32   ar
     6    32    33   ar
     7    33    37    1
     8    37    38   ar
     9    38    39   ar
    10    39    40   ar
    11    40    41   ar
    12    33    34   ar
    13    34    35   ar
    14    35    36    1
    15    27     1    1
    16     1    20    1
    17    20    21    1
    18    21    22    1
    19    22    23    1
    20    23    24    1
    21    24    25    1
    22     1     2    1
    23     2     3   ar
    24     3    13    1
    25    13    14   ar
    26    14    15   ar
    27    15    16   ar
    28    16    17    1
    29    16    18   ar
    30    18    19   ar
    31     3     4   ar
    32     4     5   ar
    33     5     6   ar
    34     6     7   ar
    35     7     8    1
    36     7     9   ar
    37     9    10    1
    38     9    11   ar
    39    11    12   ar
    40    35    30   ar
    41    25    20    1
    42    12     2   ar
    43    41    37   ar
    44    19    13   ar
    45    12     5   ar
    46    28    29    1
    47    41    42    1
@<TRIPOS>MOLECULE
*****
 42 47 0 0 0
SMALL
GASTEIGER

@<TRIPOS>ATOM
      1 C           2.9539    0.2116   27.4937 C.3     1  UNL1        0.1631
      2 N           3.8588   -0.0278   28.6658 N.ar    1  UNL1       -0.3047
      3 C           3.8493    0.7351   29.9573 C.ar    1  UNL1        0.1441
      4 N           4.9166    0.1622   30.8419 N.ar    1  UNL1       -0.2267
      5 C           5.5857   -0.9548   30.0972 C.ar    1  UNL1        0.1010
      6 C           6.7058   -1.8802   30.4700 C.ar    1  UNL1        0.0526
      7 C           7.1721   -2.9230   29.4979 C.ar    1  UNL1        0.1690
      8 F           8.2923   -3.8484   29.8707 F       1  UNL1       -0.2017
      9 C           6.5184   -3.0405   28.1530 C.ar    1  UNL1        0.1689
     10 F           6.9848   -4.0833   27.1808 F       1  UNL1       -0.2017
     11 C           5.3983   -2.1151   27.7802 C.ar    1  UNL1        0.0507
     12 C           4.9319   -1.0723   28.7523 C.ar    1  UNL1        0.0816
     13 C           2.9333    1.8715   30.3033 C.ar    1  UNL1        0.0342
     14 C           1.7671    1.6427   31.2184 C.ar    1  UNL1        0.0039
     15 C           0.8511    2.7790   31.5644 C.ar    1  UNL1        0.0115
     16 C           1.1013    4.1440   30.9953 C.ar    1  UNL1        0.0577
     17 CL          0.1853    5.2804   31.3413 Cl      1  UNL1       -0.0822
     18 C           2.2675    4.3728   30.0801 C.ar    1  UNL1        0.0115
     19 C           3.1835    3.2365   29.7341 C.ar    1  UNL1        0.0039
     20 C           1.5190    0.5863   27.7181 C.3     1  UNL1        0.0297
     21 C           0.6217   -0.3201   28.5076 C.3     1  UNL1        0.0024
     22 C          -0.8132    0.0547   28.7320 C.3     1  UNL1        0.0001
     23 C          -1.3510    1.3358   28.1669 C.3     1  UNL1        0.0000
     24 C          -0.4538    2.2423   27.3773 C.3     1  UNL1        0.0001
     25 C           0.9811    1.8675   27.1529 C.3     1  UNL1        0.0024
     26 O           4.7103    0.8350   25.6835 O.2     1  UNL1       -0.2727
     27 C           3.4841    0.0764   26.0969 C.2     1  UNL1        0.2469
     28 N           2.7881   -0.8175   25.1138 N.am    1  UNL1       -0.2806
     29 H           1.9833   -1.3154   25.3852 H       1  UNL1        0.1550
     30 C           3.3183   -0.9527   23.7172 C.ar    1  UNL1        0.0782
     31 C           2.7573   -0.1020   22.6164 C.ar    1  UNL1        0.0171
     32 C           3.2875   -0.2371   21.2197 C.ar    1  UNL1        0.0045
     33 C           4.3787   -1.2229   20.9238 C.ar    1  UNL1        0.0394
     34 C           4.9396   -2.0736   22.0247 C.ar    1  UNL1        0.0340
     35 C           4.4095   -1.9384   23.4213 C.ar    1  UNL1        0.1536
     36 F           4.9705   -2.7891   24.5221 F       1  UNL1       -0.2029
     37 C           4.9089   -1.3581   19.5272 C.ar    1  UNL1        0.1806
     38 N           6.2599   -1.8854   19.1442 N.ar    1  UNL1       -0.1083
     39 N           6.3671   -1.8429   17.6487 N.ar    1  UNL1       -0.0229
     40 N           5.0823   -1.2893   17.1073 N.ar    1  UNL1       -0.0464
     41 N           4.1811   -0.9897   18.2683 N.ar    1  UNL1       -0.2388
     42 H           3.2716   -0.6167   18.2138 H       1  UNL1        0.1923
@<TRIPOS>BOND
     1    26    27    2
     2    27    28   am
     3    28    30    1
     4    30    31   ar
     5    31    32   ar
     6    32    33   ar
     7    33    37    1
     8    37    38   ar
     9    38    39   ar
    10    39    40   ar
    11    40    41   ar
    12    33    34   ar
    13    34    35   ar
    14    35    36    1
    15    27     1    1
    16     1    20    1
    17    20    21    1
    18    21    22    1
    19    22    23    1
    20    23    24    1
    21    24    25    1
    22     1     2    1
    23     2     3   ar
    24     3    13    1
    25    13    14   ar
    26    14    15   ar
    27    15    16   ar
    28    16    17    1
    29    16    18   ar
    30    18    19   ar
    31     3     4   ar
    32     4     5   ar
    33     5     6   ar
    34     6     7   ar
    35     7     8    1
    36     7     9   ar
    37     9    10    1
    38     9    11   ar
    39    11    12   ar
    40    35    30   ar
    41    25    20    1
    42    12     2   ar
    43    41    37   ar
    44    19    13   ar
    45    12     5   ar
    46    28    29    1
    47    41    42    1
