@<TRIPOS>MOLECULE
*****
 38 44 0 0 0
SMALL
GASTEIGER

@<TRIPOS>ATOM
      1 N           3.0456   -1.3058   20.4295 N.ar    1  UNL1       -0.3274
      2 C           1.9839   -0.2476   20.4852 C.ar    1  UNL1        0.0599
      3 C           1.1149    0.3591   19.4237 C.ar    1  UNL1        0.0185
      4 C           0.1209    1.4225   19.7856 C.ar    1  UNL1        0.0162
      5 C          -0.0042    1.8792   21.2090 C.ar    1  UNL1        0.0506
      6 C           0.8648    1.2724   22.2704 C.ar    1  UNL1        0.0161
      7 C           1.8589    0.2091   21.9085 C.ar    1  UNL1        0.0182
      8 C           2.8433   -0.5669   22.7324 C.ar    1  UNL1        0.0147
      9 C           3.1666   -0.5419   24.1969 C.ar    1  UNL1        0.0032
     10 C           4.2233   -1.4532   24.7474 C.ar    1  UNL1        0.0509
     11 C           4.9567   -2.3894   23.8333 C.ar    1  UNL1        0.0042
     12 C           4.6334   -2.4144   22.3688 C.ar    1  UNL1       -0.0058
     13 C           3.5767   -1.5032   21.8183 C.ar    1  UNL1        0.0556
     14 C           5.3669   -3.3507   21.4547 C.3     1  UNL1        0.0342
     15 C           6.4235   -4.2619   22.0052 C.3     1  UNL1        0.0524
     16 C           6.7468   -4.2369   23.4697 C.ar    1  UNL1        0.0803
     17 N           7.7312   -5.0129   24.2936 N.ar    1  UNL1       -0.1736
     18 N           7.6062   -4.5562   25.7169 N.ar    1  UNL1       -0.2477
     19 C           8.4030   -5.0679   26.8803 C.3     1  UNL1        0.1537
     20 C           6.5445   -3.4980   25.7726 C.ar    1  UNL1        0.0963
     21 C           6.0134   -3.3007   24.3838 C.ar    1  UNL1        0.0339
     22 C           4.3247   -1.2070   26.2236 C.2     1  UNL1        0.2458
     23 O           5.2565   -1.9021   27.1715 O.2     1  UNL1       -0.2701
     24 N           3.3305   -0.1435   26.5855 N.am    1  UNL1       -0.2969
     25 C           2.6148    0.2675   25.3330 C.3     1  UNL1        0.1168
     26 H           3.1751    0.2207   27.4868 H       1  UNL1        0.1501
     27 N          -0.9983    2.9426   21.5708 N.pl3   1  UNL1       -0.2825
     28 H          -0.9062    3.4346   22.4186 H       1  UNL1        0.1551
     29 C          -2.1326    3.2565   20.6410 C.ar    1  UNL1        0.2207
     30 N          -1.8576    3.8898   19.3093 N.ar    1  UNL1       -0.2120
     31 C          -2.9920    4.2037   18.3794 C.ar    1  UNL1        0.1034
     32 C          -4.4014    3.8844   18.7813 C.ar    1  UNL1        0.0414
     33 C          -4.6765    3.2512   20.1130 C.ar    1  UNL1        0.1034
     34 N          -3.5422    2.9373   21.0428 N.ar    1  UNL1       -0.2120
     35 C           3.4969   -2.0381   19.2006 C.3     1  UNL1        0.1059
     36 C           3.7778   -0.8395   16.9127 C.3     1  UNL1        0.0020
     37 C           4.3689   -1.3480   18.1941 C.3     1  UNL1        0.0226
     38 C           5.8324   -1.1663   18.4689 C.3     1  UNL1        0.0020
@<TRIPOS>BOND
     1    36    37    1
     2    37    38    1
     3    37    35    1
     4    35     1    1
     5     1     2   ar
     6     2     3   ar
     7     3     4   ar
     8     4     5   ar
     9     5    27    1
    10    27    29    1
    11    29    30   ar
    12    30    31   ar
    13    31    32   ar
    14    32    33   ar
    15    33    34   ar
    16     5     6   ar
    17     6     7   ar
    18     7     8   ar
    19     8     9   ar
    20     9    10   ar
    21    10    11   ar
    22    11    12   ar
    23    12    13   ar
    24    12    14    1
    25    14    15    1
    26    15    16    1
    27    16    17   ar
    28    17    18   ar
    29    18    19    1
    30    18    20   ar
    31    20    21   ar
    32    10    22    1
    33    22    23    2
    34    22    24   am
    35    24    25    1
    36    13     1   ar
    37    21    16   ar
    38     7     2   ar
    39    13     8   ar
    40    34    29   ar
    41    25     9    1
    42    21    11    1
    43    27    28    1
    44    24    26    1
@<TRIPOS>MOLECULE
*****
 38 44 0 0 0
SMALL
GASTEIGER

@<TRIPOS>ATOM
      1 N           4.3468   -2.3592   20.4902 N.ar    1  UNL1       -0.3274
      2 C           5.3554   -3.0669   21.3457 C.ar    1  UNL1        0.0599
      3 C           6.4152   -4.0773   21.0203 C.ar    1  UNL1        0.0185
      4 C           7.2940   -4.6193   22.1083 C.ar    1  UNL1        0.0162
      5 C           7.1131   -4.1509   23.5218 C.ar    1  UNL1        0.0506
      6 C           6.0533   -3.1405   23.8472 C.ar    1  UNL1        0.0161
      7 C           5.1744   -2.5986   22.7592 C.ar    1  UNL1        0.0182
      8 C           4.0540   -1.6014   22.7772 C.ar    1  UNL1        0.0147
      9 C           3.4334   -0.8090   23.8894 C.ar    1  UNL1        0.0032
     10 C           2.3013    0.1313   23.5993 C.ar    1  UNL1        0.0509
     11 C           1.7898    0.2793   22.1970 C.ar    1  UNL1        0.0042
     12 C           2.4103   -0.5131   21.0848 C.ar    1  UNL1       -0.0058
     13 C           3.5424   -1.4535   21.3749 C.ar    1  UNL1        0.0556
     14 C           1.8988   -0.3652   19.6825 C.3     1  UNL1        0.0342
     15 C           0.7668    0.5751   19.3924 C.3     1  UNL1        0.0524
     16 C           0.1462    1.3675   20.5046 C.ar    1  UNL1        0.0803
     17 N          -0.9742    2.3646   20.5226 N.ar    1  UNL1       -0.1736
     18 N          -1.1552    2.8330   21.9361 N.ar    1  UNL1       -0.2477
     19 C          -2.1671    3.8334   22.4107 C.3     1  UNL1        0.1537
     20 C          -0.1466    2.1253   22.7916 C.ar    1  UNL1        0.0963
     21 C           0.6577    1.2196   21.9069 C.ar    1  UNL1        0.0339
     22 C           1.8916    0.7758   24.8904 C.2     1  UNL1        0.2458
     23 O           0.7954    1.7851   25.0631 O.2     1  UNL1       -0.2701
     24 N           2.7705    0.2338   25.9784 N.am    1  UNL1       -0.2969
     25 C           3.7233   -0.7457   25.3598 C.3     1  UNL1        0.1168
     26 H           2.7292    0.4780   26.9313 H       1  UNL1        0.1501
     27 N           7.9920   -4.6930   24.6098 N.pl3   1  UNL1       -0.2825
     28 H           8.8292   -5.1576   24.3807 H       1  UNL1        0.1551
     29 C           7.5953   -4.5271   26.0468 C.ar    1  UNL1        0.2207
     30 N           6.6443   -5.4995   26.6794 N.ar    1  UNL1       -0.2120
     31 C           6.2476   -5.3336   28.1165 C.ar    1  UNL1        0.1034
     32 C           6.8020   -4.1954   28.9210 C.ar    1  UNL1        0.0414
     33 C           7.7530   -3.2231   28.2884 C.ar    1  UNL1        0.1034
     34 N           8.1497   -3.3889   26.8514 N.ar    1  UNL1       -0.2120
     35 C           4.1730   -2.5277   19.0099 C.3     1  UNL1        0.1059
     36 C           4.2921   -0.7689   17.1014 C.3     1  UNL1        0.0020
     37 C           4.9811   -1.6942   18.0601 C.3     1  UNL1        0.0226
     38 C           6.4783   -1.7859   18.0690 C.3     1  UNL1        0.0020
@<TRIPOS>BOND
     1    36    37    1
     2    37    38    1
     3    37    35    1
     4    35     1    1
     5     1     2   ar
     6     2     3   ar
     7     3     4   ar
     8     4     5   ar
     9     5    27    1
    10    27    29    1
    11    29    30   ar
    12    30    31   ar
    13    31    32   ar
    14    32    33   ar
    15    33    34   ar
    16     5     6   ar
    17     6     7   ar
    18     7     8   ar
    19     8     9   ar
    20     9    10   ar
    21    10    11   ar
    22    11    12   ar
    23    12    13   ar
    24    12    14    1
    25    14    15    1
    26    15    16    1
    27    16    17   ar
    28    17    18   ar
    29    18    19    1
    30    18    20   ar
    31    20    21   ar
    32    10    22    1
    33    22    23    2
    34    22    24   am
    35    24    25    1
    36    13     1   ar
    37    21    16   ar
    38     7     2   ar
    39    13     8   ar
    40    34    29   ar
    41    25     9    1
    42    21    11    1
    43    27    28    1
    44    24    26    1
@<TRIPOS>MOLECULE
*****
 38 44 0 0 0
SMALL
GASTEIGER

@<TRIPOS>ATOM
      1 N           8.0687   -4.6886   26.0966 N.ar    1  UNL1       -0.3274
      2 C           8.2500   -4.5873   27.5822 C.ar    1  UNL1        0.0599
      3 C           9.2094   -5.2526   28.5239 C.ar    1  UNL1        0.0185
      4 C           9.1522   -4.9484   29.9916 C.ar    1  UNL1        0.0162
      5 C           8.1357   -3.9787   30.5175 C.ar    1  UNL1        0.0506
      6 C           7.1764   -3.3134   29.5758 C.ar    1  UNL1        0.0161
      7 C           7.2336   -3.6176   28.1081 C.ar    1  UNL1        0.0182
      8 C           6.4241   -3.1198   26.9476 C.ar    1  UNL1        0.0147
      9 C           5.2836   -2.1492   26.8622 C.ar    1  UNL1        0.0032
     10 C           4.6593   -1.8405   25.5336 C.ar    1  UNL1        0.0509
     11 C           5.1755   -2.5024   24.2905 C.ar    1  UNL1        0.0042
     12 C           6.3160   -3.4729   24.3758 C.ar    1  UNL1       -0.0058
     13 C           6.9402   -3.7816   25.7044 C.ar    1  UNL1        0.0556
     14 C           6.8321   -4.1348   23.1327 C.3     1  UNL1        0.0342
     15 C           6.2079   -3.8261   21.8042 C.3     1  UNL1        0.0524
     16 C           5.0674   -2.8555   21.7189 C.ar    1  UNL1        0.0803
     17 N           4.2579   -2.3576   20.5583 N.ar    1  UNL1       -0.1736
     18 N           3.2415   -1.3880   21.0842 N.ar    1  UNL1       -0.2477
     19 C           2.2225   -0.6494   20.2678 C.3     1  UNL1        0.1537
     20 C           3.4227   -1.2867   22.5698 C.ar    1  UNL1        0.0963
     21 C           4.5512   -2.1937   22.9619 C.ar    1  UNL1        0.0339
     22 C           3.5567   -0.8486   25.7588 C.2     1  UNL1        0.2458
     23 O           2.6674   -0.2638   24.7019 O.2     1  UNL1       -0.2701
     24 N           3.4996   -0.5444   27.2266 N.am    1  UNL1       -0.2969
     25 C           4.5668   -1.3481   27.9085 C.3     1  UNL1        0.1168
     26 H           2.8718    0.0742   27.6653 H       1  UNL1        0.1501
     27 N           8.0786   -3.6745   31.9853 N.pl3   1  UNL1       -0.2825
     28 H           8.7453   -4.0652   32.5953 H       1  UNL1        0.1551
     29 C           7.0057   -2.7750   32.5236 C.ar    1  UNL1        0.2207
     30 N           7.3140   -1.3390   32.8284 N.ar    1  UNL1       -0.2120
     31 C           6.2410   -0.4395   33.3667 C.ar    1  UNL1        0.1034
     32 C           4.8599   -0.9760   33.6001 C.ar    1  UNL1        0.0414
     33 C           4.5516   -2.4120   33.2953 C.ar    1  UNL1        0.1034
     34 N           5.6244   -3.3115   32.7570 N.ar    1  UNL1       -0.2120
     35 C           8.8745   -5.5464   25.1666 C.3     1  UNL1        0.1059
     36 C           7.5851   -7.7170   25.7796 C.3     1  UNL1        0.0020
     37 C           8.3865   -6.9156   24.7969 C.3     1  UNL1        0.0226
     38 C           8.6999   -7.4838   23.4444 C.3     1  UNL1        0.0020
@<TRIPOS>BOND
     1    36    37    1
     2    37    38    1
     3    37    35    1
     4    35     1    1
     5     1     2   ar
     6     2     3   ar
     7     3     4   ar
     8     4     5   ar
     9     5    27    1
    10    27    29    1
    11    29    30   ar
    12    30    31   ar
    13    31    32   ar
    14    32    33   ar
    15    33    34   ar
    16     5     6   ar
    17     6     7   ar
    18     7     8   ar
    19     8     9   ar
    20     9    10   ar
    21    10    11   ar
    22    11    12   ar
    23    12    13   ar
    24    12    14    1
    25    14    15    1
    26    15    16    1
    27    16    17   ar
    28    17    18   ar
    29    18    19    1
    30    18    20   ar
    31    20    21   ar
    32    10    22    1
    33    22    23    2
    34    22    24   am
    35    24    25    1
    36    13     1   ar
    37    21    16   ar
    38     7     2   ar
    39    13     8   ar
    40    34    29   ar
    41    25     9    1
    42    21    11    1
    43    27    28    1
    44    24    26    1
@<TRIPOS>MOLECULE
*****
 38 44 0 0 0
SMALL
GASTEIGER

@<TRIPOS>ATOM
      1 N           2.2963   -0.4996   20.7286 N.ar    1  UNL1       -0.3274
      2 C           1.3526    0.6082   21.0923 C.ar    1  UNL1        0.0599
      3 C           0.3891    1.4152   20.2735 C.ar    1  UNL1        0.0185
      4 C          -0.4411    2.4803   20.9264 C.ar    1  UNL1        0.0162
      5 C          -0.3077    2.7385   22.3980 C.ar    1  UNL1        0.0506
      6 C           0.6558    1.9315   23.2167 C.ar    1  UNL1        0.0161
      7 C           1.4859    0.8663   22.5639 C.ar    1  UNL1        0.0182
      8 C           2.5120   -0.0819   23.1097 C.ar    1  UNL1        0.0147
      9 C           3.0551   -0.2857   24.4930 C.ar    1  UNL1        0.0032
     10 C           4.0989   -1.3337   24.7420 C.ar    1  UNL1        0.0509
     11 C           4.5998   -2.1779   23.6078 C.ar    1  UNL1        0.0042
     12 C           4.0568   -1.9741   22.2245 C.ar    1  UNL1       -0.0058
     13 C           3.0129   -0.9261   21.9754 C.ar    1  UNL1        0.0556
     14 C           4.5576   -2.8183   21.0903 C.3     1  UNL1        0.0342
     15 C           5.6014   -3.8663   21.3394 C.3     1  UNL1        0.0524
     16 C           6.1445   -4.0701   22.7227 C.ar    1  UNL1        0.0803
     17 N           7.1706   -5.0183   23.2685 N.ar    1  UNL1       -0.1736
     18 N           7.3039   -4.7602   24.7401 N.ar    1  UNL1       -0.2477
     19 C           8.2202   -5.4830   25.6826 C.3     1  UNL1        0.1537
     20 C           6.3602   -3.6524   25.1037 C.ar    1  UNL1        0.0963
     21 C           5.6437   -3.2259   23.8569 C.ar    1  UNL1        0.0339
     22 C           4.4447   -1.3060   26.2015 C.2     1  UNL1        0.2458
     23 O           5.4450   -2.1884   26.8875 O.2     1  UNL1       -0.2701
     24 N           3.6145   -0.2408   26.8543 N.am    1  UNL1       -0.2969
     25 C           2.7557    0.3898   25.7985 C.3     1  UNL1        0.1168
     26 H           3.6305    0.0019   27.8083 H       1  UNL1        0.1501
     27 N          -1.1380    3.8037   23.0508 N.pl3   1  UNL1       -0.2825
     28 H          -0.7052    4.6052   23.4244 H       1  UNL1        0.1551
     29 C          -2.6275    3.6476   23.1345 C.ar    1  UNL1        0.2207
     30 N          -3.4237    3.3726   21.8934 N.ar    1  UNL1       -0.2120
     31 C          -4.9132    3.2165   21.9771 C.ar    1  UNL1        0.1034
     32 C          -5.6065    3.3356   23.3020 C.ar    1  UNL1        0.0414
     33 C          -4.8103    3.6106   24.5431 C.ar    1  UNL1        0.1034
     34 N          -3.3208    3.7667   24.4594 N.ar    1  UNL1       -0.2120
     35 C           2.4895   -1.0791   19.3586 C.3     1  UNL1        0.1059
     36 C           3.5292    1.0442   18.2815 C.3     1  UNL1        0.0020
     37 C           3.4639   -0.4490   18.4083 C.3     1  UNL1        0.0226
     38 C           4.3732   -1.3120   17.5846 C.3     1  UNL1        0.0020
@<TRIPOS>BOND
     1    36    37    1
     2    37    38    1
     3    37    35    1
     4    35     1    1
     5     1     2   ar
     6     2     3   ar
     7     3     4   ar
     8     4     5   ar
     9     5    27    1
    10    27    29    1
    11    29    30   ar
    12    30    31   ar
    13    31    32   ar
    14    32    33   ar
    15    33    34   ar
    16     5     6   ar
    17     6     7   ar
    18     7     8   ar
    19     8     9   ar
    20     9    10   ar
    21    10    11   ar
    22    11    12   ar
    23    12    13   ar
    24    12    14    1
    25    14    15    1
    26    15    16    1
    27    16    17   ar
    28    17    18   ar
    29    18    19    1
    30    18    20   ar
    31    20    21   ar
    32    10    22    1
    33    22    23    2
    34    22    24   am
    35    24    25    1
    36    13     1   ar
    37    21    16   ar
    38     7     2   ar
    39    13     8   ar
    40    34    29   ar
    41    25     9    1
    42    21    11    1
    43    27    28    1
    44    24    26    1
@<TRIPOS>MOLECULE
*****
 38 44 0 0 0
SMALL
GASTEIGER

@<TRIPOS>ATOM
      1 N           2.0171    1.0700   24.7105 N.ar    1  UNL1       -0.3274
      2 C           1.0708    1.6970   23.7299 C.ar    1  UNL1        0.0599
      3 C           0.0851    2.8197   23.8637 C.ar    1  UNL1        0.0185
      4 C          -0.7417    3.2363   22.6836 C.ar    1  UNL1        0.0162
      5 C          -0.5828    2.5303   21.3697 C.ar    1  UNL1        0.0506
      6 C           0.4029    1.4076   21.2359 C.ar    1  UNL1        0.0161
      7 C           1.2297    0.9910   22.4161 C.ar    1  UNL1        0.0182
      8 C           2.2742   -0.0724   22.5846 C.ar    1  UNL1        0.0147
      9 C           2.8450   -1.0789   21.6301 C.ar    1  UNL1        0.0032
     10 C           3.9024   -2.0365   22.0936 C.ar    1  UNL1        0.0509
     11 C           4.3890   -1.9877   23.5116 C.ar    1  UNL1        0.0042
     12 C           3.8182   -0.9813   24.4662 C.ar    1  UNL1       -0.0058
     13 C           2.7607   -0.0236   24.0027 C.ar    1  UNL1        0.0556
     14 C           4.3048   -0.9325   25.8842 C.3     1  UNL1        0.0342
     15 C           5.3621   -1.8901   26.3477 C.3     1  UNL1        0.0524
     16 C           5.9329   -2.8965   25.3931 C.ar    1  UNL1        0.0803
     17 N           6.9773   -3.9599   25.5617 N.ar    1  UNL1       -0.1736
     18 N           7.1362   -4.6660   24.2478 N.ar    1  UNL1       -0.2477
     19 C           8.0763   -5.8000   23.9643 C.3     1  UNL1        0.1537
     20 C           6.1900   -4.0389   23.2673 C.ar    1  UNL1        0.0963
     21 C           5.4464   -2.9454   23.9751 C.ar    1  UNL1        0.0339
     22 C           4.2754   -2.9120   20.9340 C.2     1  UNL1        0.2458
     23 O           5.2961   -4.0110   20.9515 O.2     1  UNL1       -0.2701
     24 N           3.4485   -2.4953   19.7538 N.am    1  UNL1       -0.2969
     25 C           2.5645   -1.3624   20.1840 C.3     1  UNL1        0.1168
     26 H           3.4804   -2.8952   18.8548 H       1  UNL1        0.1501
     27 N          -1.4097    2.9469   20.1895 N.pl3   1  UNL1       -0.2825
     28 H          -1.0777    2.7905   19.2760 H       1  UNL1        0.1551
     29 C          -2.7424    3.6019   20.4013 C.ar    1  UNL1        0.2207
     30 N          -3.8492    2.8489   21.0780 N.ar    1  UNL1       -0.2120
     31 C          -5.1819    3.5040   21.2897 C.ar    1  UNL1        0.1034
     32 C          -5.4078    4.9120   20.8247 C.ar    1  UNL1        0.0414
     33 C          -4.3011    5.6651   20.1480 C.ar    1  UNL1        0.1034
     34 N          -2.9684    5.0101   19.9363 N.ar    1  UNL1       -0.2120
     35 C           2.1893    1.4669   26.1467 C.3     1  UNL1        0.1059
     36 C          -0.1848    1.1191   27.1430 C.3     1  UNL1        0.0020
     37 C           1.2952    0.8813   27.1991 C.3     1  UNL1        0.0226
     38 C           1.8810    0.0580   28.3077 C.3     1  UNL1        0.0020
@<TRIPOS>BOND
     1    36    37    1
     2    37    38    1
     3    37    35    1
     4    35     1    1
     5     1     2   ar
     6     2     3   ar
     7     3     4   ar
     8     4     5   ar
     9     5    27    1
    10    27    29    1
    11    29    30   ar
    12    30    31   ar
    13    31    32   ar
    14    32    33   ar
    15    33    34   ar
    16     5     6   ar
    17     6     7   ar
    18     7     8   ar
    19     8     9   ar
    20     9    10   ar
    21    10    11   ar
    22    11    12   ar
    23    12    13   ar
    24    12    14    1
    25    14    15    1
    26    15    16    1
    27    16    17   ar
    28    17    18   ar
    29    18    19    1
    30    18    20   ar
    31    20    21   ar
    32    10    22    1
    33    22    23    2
    34    22    24   am
    35    24    25    1
    36    13     1   ar
    37    21    16   ar
    38     7     2   ar
    39    13     8   ar
    40    34    29   ar
    41    25     9    1
    42    21    11    1
    43    27    28    1
    44    24    26    1
@<TRIPOS>MOLECULE
*****
 38 44 0 0 0
SMALL
GASTEIGER

@<TRIPOS>ATOM
      1 N           1.9764    0.9964   25.4185 N.ar    1  UNL1       -0.3274
      2 C           1.8475    0.6990   23.9539 C.ar    1  UNL1        0.0599
      3 C           0.9768    1.2867   22.8832 C.ar    1  UNL1        0.0185
      4 C           1.0702    0.7756   21.4761 C.ar    1  UNL1        0.0162
      5 C           2.0342   -0.3232   21.1397 C.ar    1  UNL1        0.0506
      6 C           2.9049   -0.9110   22.2104 C.ar    1  UNL1        0.0161
      7 C           2.8115   -0.3999   23.6175 C.ar    1  UNL1        0.0182
      8 C           3.5362   -0.7815   24.8741 C.ar    1  UNL1        0.0147
      9 C           4.5995   -1.8033   25.1487 C.ar    1  UNL1        0.0032
     10 C           5.1466   -1.9622   26.5363 C.ar    1  UNL1        0.0509
     11 C           4.6305   -1.0993   27.6493 C.ar    1  UNL1        0.0042
     12 C           3.5673   -0.0774   27.3748 C.ar    1  UNL1       -0.0058
     13 C           3.0201    0.0814   25.9872 C.ar    1  UNL1        0.0556
     14 C           3.0512    0.7855   28.4879 C.3     1  UNL1        0.0342
     15 C           3.5983    0.6266   29.8754 C.3     1  UNL1        0.0524
     16 C           4.6615   -0.3952   30.1499 C.ar    1  UNL1        0.0803
     17 N           5.3862   -0.7768   31.4066 N.ar    1  UNL1       -0.1736
     18 N           6.3502   -1.8757   31.0701 N.ar    1  UNL1       -0.2477
     19 C           7.2800   -2.5574   32.0298 C.3     1  UNL1        0.1537
     20 C           6.2213   -2.1731   29.6056 C.ar    1  UNL1        0.0963
     21 C           5.1776   -1.2581   29.0370 C.ar    1  UNL1        0.0339
     22 C           6.1829   -3.0463   26.5046 C.2     1  UNL1        0.2458
     23 O           6.9850   -3.5337   27.6747 O.2     1  UNL1       -0.2701
     24 N           6.2762   -3.5574   25.0974 N.am    1  UNL1       -0.2969
     25 C           5.2976   -2.7892   24.2594 C.3     1  UNL1        0.1168
     26 H           6.8747   -4.2716   24.7797 H       1  UNL1        0.1501
     27 N           2.1275   -0.8343   19.7325 N.pl3   1  UNL1       -0.2825
     28 H           1.3596   -0.7421   19.1233 H       1  UNL1        0.1551
     29 C           3.3908   -1.4859   19.2534 C.ar    1  UNL1        0.2207
     30 N           3.5205   -2.9800   19.2792 N.ar    1  UNL1       -0.2120
     31 C           4.7839   -3.6316   18.8001 C.ar    1  UNL1        0.1034
     32 C           5.9175   -2.7889   18.2952 C.ar    1  UNL1        0.0414
     33 C           5.7877   -1.2948   18.2694 C.ar    1  UNL1        0.1034
     34 N           4.5245   -0.6432   18.7485 N.ar    1  UNL1       -0.2120
     35 C           1.1983    2.0278   26.1805 C.3     1  UNL1        0.1059
     36 C          -1.3276    2.4610   25.7533 C.3     1  UNL1        0.0020
     37 C          -0.2394    1.7777   26.5273 C.3     1  UNL1        0.0226
     38 C          -0.5891    0.8441   27.6482 C.3     1  UNL1        0.0020
@<TRIPOS>BOND
     1    36    37    1
     2    37    38    1
     3    37    35    1
     4    35     1    1
     5     1     2   ar
     6     2     3   ar
     7     3     4   ar
     8     4     5   ar
     9     5    27    1
    10    27    29    1
    11    29    30   ar
    12    30    31   ar
    13    31    32   ar
    14    32    33   ar
    15    33    34   ar
    16     5     6   ar
    17     6     7   ar
    18     7     8   ar
    19     8     9   ar
    20     9    10   ar
    21    10    11   ar
    22    11    12   ar
    23    12    13   ar
    24    12    14    1
    25    14    15    1
    26    15    16    1
    27    16    17   ar
    28    17    18   ar
    29    18    19    1
    30    18    20   ar
    31    20    21   ar
    32    10    22    1
    33    22    23    2
    34    22    24   am
    35    24    25    1
    36    13     1   ar
    37    21    16   ar
    38     7     2   ar
    39    13     8   ar
    40    34    29   ar
    41    25     9    1
    42    21    11    1
    43    27    28    1
    44    24    26    1
@<TRIPOS>MOLECULE
*****
 38 44 0 0 0
SMALL
GASTEIGER

@<TRIPOS>ATOM
      1 N           8.6271   -5.7167   25.9418 N.ar    1  UNL1       -0.3274
      2 C           8.5031   -5.3973   24.4814 C.ar    1  UNL1        0.0599
      3 C           9.0887   -6.0415   23.2599 C.ar    1  UNL1        0.0185
      4 C           8.7803   -5.4891   21.8999 C.ar    1  UNL1        0.0162
      5 C           7.8863   -4.2926   21.7613 C.ar    1  UNL1        0.0506
      6 C           7.3008   -3.6484   22.9829 C.ar    1  UNL1        0.0161
      7 C           7.6092   -4.2008   24.3429 C.ar    1  UNL1        0.0182
      8 C           7.1807   -3.7807   25.7176 C.ar    1  UNL1        0.0147
      9 C           6.2990   -2.6661   26.1973 C.ar    1  UNL1        0.0032
     10 C           6.0464   -2.4883   27.6652 C.ar    1  UNL1        0.0509
     11 C           6.6755   -3.4252   28.6534 C.ar    1  UNL1        0.0042
     12 C           7.5573   -4.5398   28.1737 C.ar    1  UNL1       -0.0058
     13 C           7.8099   -4.7175   26.7058 C.ar    1  UNL1        0.0556
     14 C           8.1864   -5.4766   29.1619 C.3     1  UNL1        0.0342
     15 C           7.9338   -5.2988   30.6296 C.3     1  UNL1        0.0524
     16 C           7.0521   -4.1842   31.1093 C.ar    1  UNL1        0.0803
     17 N           6.6237   -3.7641   32.4841 N.ar    1  UNL1       -0.1736
     18 N           5.7297   -2.5676   32.3456 N.ar    1  UNL1       -0.2477
     19 C           5.0748   -1.8214   33.4701 C.3     1  UNL1        0.1537
     20 C           5.6057   -2.2482   30.8852 C.ar    1  UNL1        0.0963
     21 C           6.4229   -3.2474   30.1213 C.ar    1  UNL1        0.0339
     22 C           5.1387   -1.3068   27.8396 C.2     1  UNL1        0.2458
     23 O           4.6289   -0.7718   29.1449 O.2     1  UNL1       -0.2701
     24 N           4.8303   -0.7545   26.4795 N.am    1  UNL1       -0.2969
     25 C           5.5474   -1.5945   25.4646 C.3     1  UNL1        0.1168
     26 H           4.2578    0.0229   26.2868 H       1  UNL1        0.1501
     27 N           7.5779   -3.7402   20.4012 N.pl3   1  UNL1       -0.2825
     28 H           8.3105   -3.5245   19.7799 H       1  UNL1        0.1551
     29 C           6.1535   -3.5166   19.9878 C.ar    1  UNL1        0.2207
     30 N           5.6272   -2.1203   19.8354 N.ar    1  UNL1       -0.2120
     31 C           4.2026   -1.8967   19.4221 C.ar    1  UNL1        0.1034
     32 C           3.3045   -3.0693   19.1611 C.ar    1  UNL1        0.0414
     33 C           3.8309   -4.4657   19.3135 C.ar    1  UNL1        0.1034
     34 N           5.2553   -4.6893   19.7269 N.ar    1  UNL1       -0.2120
     35 C           9.4279   -6.8383   26.5341 C.3     1  UNL1        0.1059
     36 C           7.3262   -8.3652   26.4996 C.3     1  UNL1        0.0020
     37 C           8.7612   -8.1384   26.8729 C.3     1  UNL1        0.0226
     38 C           9.5294   -9.2121   27.5852 C.3     1  UNL1        0.0020
@<TRIPOS>BOND
     1    36    37    1
     2    37    38    1
     3    37    35    1
     4    35     1    1
     5     1     2   ar
     6     2     3   ar
     7     3     4   ar
     8     4     5   ar
     9     5    27    1
    10    27    29    1
    11    29    30   ar
    12    30    31   ar
    13    31    32   ar
    14    32    33   ar
    15    33    34   ar
    16     5     6   ar
    17     6     7   ar
    18     7     8   ar
    19     8     9   ar
    20     9    10   ar
    21    10    11   ar
    22    11    12   ar
    23    12    13   ar
    24    12    14    1
    25    14    15    1
    26    15    16    1
    27    16    17   ar
    28    17    18   ar
    29    18    19    1
    30    18    20   ar
    31    20    21   ar
    32    10    22    1
    33    22    23    2
    34    22    24   am
    35    24    25    1
    36    13     1   ar
    37    21    16   ar
    38     7     2   ar
    39    13     8   ar
    40    34    29   ar
    41    25     9    1
    42    21    11    1
    43    27    28    1
    44    24    26    1
@<TRIPOS>MOLECULE
*****
 38 44 0 0 0
SMALL
GASTEIGER

@<TRIPOS>ATOM
      1 N           1.0816    1.2676   20.7799 N.ar    1  UNL1       -0.3274
      2 C           1.9534    0.4490   19.8744 C.ar    1  UNL1        0.0599
      3 C           2.0428    0.3583   18.3798 C.ar    1  UNL1        0.0185
      4 C           3.0336   -0.5703   17.7427 C.ar    1  UNL1        0.0162
      5 C           3.9350   -1.4082   18.6002 C.ar    1  UNL1        0.0506
      6 C           3.8456   -1.3176   20.0948 C.ar    1  UNL1        0.0161
      7 C           2.8548   -0.3890   20.7319 C.ar    1  UNL1        0.0182
      8 C           2.5401   -0.0882   22.1673 C.ar    1  UNL1        0.0147
      9 C           3.1099   -0.6144   23.4512 C.ar    1  UNL1        0.0032
     10 C           2.5838   -0.1167   24.7649 C.ar    1  UNL1        0.0509
     11 C           1.4880    0.9071   24.7946 C.ar    1  UNL1        0.0042
     12 C           0.9182    1.4333   23.5107 C.ar    1  UNL1       -0.0058
     13 C           1.4443    0.9356   22.1970 C.ar    1  UNL1        0.0556
     14 C          -0.1777    2.4571   23.5404 C.3     1  UNL1        0.0342
     15 C          -0.7037    2.9547   24.8539 C.3     1  UNL1        0.0524
     16 C          -0.1339    2.4286   26.1378 C.ar    1  UNL1        0.0803
     17 N          -0.4486    2.7293   27.5733 N.ar    1  UNL1       -0.1736
     18 N           0.4528    1.8914   28.4308 N.ar    1  UNL1       -0.2477
     19 C           0.4781    1.8749   29.9306 C.3     1  UNL1        0.1537
     20 C           1.3246    1.0727   27.5253 C.ar    1  UNL1        0.0963
     21 C           0.9619    1.4048   26.1082 C.ar    1  UNL1        0.0339
     22 C           3.3359   -0.8140   25.8596 C.2     1  UNL1        0.2458
     23 O           3.1327   -0.6173   27.3327 O.2     1  UNL1       -0.2701
     24 N           4.3268   -1.7427   25.2224 N.am    1  UNL1       -0.2969
     25 C           4.1871   -1.6193   23.7341 C.3     1  UNL1        0.1168
     26 H           4.9579   -2.3300   25.6977 H       1  UNL1        0.1501
     27 N           4.9259   -2.3369   17.9631 N.pl3   1  UNL1       -0.2825
     28 H           4.7392   -2.7233   17.0770 H       1  UNL1        0.1551
     29 C           6.2011   -2.6768   18.6760 C.ar    1  UNL1        0.2207
     30 N           7.4977   -2.0744   18.2220 N.ar    1  UNL1       -0.2120
     31 C           8.7729   -2.4144   18.9350 C.ar    1  UNL1        0.1034
     32 C           8.7516   -3.3567   20.1018 C.ar    1  UNL1        0.0414
     33 C           7.4550   -3.9591   20.5558 C.ar    1  UNL1        0.1034
     34 N           6.1798   -3.6192   19.8429 N.ar    1  UNL1       -0.2120
     35 C           0.0316    2.2464   20.3447 C.3     1  UNL1        0.1059
     36 C           0.5990    3.7730   18.3204 C.3     1  UNL1        0.0020
     37 C           0.4336    3.5846   19.7994 C.3     1  UNL1        0.0226
     38 C           0.6703    4.7346   20.7330 C.3     1  UNL1        0.0020
@<TRIPOS>BOND
     1    36    37    1
     2    37    38    1
     3    37    35    1
     4    35     1    1
     5     1     2   ar
     6     2     3   ar
     7     3     4   ar
     8     4     5   ar
     9     5    27    1
    10    27    29    1
    11    29    30   ar
    12    30    31   ar
    13    31    32   ar
    14    32    33   ar
    15    33    34   ar
    16     5     6   ar
    17     6     7   ar
    18     7     8   ar
    19     8     9   ar
    20     9    10   ar
    21    10    11   ar
    22    11    12   ar
    23    12    13   ar
    24    12    14    1
    25    14    15    1
    26    15    16    1
    27    16    17   ar
    28    17    18   ar
    29    18    19    1
    30    18    20   ar
    31    20    21   ar
    32    10    22    1
    33    22    23    2
    34    22    24   am
    35    24    25    1
    36    13     1   ar
    37    21    16   ar
    38     7     2   ar
    39    13     8   ar
    40    34    29   ar
    41    25     9    1
    42    21    11    1
    43    27    28    1
    44    24    26    1
@<TRIPOS>MOLECULE
*****
 38 44 0 0 0
SMALL
GASTEIGER

@<TRIPOS>ATOM
      1 N           2.8766    0.2005   26.1694 N.ar    1  UNL1       -0.3274
      2 C           2.5628    0.1747   24.7028 C.ar    1  UNL1        0.0599
      3 C           1.5853    0.9516   23.8717 C.ar    1  UNL1        0.0185
      4 C           1.4932    0.7042   22.3951 C.ar    1  UNL1        0.0162
      5 C           2.3786   -0.3202   21.7497 C.ar    1  UNL1        0.0506
      6 C           3.3562   -1.0972   22.5808 C.ar    1  UNL1        0.0161
      7 C           3.4482   -0.8497   24.0573 C.ar    1  UNL1        0.0182
      8 C           4.3092   -1.4570   25.1250 C.ar    1  UNL1        0.0147
      9 C           5.3692   -2.5172   25.0773 C.ar    1  UNL1        0.0032
     10 C           6.0760   -2.9283   26.3349 C.ar    1  UNL1        0.0509
     11 C           5.7227   -2.2792   27.6402 C.ar    1  UNL1        0.0042
     12 C           4.6626   -1.2191   27.6880 C.ar    1  UNL1       -0.0058
     13 C           3.9559   -0.8079   26.4304 C.ar    1  UNL1        0.0556
     14 C           4.3093   -0.5700   28.9933 C.3     1  UNL1        0.0342
     15 C           5.0160   -0.9811   30.2508 C.3     1  UNL1        0.0524
     16 C           6.0760   -2.0413   30.2031 C.ar    1  UNL1        0.0803
     17 N           6.9370   -2.6485   31.2708 N.ar    1  UNL1       -0.1736
     18 N           7.8224   -3.6730   30.6253 N.ar    1  UNL1       -0.2477
     19 C           8.8425   -4.5224   31.3239 C.3     1  UNL1        0.1537
     20 C           7.5087   -3.6988   29.1587 C.ar    1  UNL1        0.0963
     21 C           6.4294   -2.6903   28.8978 C.ar    1  UNL1        0.0339
     22 C           7.0705   -3.9939   25.9806 C.2     1  UNL1        0.2458
     23 O           7.9948   -4.6899   26.9352 O.2     1  UNL1       -0.2701
     24 N           6.9784   -4.2414   24.5039 N.am    1  UNL1       -0.2969
     25 C           5.9270   -3.3287   23.9457 C.3     1  UNL1        0.1168
     26 H           7.5139   -4.8891   23.9912 H       1  UNL1        0.1501
     27 N           2.2865   -0.5677   20.2730 N.pl3   1  UNL1       -0.2825
     28 H           1.5284   -0.2059   19.7597 H       1  UNL1        0.1551
     29 C           3.3494   -1.3664   19.5787 C.ar    1  UNL1        0.2207
     30 N           4.4930   -0.6674   18.9050 N.ar    1  UNL1       -0.2120
     31 C           5.5559   -1.4662   18.2106 C.ar    1  UNL1        0.1034
     32 C           5.4754   -2.9639   18.1899 C.ar    1  UNL1        0.0414
     33 C           4.3318   -3.6628   18.8636 C.ar    1  UNL1        0.1034
     34 N           3.2689   -2.8641   19.5579 N.ar    1  UNL1       -0.2120
     35 C           2.2253    1.0803   27.1949 C.3     1  UNL1        0.1059
     36 C          -0.3512    1.3569   27.0069 C.3     1  UNL1        0.0020
     37 C           0.8452    0.7620   27.6887 C.3     1  UNL1        0.0226
     38 C           0.6614   -0.1514   28.8643 C.3     1  UNL1        0.0020
@<TRIPOS>BOND
     1    36    37    1
     2    37    38    1
     3    37    35    1
     4    35     1    1
     5     1     2   ar
     6     2     3   ar
     7     3     4   ar
     8     4     5   ar
     9     5    27    1
    10    27    29    1
    11    29    30   ar
    12    30    31   ar
    13    31    32   ar
    14    32    33   ar
    15    33    34   ar
    16     5     6   ar
    17     6     7   ar
    18     7     8   ar
    19     8     9   ar
    20     9    10   ar
    21    10    11   ar
    22    11    12   ar
    23    12    13   ar
    24    12    14    1
    25    14    15    1
    26    15    16    1
    27    16    17   ar
    28    17    18   ar
    29    18    19    1
    30    18    20   ar
    31    20    21   ar
    32    10    22    1
    33    22    23    2
    34    22    24   am
    35    24    25    1
    36    13     1   ar
    37    21    16   ar
    38     7     2   ar
    39    13     8   ar
    40    34    29   ar
    41    25     9    1
    42    21    11    1
    43    27    28    1
    44    24    26    1
