@<TRIPOS>MOLECULE
*****
 35 39 0 0 0
SMALL
GASTEIGER

@<TRIPOS>ATOM
      1 C           1.3581    1.3059   21.2357 C.ar    1  UNL1        0.0991
      2 C           2.7149    0.6663   21.2269 C.ar    1  UNL1        0.0399
      3 C           2.6080   -0.6375   20.4930 C.ar    1  UNL1        0.0886
      4 N           1.1851   -0.8037   20.0482 N.ar    1  UNL1       -0.2105
      5 S           0.4127    0.3974   20.5071 S.2     1  UNL1        0.0276
      6 N           1.0082    2.6229   21.8629 N.pl3   1  UNL1       -0.2894
      7 H           1.3365    3.4608   21.4638 H       1  UNL1        0.1542
      8 C          -3.3566    4.0802   24.2763 C.3     1  UNL1        0.0538
      9 C          -2.0243    3.3917   24.3048 C.ar    1  UNL1        0.0784
     10 C          -1.5420    2.7433   25.5686 C.ar    1  UNL1        0.0962
     11 N          -0.2096    2.0548   25.5970 N.ar    1  UNL1       -0.2856
     12 C           0.5241    1.3331   26.6883 C.ar    1  UNL1        0.0841
     13 C           1.8276    0.8469   26.1275 C.ar    1  UNL1        0.1179
     14 N           1.8995    1.2682   24.6897 N.ar    1  UNL1       -0.2223
     15 C           0.6404    2.0146   24.3618 C.ar    1  UNL1        0.1800
     16 C           0.1581    2.6630   23.0981 C.ar    1  UNL1        0.1670
     17 N          -1.1742    3.3515   23.0696 N.ar    1  UNL1       -0.2304
     18 C           0.0394    1.1328   28.0936 C.2     1  UNL1        0.0425
     19 C          -1.1265    0.2868   28.5119 C.2     1  UNL1        0.1209
     20 N          -1.2510    0.3744   30.0043 N.2     1  UNL1       -0.1510
     21 N          -0.1620    1.2746   30.5081 N.2     1  UNL1       -0.1694
     22 C           0.6355    1.7433   29.3273 C.3     1  UNL1        0.1786
     23 C           3.7274   -1.6052   20.2471 C.3     1  UNL1        0.1361
     24 C           4.6896   -1.9349   21.3496 C.ar    1  UNL1        0.0790
     25 C           4.3238   -2.9586   22.3831 C.ar    1  UNL1        0.0165
     26 C           5.2860   -3.2883   23.4856 C.ar    1  UNL1        0.0029
     27 C           6.6140   -2.5942   23.5546 C.ar    1  UNL1        0.0207
     28 C           6.9798   -1.5704   22.5211 C.ar    1  UNL1        0.0985
     29 N           6.0176   -1.2408   21.4186 N.ar    1  UNL1       -0.2464
     30 N           3.8846   -2.2433   18.8987 N.3     1  UNL1       -0.2913
     31 H           4.5319   -1.6587   18.3700 H       1  UNL1        0.1238
     32 C           4.3861   -3.6527   18.7899 C.3     1  UNL1        0.0426
     33 C           5.7389   -3.1406   18.3929 C.3     1  UNL1        0.0158
     34 C           3.0333   -4.1648   19.1868 C.3     1  UNL1        0.0158
     35 C           4.8877   -5.0621   18.6810 C.3     1  UNL1        0.0158
@<TRIPOS>BOND
     1     8     9    1
     2     9    10   ar
     3    10    11   ar
     4    11    12   ar
     5    12    18    1
     6    18    19    2
     7    19    20    1
     8    20    21    2
     9    21    22    1
    10    12    13   ar
    11    13    14   ar
    12    14    15   ar
    13    15    16   ar
    14    16     6    1
    15     6     1    1
    16     1     2   ar
    17     2     3   ar
    18     3    23    1
    19    23    30    1
    20    30    32    1
    21    32    33    1
    22    32    34    1
    23    32    35    1
    24    23    24    1
    25    24    25   ar
    26    25    26   ar
    27    26    27   ar
    28    27    28   ar
    29    28    29   ar
    30     3     4   ar
    31     4     5   ar
    32    16    17   ar
    33    17     9   ar
    34    15    11   ar
    35     5     1   ar
    36    22    18    1
    37    29    24   ar
    38     6     7    1
    39    30    31    1
@<TRIPOS>MOLECULE
*****
 35 39 0 0 0
SMALL
GASTEIGER

@<TRIPOS>ATOM
      1 C           3.7271   -0.7489   27.1779 C.ar    1  UNL1        0.0991
      2 C           2.6691   -0.8907   28.2317 C.ar    1  UNL1        0.0399
      3 C           2.6706    0.3591   29.0612 C.ar    1  UNL1        0.0886
      4 N           3.7296    1.2733   28.5200 N.ar    1  UNL1       -0.2105
      5 S           4.3825    0.5885   27.3561 S.2     1  UNL1        0.0276
      6 N           4.0695   -1.7660   26.1299 N.pl3   1  UNL1       -0.2894
      7 H           4.3997   -2.6547   26.3956 H       1  UNL1        0.1542
      8 C           1.6114    0.8263   22.3566 C.3     1  UNL1        0.0538
      9 C           2.6798   -0.1330   22.7904 C.ar    1  UNL1        0.0784
     10 C           3.5877   -0.7555   21.7713 C.ar    1  UNL1        0.0962
     11 N           4.6561   -1.7148   22.2052 N.ar    1  UNL1       -0.2856
     12 C           5.6916   -2.4792   21.4349 C.ar    1  UNL1        0.0841
     13 C           6.4922   -3.2886   22.4116 C.ar    1  UNL1        0.1179
     14 N           5.9515   -3.0243   23.7856 N.ar    1  UNL1       -0.2223
     15 C           4.8167   -2.0516   23.6580 C.ar    1  UNL1        0.1800
     16 C           3.9089   -1.4292   24.6770 C.ar    1  UNL1        0.1670
     17 N           2.8405   -0.4698   24.2432 N.ar    1  UNL1       -0.2304
     18 C           5.8914   -2.4411   19.9487 C.2     1  UNL1        0.0425
     19 C           4.8473   -2.7291   18.9111 C.2     1  UNL1        0.1209
     20 N           5.4810   -2.5742   17.5603 N.2     1  UNL1       -0.1510
     21 N           6.9169   -2.1904   17.7633 N.2     1  UNL1       -0.1694
     22 C           7.1705   -2.1081   19.2394 C.3     1  UNL1        0.1786
     23 C           1.7712    0.6445   30.2272 C.3     1  UNL1        0.1361
     24 C           2.3572    0.8648   31.5903 C.ar    1  UNL1        0.0790
     25 C           3.4828   -0.0021   32.0716 C.ar    1  UNL1        0.0165
     26 C           4.0689    0.2182   33.4347 C.ar    1  UNL1        0.0029
     27 C           3.5294    1.3052   34.3164 C.ar    1  UNL1        0.0207
     28 C           2.4039    2.1721   33.8350 C.ar    1  UNL1        0.0985
     29 N           1.8178    1.9518   32.4719 N.ar    1  UNL1       -0.2464
     30 N           0.2856    0.7097   30.0300 N.3     1  UNL1       -0.2913
     31 H          -0.0824    1.3162   30.7629 H       1  UNL1        0.1238
     32 C          -0.2775    1.2082   28.7322 C.3     1  UNL1        0.0426
     33 C           0.3582    2.5458   28.9701 C.3     1  UNL1        0.0158
     34 C          -0.9132   -0.1294   28.4942 C.3     1  UNL1        0.0158
     35 C          -0.8406    1.7067   27.4343 C.3     1  UNL1        0.0158
@<TRIPOS>BOND
     1     8     9    1
     2     9    10   ar
     3    10    11   ar
     4    11    12   ar
     5    12    18    1
     6    18    19    2
     7    19    20    1
     8    20    21    2
     9    21    22    1
    10    12    13   ar
    11    13    14   ar
    12    14    15   ar
    13    15    16   ar
    14    16     6    1
    15     6     1    1
    16     1     2   ar
    17     2     3   ar
    18     3    23    1
    19    23    30    1
    20    30    32    1
    21    32    33    1
    22    32    34    1
    23    32    35    1
    24    23    24    1
    25    24    25   ar
    26    25    26   ar
    27    26    27   ar
    28    27    28   ar
    29    28    29   ar
    30     3     4   ar
    31     4     5   ar
    32    16    17   ar
    33    17     9   ar
    34    15    11   ar
    35     5     1   ar
    36    22    18    1
    37    29    24   ar
    38     6     7    1
    39    30    31    1
@<TRIPOS>MOLECULE
*****
 35 39 0 0 0
SMALL
GASTEIGER

@<TRIPOS>ATOM
      1 C           3.4205    0.1210   24.9835 C.ar    1  UNL1        0.0991
      2 C           3.1042    0.1173   23.5172 C.ar    1  UNL1        0.0399
      3 C           3.6653   -1.1415   22.9251 C.ar    1  UNL1        0.0886
      4 N           4.3284   -1.9158   24.0255 N.ar    1  UNL1       -0.2105
      5 S           4.1771   -1.1356   25.2976 S.2     1  UNL1        0.0276
      6 N           3.0460    1.1930   25.9636 N.pl3   1  UNL1       -0.2894
      7 H           3.7284    1.8248   26.2868 H       1  UNL1        0.1542
      8 C          -0.6207   -0.0140   29.4419 C.3     1  UNL1        0.0538
      9 C          -0.2016    0.6989   28.1905 C.ar    1  UNL1        0.0784
     10 C          -1.1968    1.5213   27.4267 C.ar    1  UNL1        0.0962
     11 N          -0.7777    2.2342   26.1753 N.ar    1  UNL1       -0.2856
     12 C          -1.5311    3.1110   25.2195 C.ar    1  UNL1        0.0841
     13 C          -0.5825    3.5435   24.1410 C.ar    1  UNL1        0.1179
     14 N           0.7572    2.9340   24.4304 N.ar    1  UNL1       -0.2223
     15 C           0.6365    2.1248   25.6876 C.ar    1  UNL1        0.1800
     16 C           1.6317    1.3024   26.4513 C.ar    1  UNL1        0.1670
     17 N           1.2127    0.5895   27.7028 N.ar    1  UNL1       -0.2304
     18 C          -2.9790    3.4890   25.3238 C.2     1  UNL1        0.0425
     19 C          -3.9801    3.4610   24.2072 C.2     1  UNL1        0.1209
     20 N          -5.2998    3.9161   24.7564 N.2     1  UNL1       -0.1510
     21 N          -5.1141    4.2252   26.2124 N.2     1  UNL1       -0.1694
     22 C          -3.6798    3.9612   26.5631 C.3     1  UNL1        0.1786
     23 C           3.5785   -1.5536   21.4855 C.3     1  UNL1        0.1361
     24 C           2.9791   -0.6226   20.4736 C.ar    1  UNL1        0.0790
     25 C           1.5064   -0.6683   20.1923 C.ar    1  UNL1        0.0165
     26 C           0.9070    0.2627   19.1804 C.ar    1  UNL1        0.0029
     27 C           1.7802    1.2394   18.4500 C.ar    1  UNL1        0.0207
     28 C           3.2528    1.2852   18.7313 C.ar    1  UNL1        0.0985
     29 N           3.8523    0.3541   19.7432 N.ar    1  UNL1       -0.2464
     30 N           4.0912   -2.8968   21.0577 N.3     1  UNL1       -0.2913
     31 H           3.2996   -3.5390   21.0930 H       1  UNL1        0.1238
     32 C           4.7238   -3.0630   19.7078 C.3     1  UNL1        0.0426
     33 C           3.4676   -3.7050   19.1982 C.3     1  UNL1        0.0158
     34 C           5.9800   -2.4210   20.2175 C.3     1  UNL1        0.0158
     35 C           5.3564   -3.2291   18.3579 C.3     1  UNL1        0.0158
@<TRIPOS>BOND
     1     8     9    1
     2     9    10   ar
     3    10    11   ar
     4    11    12   ar
     5    12    18    1
     6    18    19    2
     7    19    20    1
     8    20    21    2
     9    21    22    1
    10    12    13   ar
    11    13    14   ar
    12    14    15   ar
    13    15    16   ar
    14    16     6    1
    15     6     1    1
    16     1     2   ar
    17     2     3   ar
    18     3    23    1
    19    23    30    1
    20    30    32    1
    21    32    33    1
    22    32    34    1
    23    32    35    1
    24    23    24    1
    25    24    25   ar
    26    25    26   ar
    27    26    27   ar
    28    27    28   ar
    29    28    29   ar
    30     3     4   ar
    31     4     5   ar
    32    16    17   ar
    33    17     9   ar
    34    15    11   ar
    35     5     1   ar
    36    22    18    1
    37    29    24   ar
    38     6     7    1
    39    30    31    1
@<TRIPOS>MOLECULE
*****
 35 39 0 0 0
SMALL
GASTEIGER

@<TRIPOS>ATOM
      1 C           3.3594    1.1143   23.9280 C.ar    1  UNL1        0.0991
      2 C           2.7683   -0.0682   23.2193 C.ar    1  UNL1        0.0399
      3 C           3.1872   -0.0034   21.7805 C.ar    1  UNL1        0.0886
      4 N           4.0372    1.2193   21.5999 N.ar    1  UNL1       -0.2105
      5 S           4.1436    1.9100   22.9271 S.2     1  UNL1        0.0276
      6 N           3.1951    1.4433   25.3823 N.pl3   1  UNL1       -0.2894
      7 H           3.9866    1.6294   25.9373 H       1  UNL1        0.1542
      8 C          -0.1097    0.0389   29.1381 C.3     1  UNL1        0.0538
      9 C           0.1724    0.7865   27.8687 C.ar    1  UNL1        0.0784
     10 C          -0.9158    1.5797   27.2077 C.ar    1  UNL1        0.0962
     11 N          -0.6337    2.3273   25.9383 N.ar    1  UNL1       -0.2856
     12 C          -1.4997    3.1873   25.0663 C.ar    1  UNL1        0.0841
     13 C          -0.6647    3.6734   23.9189 C.ar    1  UNL1        0.1179
     14 N           0.7174    3.1138   24.0818 N.ar    1  UNL1       -0.2223
     15 C           0.7366    2.2818   25.3298 C.ar    1  UNL1        0.1800
     16 C           1.8248    1.4888   25.9907 C.ar    1  UNL1        0.1670
     17 N           1.5427    0.7411   27.2602 N.ar    1  UNL1       -0.2304
     18 C          -2.9468    3.5054   25.3006 C.2     1  UNL1        0.0425
     19 C          -4.0367    3.4635   24.2709 C.2     1  UNL1        0.1209
     20 N          -5.3215    3.8534   24.9397 N.2     1  UNL1       -0.1510
     21 N          -5.0256    4.1363   26.3828 N.2     1  UNL1       -0.1694
     22 C          -3.5579    3.9212   26.6058 C.3     1  UNL1        0.1786
     23 C           2.8205   -0.9882   20.7102 C.3     1  UNL1        0.1361
     24 C           3.7432   -2.1269   20.3906 C.ar    1  UNL1        0.0790
     25 C           3.3498   -3.1447   19.3614 C.ar    1  UNL1        0.0165
     26 C           4.2725   -4.2834   19.0419 C.ar    1  UNL1        0.0029
     27 C           5.5885   -4.4041   19.7515 C.ar    1  UNL1        0.0207
     28 C           5.9819   -3.3862   20.7807 C.ar    1  UNL1        0.0985
     29 N           5.0592   -2.2476   21.1002 N.ar    1  UNL1       -0.2464
     30 N           1.5310   -0.8344   19.9594 N.3     1  UNL1       -0.2913
     31 H           0.7810   -1.0586   20.6133 H       1  UNL1        0.1238
     32 C           1.1803    0.4828   19.3333 C.3     1  UNL1        0.0426
     33 C           2.2360    0.2678   18.2897 C.3     1  UNL1        0.0158
     34 C           0.1245    0.6977   20.3769 C.3     1  UNL1        0.0158
     35 C           0.8295    1.7999   18.7072 C.3     1  UNL1        0.0158
@<TRIPOS>BOND
     1     8     9    1
     2     9    10   ar
     3    10    11   ar
     4    11    12   ar
     5    12    18    1
     6    18    19    2
     7    19    20    1
     8    20    21    2
     9    21    22    1
    10    12    13   ar
    11    13    14   ar
    12    14    15   ar
    13    15    16   ar
    14    16     6    1
    15     6     1    1
    16     1     2   ar
    17     2     3   ar
    18     3    23    1
    19    23    30    1
    20    30    32    1
    21    32    33    1
    22    32    34    1
    23    32    35    1
    24    23    24    1
    25    24    25   ar
    26    25    26   ar
    27    26    27   ar
    28    27    28   ar
    29    28    29   ar
    30     3     4   ar
    31     4     5   ar
    32    16    17   ar
    33    17     9   ar
    34    15    11   ar
    35     5     1   ar
    36    22    18    1
    37    29    24   ar
    38     6     7    1
    39    30    31    1
@<TRIPOS>MOLECULE
*****
 35 39 0 0 0
SMALL
GASTEIGER

@<TRIPOS>ATOM
      1 C           1.2346    1.5458   21.1304 C.ar    1  UNL1        0.0991
      2 C           2.6579    1.0825   21.0322 C.ar    1  UNL1        0.0399
      3 C           2.6640   -0.2566   20.3564 C.ar    1  UNL1        0.0886
      4 N           1.2444   -0.6209   20.0368 N.ar    1  UNL1       -0.2105
      5 S           0.3610    0.4930   20.5152 S.2     1  UNL1        0.0276
      6 N           0.7671    2.8355   21.7372 N.pl3   1  UNL1       -0.2894
      7 H           0.9943    3.6921   21.3086 H       1  UNL1        0.1542
      8 C          -3.5497    4.1322   24.3225 C.3     1  UNL1        0.0538
      9 C          -2.2051    3.4683   24.2898 C.ar    1  UNL1        0.0784
     10 C          -1.6741    2.7887   25.5172 C.ar    1  UNL1        0.0962
     11 N          -0.3295    2.1248   25.4845 N.ar    1  UNL1       -0.2856
     12 C           0.4489    1.3823   26.5299 C.ar    1  UNL1        0.0841
     13 C           1.7437    0.9389   25.9160 C.ar    1  UNL1        0.1179
     14 N           1.7656    1.4075   24.4912 N.ar    1  UNL1       -0.2223
     15 C           0.4842    2.1404   24.2246 C.ar    1  UNL1        0.1800
     16 C          -0.0467    2.8199   22.9972 C.ar    1  UNL1        0.1670
     17 N          -1.3914    3.4838   23.0298 N.ar    1  UNL1       -0.2304
     18 C           0.0096    1.1278   27.9414 C.2     1  UNL1        0.0425
     19 C           0.5063    1.8441   29.1621 C.2     1  UNL1        0.1209
     20 N          -0.1999    1.2713   30.3551 N.2     1  UNL1       -0.1510
     21 N          -1.1330    0.2009   29.8716 N.2     1  UNL1       -0.1694
     22 C          -1.0035    0.1122   28.3798 C.3     1  UNL1        0.1786
     23 C           3.8766   -1.0858   20.0533 C.3     1  UNL1        0.1361
     24 C           4.9519   -0.5432   19.1591 C.ar    1  UNL1        0.0790
     25 C           4.6954   -0.3831   17.6899 C.ar    1  UNL1        0.0165
     26 C           5.7706    0.1595   16.7957 C.ar    1  UNL1        0.0029
     27 C           7.1022    0.5419   17.3707 C.ar    1  UNL1        0.0207
     28 C           7.3587    0.3818   18.8400 C.ar    1  UNL1        0.0985
     29 N           6.2834   -0.1608   19.7341 N.ar    1  UNL1       -0.2464
     30 N           4.0141   -2.4576   20.6443 N.3     1  UNL1       -0.2913
     31 H           3.1013   -2.7069   21.0252 H       1  UNL1        0.1238
     32 C           4.4519   -3.6049   19.7830 C.3     1  UNL1        0.0426
     33 C           5.7893   -3.6044   20.4622 C.3     1  UNL1        0.0158
     34 C           3.1146   -3.6054   19.1038 C.3     1  UNL1        0.0158
     35 C           4.8898   -4.7522   18.9217 C.3     1  UNL1        0.0158
@<TRIPOS>BOND
     1     8     9    1
     2     9    10   ar
     3    10    11   ar
     4    11    12   ar
     5    12    18    1
     6    18    19    2
     7    19    20    1
     8    20    21    2
     9    21    22    1
    10    12    13   ar
    11    13    14   ar
    12    14    15   ar
    13    15    16   ar
    14    16     6    1
    15     6     1    1
    16     1     2   ar
    17     2     3   ar
    18     3    23    1
    19    23    30    1
    20    30    32    1
    21    32    33    1
    22    32    34    1
    23    32    35    1
    24    23    24    1
    25    24    25   ar
    26    25    26   ar
    27    26    27   ar
    28    27    28   ar
    29    28    29   ar
    30     3     4   ar
    31     4     5   ar
    32    16    17   ar
    33    17     9   ar
    34    15    11   ar
    35     5     1   ar
    36    22    18    1
    37    29    24   ar
    38     6     7    1
    39    30    31    1
@<TRIPOS>MOLECULE
*****
 35 39 0 0 0
SMALL
GASTEIGER

@<TRIPOS>ATOM
      1 C          -7.0380  -19.3184   20.4065 C.ar    1  UNL1        0.0991
      2 C          -6.4950  -18.2100   21.2590 C.ar    1  UNL1        0.0399
      3 C          -5.2289  -18.6959   21.9000 C.ar    1  UNL1        0.0886
      4 N          -4.9894  -20.1046   21.4436 N.ar    1  UNL1       -0.2105
      5 S          -6.1074  -20.4893   20.5206 S.2     1  UNL1        0.0276
      6 N          -8.2914  -19.2651   19.5842 N.pl3   1  UNL1       -0.2894
      7 H          -8.3036  -19.6533   18.6796 H       1  UNL1        0.1542
      8 C         -12.1016  -15.7540   19.1907 C.3     1  UNL1        0.0538
      9 C         -11.4314  -16.8648   19.9436 C.ar    1  UNL1        0.0784
     10 C         -11.9963  -17.3311   21.2527 C.ar    1  UNL1        0.0962
     11 N         -11.3261  -18.4419   22.0056 N.ar    1  UNL1       -0.2856
     12 C         -11.6499  -19.1087   23.3096 C.ar    1  UNL1        0.0841
     13 C         -10.6151  -20.1654   23.5595 C.ar    1  UNL1        0.1179
     14 N          -9.6518  -20.1518   22.4098 N.ar    1  UNL1       -0.2223
     15 C         -10.0912  -19.0866   21.4494 C.ar    1  UNL1        0.1800
     16 C          -9.5264  -18.6204   20.1404 C.ar    1  UNL1        0.1670
     17 N         -10.1965  -17.5095   19.3874 N.ar    1  UNL1       -0.2304
     18 C         -12.8056  -18.7769   24.2064 C.2     1  UNL1        0.0425
     19 C         -12.8516  -18.9698   25.6933 C.2     1  UNL1        0.1209
     20 N         -14.1927  -18.5061   26.1796 N.2     1  UNL1       -0.1510
     21 N         -14.9755  -18.0266   24.9932 N.2     1  UNL1       -0.1694
     22 C         -14.1183  -18.1940   23.7738 C.3     1  UNL1        0.1786
     23 C          -4.3557  -17.9110   22.8335 C.3     1  UNL1        0.1361
     24 C          -4.9714  -16.9484   23.8052 C.ar    1  UNL1        0.0790
     25 C          -4.4377  -16.8502   25.2037 C.ar    1  UNL1        0.0165
     26 C          -5.0534  -15.8876   26.1755 C.ar    1  UNL1        0.0029
     27 C          -6.2027  -15.0233   25.7488 C.ar    1  UNL1        0.0207
     28 C          -6.7364  -15.1215   24.3504 C.ar    1  UNL1        0.0985
     29 N          -6.1206  -16.0841   23.3786 N.ar    1  UNL1       -0.2464
     30 N          -2.8667  -18.0887   22.7951 N.3     1  UNL1       -0.2913
     31 H          -2.6870  -19.0883   22.8890 H       1  UNL1        0.1238
     32 C          -2.0857  -17.6183   21.6040 C.3     1  UNL1        0.0426
     33 C          -1.7843  -19.0418   21.2395 C.3     1  UNL1        0.0158
     34 C          -2.3872  -16.1948   21.9685 C.3     1  UNL1        0.0158
     35 C          -1.3048  -17.1479   20.4129 C.3     1  UNL1        0.0158
@<TRIPOS>BOND
     1     8     9    1
     2     9    10   ar
     3    10    11   ar
     4    11    12   ar
     5    12    18    1
     6    18    19    2
     7    19    20    1
     8    20    21    2
     9    21    22    1
    10    12    13   ar
    11    13    14   ar
    12    14    15   ar
    13    15    16   ar
    14    16     6    1
    15     6     1    1
    16     1     2   ar
    17     2     3   ar
    18     3    23    1
    19    23    30    1
    20    30    32    1
    21    32    33    1
    22    32    34    1
    23    32    35    1
    24    23    24    1
    25    24    25   ar
    26    25    26   ar
    27    26    27   ar
    28    27    28   ar
    29    28    29   ar
    30     3     4   ar
    31     4     5   ar
    32    16    17   ar
    33    17     9   ar
    34    15    11   ar
    35     5     1   ar
    36    22    18    1
    37    29    24   ar
    38     6     7    1
    39    30    31    1
@<TRIPOS>MOLECULE
*****
 35 39 0 0 0
SMALL
GASTEIGER

@<TRIPOS>ATOM
      1 C           4.6289   -1.4201   25.2885 C.ar    1  UNL1        0.0991
      2 C           4.4117   -2.2235   24.0405 C.ar    1  UNL1        0.0399
      3 C           4.0737   -1.2731   22.9303 C.ar    1  UNL1        0.0886
      4 N           4.0820    0.1177   23.4922 N.ar    1  UNL1       -0.2105
      5 S           4.4251    0.0268   24.9496 S.2     1  UNL1        0.0276
      6 N           4.9870   -1.9676   26.6384 N.pl3   1  UNL1       -0.2894
      7 H           5.6918   -2.6499   26.7217 H       1  UNL1        0.1542
      8 C           0.6586   -0.2204   28.9215 C.3     1  UNL1        0.0538
      9 C           2.1070   -0.6019   29.0028 C.ar    1  UNL1        0.0784
     10 C           2.8397   -0.4912   30.3070 C.ar    1  UNL1        0.0962
     11 N           4.2880   -0.8727   30.3884 N.ar    1  UNL1       -0.2856
     12 C           5.2644   -0.8693   31.5271 C.ar    1  UNL1        0.0841
     13 C           6.5837   -1.3594   31.0079 C.ar    1  UNL1        0.1179
     14 N           6.4226   -1.6656   29.5484 N.ar    1  UNL1       -0.2223
     15 C           5.0038   -1.3648   29.1655 C.ar    1  UNL1        0.1800
     16 C           4.2712   -1.4755   27.8613 C.ar    1  UNL1        0.1670
     17 N           2.8228   -1.0940   27.7799 N.ar    1  UNL1       -0.2304
     18 C           4.9728   -0.4496   32.9373 C.2     1  UNL1        0.0425
     19 C           4.5744    0.9261   33.3833 C.2     1  UNL1        0.1209
     20 N           4.3837    0.8940   34.8708 N.2     1  UNL1       -0.1510
     21 N           4.6643   -0.5015   35.3441 N.2     1  UNL1       -0.1694
     22 C           5.0283   -1.3319   34.1491 C.3     1  UNL1        0.1786
     23 C           3.7791   -1.6477   21.5081 C.3     1  UNL1        0.1361
     24 C           3.0617   -0.6825   20.6115 C.ar    1  UNL1        0.0790
     25 C           1.5782   -0.7966   20.4210 C.ar    1  UNL1        0.0165
     26 C           0.8609    0.1686   19.5243 C.ar    1  UNL1        0.0029
     27 C           1.6270    1.2477   18.8183 C.ar    1  UNL1        0.0207
     28 C           3.1105    1.3618   19.0088 C.ar    1  UNL1        0.0985
     29 N           3.8278    0.3966   19.9054 N.ar    1  UNL1       -0.2464
     30 N           4.2018   -2.9875   20.9824 N.3     1  UNL1       -0.2913
     31 H           3.3731   -3.5820   20.9910 H       1  UNL1        0.1238
     32 C           4.8015   -3.1003   19.6122 C.3     1  UNL1        0.0426
     33 C           6.0566   -2.4451   20.1075 C.3     1  UNL1        0.0158
     34 C           3.5464   -3.7554   19.1168 C.3     1  UNL1        0.0158
     35 C           5.4012   -3.2131   18.2419 C.3     1  UNL1        0.0158
@<TRIPOS>BOND
     1     8     9    1
     2     9    10   ar
     3    10    11   ar
     4    11    12   ar
     5    12    18    1
     6    18    19    2
     7    19    20    1
     8    20    21    2
     9    21    22    1
    10    12    13   ar
    11    13    14   ar
    12    14    15   ar
    13    15    16   ar
    14    16     6    1
    15     6     1    1
    16     1     2   ar
    17     2     3   ar
    18     3    23    1
    19    23    30    1
    20    30    32    1
    21    32    33    1
    22    32    34    1
    23    32    35    1
    24    23    24    1
    25    24    25   ar
    26    25    26   ar
    27    26    27   ar
    28    27    28   ar
    29    28    29   ar
    30     3     4   ar
    31     4     5   ar
    32    16    17   ar
    33    17     9   ar
    34    15    11   ar
    35     5     1   ar
    36    22    18    1
    37    29    24   ar
    38     6     7    1
    39    30    31    1
@<TRIPOS>MOLECULE
*****
 35 39 0 0 0
SMALL
GASTEIGER

@<TRIPOS>ATOM
      1 C           5.0542   -1.5866   27.3518 C.ar    1  UNL1        0.0991
      2 C           3.6382   -1.5272   27.8433 C.ar    1  UNL1        0.0399
      3 C           3.6077   -0.6581   29.0654 C.ar    1  UNL1        0.0886
      4 N           5.0049   -0.1802   29.3293 N.ar    1  UNL1       -0.2105
      5 S           5.8988   -0.7541   28.2703 S.2     1  UNL1        0.0276
      6 N           5.5401   -2.3453   26.1525 N.pl3   1  UNL1       -0.2894
      7 H           6.1503   -3.1093   26.2674 H       1  UNL1        0.1542
      8 C           2.2592    0.2419   23.0635 C.3     1  UNL1        0.0538
      9 C           3.4560   -0.6461   23.2337 C.ar    1  UNL1        0.0784
     10 C           4.2091   -1.1288   22.0296 C.ar    1  UNL1        0.0962
     11 N           5.4059   -2.0169   22.1998 N.ar    1  UNL1       -0.2856
     12 C           6.3395   -2.6443   21.2074 C.ar    1  UNL1        0.0841
     13 C           7.3601   -3.4375   21.9683 C.ar    1  UNL1        0.1179
     14 N           7.0573   -3.3003   23.4310 N.ar    1  UNL1       -0.2223
     15 C           5.8496   -2.4224   23.5741 C.ar    1  UNL1        0.1800
     16 C           5.0965   -1.9398   24.7782 C.ar    1  UNL1        0.1670
     17 N           3.8996   -1.0516   24.6080 N.ar    1  UNL1       -0.2304
     18 C           6.2654   -2.5031   19.7159 C.2     1  UNL1        0.0425
     19 C           5.0385   -2.6872   18.8727 C.2     1  UNL1        0.1209
     20 N           5.4200   -2.4510   17.4413 N.2     1  UNL1       -0.1510
     21 N           6.8827   -2.1210   17.4000 N.2     1  UNL1       -0.1694
     22 C           7.4052   -2.1532   18.8057 C.3     1  UNL1        0.1786
     23 C           2.3933   -0.3252   29.8805 C.3     1  UNL1        0.1361
     24 C           1.1930    0.2878   29.2221 C.ar    1  UNL1        0.0790
     25 C           1.3385    1.5479   28.4214 C.ar    1  UNL1        0.0165
     26 C           0.1382    2.1609   27.7630 C.ar    1  UNL1        0.0029
     27 C          -1.2075    1.5138   27.9052 C.ar    1  UNL1        0.0207
     28 C          -1.3531    0.2537   28.7058 C.ar    1  UNL1        0.0985
     29 N          -0.1528   -0.3593   29.3643 N.ar    1  UNL1       -0.2464
     30 N           2.3792   -0.6053   31.3540 N.3     1  UNL1       -0.2913
     31 H           2.5308   -1.6079   31.4646 H       1  UNL1        0.1238
     32 C           3.3588    0.0831   32.2577 C.3     1  UNL1        0.0426
     33 C           2.7058    1.4006   31.9618 C.3     1  UNL1        0.0158
     34 C           4.0118   -1.2345   32.5535 C.3     1  UNL1        0.0158
     35 C           4.3383    0.7714   33.1613 C.3     1  UNL1        0.0158
@<TRIPOS>BOND
     1     8     9    1
     2     9    10   ar
     3    10    11   ar
     4    11    12   ar
     5    12    18    1
     6    18    19    2
     7    19    20    1
     8    20    21    2
     9    21    22    1
    10    12    13   ar
    11    13    14   ar
    12    14    15   ar
    13    15    16   ar
    14    16     6    1
    15     6     1    1
    16     1     2   ar
    17     2     3   ar
    18     3    23    1
    19    23    30    1
    20    30    32    1
    21    32    33    1
    22    32    34    1
    23    32    35    1
    24    23    24    1
    25    24    25   ar
    26    25    26   ar
    27    26    27   ar
    28    27    28   ar
    29    28    29   ar
    30     3     4   ar
    31     4     5   ar
    32    16    17   ar
    33    17     9   ar
    34    15    11   ar
    35     5     1   ar
    36    22    18    1
    37    29    24   ar
    38     6     7    1
    39    30    31    1
@<TRIPOS>MOLECULE
*****
 35 39 0 0 0
SMALL
GASTEIGER

@<TRIPOS>ATOM
      1 C           1.2331    1.4713   20.0920 C.ar    1  UNL1        0.0991
      2 C           2.6725    1.0806   19.9325 C.ar    1  UNL1        0.0399
      3 C           2.7643   -0.4115   20.0563 C.ar    1  UNL1        0.0886
      4 N           1.3815   -0.9429   20.2923 N.ar    1  UNL1       -0.2105
      5 S           0.4352    0.2207   20.3144 S.2     1  UNL1        0.0276
      6 N           0.6873    2.8676   20.0385 N.pl3   1  UNL1       -0.2894
      7 H           1.2199    3.5890   19.6322 H       1  UNL1        0.1542
      8 C          -4.3611    3.8737   19.3309 C.3     1  UNL1        0.0538
      9 C          -3.1941    3.6676   20.2503 C.ar    1  UNL1        0.0784
     10 C          -3.3841    3.7584   21.7355 C.ar    1  UNL1        0.0962
     11 N          -2.2170    3.5523   22.6549 N.ar    1  UNL1       -0.2856
     12 C          -2.0999    3.5808   24.1501 C.ar    1  UNL1        0.0841
     13 C          -0.6704    3.3014   24.5085 C.ar    1  UNL1        0.1179
     14 N           0.0959    3.1003   23.2349 N.ar    1  UNL1       -0.2223
     15 C          -0.8599    3.2553   22.0893 C.ar    1  UNL1        0.1800
     16 C          -0.6698    3.1645   20.6042 C.ar    1  UNL1        0.1670
     17 N          -1.8369    3.3707   19.6846 N.ar    1  UNL1       -0.2304
     18 C          -3.2164    3.8426   25.1171 C.2     1  UNL1        0.0425
     19 C          -4.6733    3.5819   24.8732 C.2     1  UNL1        0.1209
     20 N          -5.4292    3.9894   26.1032 N.2     1  UNL1       -0.1510
     21 N          -4.4394    4.5018   27.1070 N.2     1  UNL1       -0.1694
     22 C          -3.0718    4.4111   26.4976 C.3     1  UNL1        0.1786
     23 C           4.0185   -1.2286   19.9609 C.3     1  UNL1        0.1361
     24 C           5.2315   -0.6643   19.2826 C.ar    1  UNL1        0.0790
     25 C           5.2929   -0.6027   17.7851 C.ar    1  UNL1        0.0165
     26 C           6.5060   -0.0384   17.1068 C.ar    1  UNL1        0.0029
     27 C           7.6575    0.4644   17.9260 C.ar    1  UNL1        0.0207
     28 C           7.5962    0.4029   19.4235 C.ar    1  UNL1        0.0985
     29 N           6.3831   -0.1615   20.1018 N.ar    1  UNL1       -0.2464
     30 N           4.0597   -2.6101   20.5437 N.3     1  UNL1       -0.2913
     31 H           3.1189   -2.8161   20.8798 H       1  UNL1        0.1238
     32 C           4.4789   -3.7713   19.6917 C.3     1  UNL1        0.0426
     33 C           5.7996   -3.8152   20.4015 C.3     1  UNL1        0.0158
     34 C           3.1583   -3.7274   18.9820 C.3     1  UNL1        0.0158
     35 C           4.8982   -4.9325   18.8398 C.3     1  UNL1        0.0158
@<TRIPOS>BOND
     1     8     9    1
     2     9    10   ar
     3    10    11   ar
     4    11    12   ar
     5    12    18    1
     6    18    19    2
     7    19    20    1
     8    20    21    2
     9    21    22    1
    10    12    13   ar
    11    13    14   ar
    12    14    15   ar
    13    15    16   ar
    14    16     6    1
    15     6     1    1
    16     1     2   ar
    17     2     3   ar
    18     3    23    1
    19    23    30    1
    20    30    32    1
    21    32    33    1
    22    32    34    1
    23    32    35    1
    24    23    24    1
    25    24    25   ar
    26    25    26   ar
    27    26    27   ar
    28    27    28   ar
    29    28    29   ar
    30     3     4   ar
    31     4     5   ar
    32    16    17   ar
    33    17     9   ar
    34    15    11   ar
    35     5     1   ar
    36    22    18    1
    37    29    24   ar
    38     6     7    1
    39    30    31    1
