@<TRIPOS>MOLECULE
*****
 29 32 0 0 0
SMALL
GASTEIGER

@<TRIPOS>ATOM
      1 C          -5.7151  -19.8661   21.1919 C.3     1  UNL1        0.0071
      2 C          -6.5783  -20.3138   22.3340 C.3     1  UNL1        0.0177
      3 C          -8.0478  -20.0129   22.3263 C.3     1  UNL1        0.0721
      4 N          -8.6541  -19.2643   21.1765 N.3     1  UNL1       -0.2724
      5 C          -7.7908  -18.8166   20.0344 C.3     1  UNL1        0.0721
      6 C          -6.3214  -19.1175   20.0421 C.3     1  UNL1        0.0177
      7 C          -4.2456  -20.1670   21.1996 C.3     1  UNL1        0.0270
      8 C          -1.5518  -17.9321   19.3293 C.ar    1  UNL1        0.1385
      9 C          -1.2736  -16.8909   20.3726 C.ar    1  UNL1        0.0374
     10 C          -1.9861  -16.9417   21.6915 C.ar    1  UNL1        0.0095
     11 C          -2.9768  -18.0338   21.9672 C.ar    1  UNL1        0.0308
     12 BR         -3.6894  -18.0846   23.2862 Br      1  UNL1       -0.0493
     13 C          -3.2549  -19.0750   20.9239 C.ar    1  UNL1       -0.0130
     14 C          -2.5424  -19.0242   19.6050 C.ar    1  UNL1        0.0331
     15 C          -1.6175  -17.6737   16.7449 C.3     1  UNL1        0.2525
     16 O          -0.8392  -17.8813   18.0103 O.3     1  UNL1       -0.4714
     17 C         -10.1235  -18.9633   21.1688 C.3     1  UNL1        0.0768
     18 C         -10.6721  -17.8810   22.0507 C.3     1  UNL1        0.0446
     19 C          -9.9794  -17.5380   23.3362 C.ar    1  UNL1       -0.0070
     20 C          -8.8492  -16.5517   23.3392 C.ar    1  UNL1        0.0367
     21 C          -8.1565  -16.2086   24.6247 C.ar    1  UNL1        0.1721
     22 C          -8.5940  -16.8518   25.9073 C.ar    1  UNL1        0.1732
     23 C          -9.7242  -17.8381   25.9042 C.ar    1  UNL1        0.0511
     24 C         -10.4169  -18.1812   24.6187 C.ar    1  UNL1        0.0570
     25 CL        -11.5471  -19.1675   24.6157 Cl      1  UNL1       -0.0825
     26 O          -7.9014  -16.5088   27.1927 O.3     1  UNL1       -0.4683
     27 C          -6.7713  -15.5226   27.1957 C.3     1  UNL1        0.2526
     28 C          -6.3338  -14.8794   25.9132 C.3     1  UNL1        0.2526
     29 O          -7.0264  -15.2224   24.6277 O.3     1  UNL1       -0.4684
@<TRIPOS>BOND
     1    15    16    1
     2    16     8    1
     3     8     9   ar
     4     9    10   ar
     5    10    11   ar
     6    11    12    1
     7    11    13   ar
     8    13     7    1
     9     7     1    1
    10     1     2    1
    11     2     3    1
    12     3     4    1
    13     4    17    1
    14    17    18    1
    15    18    19    1
    16    19    20   ar
    17    20    21   ar
    18    21    22   ar
    19    22    23   ar
    20    23    24   ar
    21    24    25    1
    22    22    26    1
    23    26    27    1
    24    27    28    1
    25    28    29    1
    26     4     5    1
    27     5     6    1
    28    13    14   ar
    29    14     8   ar
    30     6     1    1
    31    24    19   ar
    32    29    21    1
@<TRIPOS>MOLECULE
*****
 29 32 0 0 0
SMALL
GASTEIGER

@<TRIPOS>ATOM
      1 C          -6.6173  -19.8920   20.6536 C.3     1  UNL1        0.0071
      2 C          -7.2443  -20.1285   21.9956 C.3     1  UNL1        0.0177
      3 C          -8.7330  -20.0354   22.1548 C.3     1  UNL1        0.0721
      4 N          -9.5945  -19.7058   20.9720 N.3     1  UNL1       -0.2724
      5 C          -8.9675  -19.4694   19.6300 C.3     1  UNL1        0.0721
      6 C          -7.4789  -19.5625   19.4708 C.3     1  UNL1        0.0177
      7 C          -5.1287  -19.9851   20.4944 C.3     1  UNL1        0.0270
      8 C          -3.6718  -17.4766   23.2027 C.ar    1  UNL1        0.1385
      9 C          -2.4591  -16.9597   22.4870 C.ar    1  UNL1        0.0374
     10 C          -2.1363  -17.4513   21.1071 C.ar    1  UNL1        0.0095
     11 C          -3.0262  -18.4597   20.4429 C.ar    1  UNL1        0.0308
     12 BR         -2.7033  -18.9513   19.0630 Br      1  UNL1       -0.0493
     13 C          -4.2388  -18.9767   21.1586 C.ar    1  UNL1       -0.0130
     14 C          -4.5616  -18.4851   22.5385 C.ar    1  UNL1        0.0331
     15 C          -5.0654  -15.9533   24.7799 C.3     1  UNL1        0.2525
     16 O          -3.9946  -16.9851   24.5827 O.3     1  UNL1       -0.4714
     17 C         -11.0831  -19.6128   21.1312 C.3     1  UNL1        0.0768
     18 C         -11.6678  -18.8982   22.3134 C.3     1  UNL1        0.0446
     19 C         -10.8182  -17.9593   23.1176 C.ar    1  UNL1       -0.0070
     20 C         -10.4177  -18.3220   24.5169 C.ar    1  UNL1        0.0367
     21 C          -9.5681  -17.3830   25.3211 C.ar    1  UNL1        0.1721
     22 C          -9.1191  -16.0814   24.7260 C.ar    1  UNL1        0.1732
     23 C          -9.5196  -15.7188   23.3266 C.ar    1  UNL1        0.0511
     24 C         -10.3691  -16.6577   22.5225 C.ar    1  UNL1        0.0570
     25 CL        -10.7696  -16.2950   21.1231 Cl      1  UNL1       -0.0825
     26 O          -8.2695  -15.1425   25.5301 O.3     1  UNL1       -0.4683
     27 C          -7.8691  -15.5052   26.9294 C.3     1  UNL1        0.2526
     28 C          -8.3182  -16.8068   27.5246 C.3     1  UNL1        0.2526
     29 O          -9.1677  -17.7457   26.7204 O.3     1  UNL1       -0.4684
@<TRIPOS>BOND
     1    15    16    1
     2    16     8    1
     3     8     9   ar
     4     9    10   ar
     5    10    11   ar
     6    11    12    1
     7    11    13   ar
     8    13     7    1
     9     7     1    1
    10     1     2    1
    11     2     3    1
    12     3     4    1
    13     4    17    1
    14    17    18    1
    15    18    19    1
    16    19    20   ar
    17    20    21   ar
    18    21    22   ar
    19    22    23   ar
    20    23    24   ar
    21    24    25    1
    22    22    26    1
    23    26    27    1
    24    27    28    1
    25    28    29    1
    26     4     5    1
    27     5     6    1
    28    13    14   ar
    29    14     8   ar
    30     6     1    1
    31    24    19   ar
    32    29    21    1
@<TRIPOS>MOLECULE
*****
 29 32 0 0 0
SMALL
GASTEIGER

@<TRIPOS>ATOM
      1 C           4.2762   -2.8375   21.0363 C.3     1  UNL1        0.0071
      2 C           5.5556   -3.6168   20.9602 C.3     1  UNL1        0.0177
      3 C           6.4059   -3.7840   22.1846 C.3     1  UNL1        0.0721
      4 N           5.9768   -3.1719   23.4850 N.3     1  UNL1       -0.2724
      5 C           4.6974   -2.3926   23.5611 C.3     1  UNL1        0.0721
      6 C           3.8471   -2.2254   22.3368 C.3     1  UNL1        0.0177
      7 C           3.4260   -2.6703   19.8119 C.3     1  UNL1        0.0270
      8 C           0.9366    0.4201   19.8639 C.ar    1  UNL1        0.1385
      9 C           1.5963    1.3322   18.8726 C.ar    1  UNL1        0.0374
     10 C           2.8659    0.9102   18.1944 C.ar    1  UNL1        0.0095
     11 C           3.4758   -0.4240   18.5075 C.ar    1  UNL1        0.0308
     12 BR          4.7454   -0.8460   17.8292 Br      1  UNL1       -0.0493
     13 C           2.8161   -1.3361   19.4988 C.ar    1  UNL1       -0.0130
     14 C           1.5465   -0.9141   20.1770 C.ar    1  UNL1        0.0331
     15 C          -0.5740    2.2906   20.8484 C.3     1  UNL1        0.2525
     16 O          -0.3330    0.8421   20.5422 O.3     1  UNL1       -0.4714
     17 C           6.8271   -3.3391   24.7094 C.3     1  UNL1        0.0768
     18 C           6.8940   -4.6689   25.4001 C.3     1  UNL1        0.0446
     19 C           6.9066   -4.7359   26.8986 C.ar    1  UNL1       -0.0070
     20 C           6.4873   -3.5435   27.7062 C.ar    1  UNL1        0.0367
     21 C           6.4998   -3.6105   29.2047 C.ar    1  UNL1        0.1721
     22 C           6.9316   -4.8699   29.8955 C.ar    1  UNL1        0.1732
     23 C           7.3509   -6.0624   29.0878 C.ar    1  UNL1        0.0511
     24 C           7.3383   -5.9954   27.5894 C.ar    1  UNL1        0.0570
     25 CL          7.7576   -7.1879   26.7818 Cl      1  UNL1       -0.0825
     26 O           6.9441   -4.9370   31.3939 O.3     1  UNL1       -0.4683
     27 C           6.5249   -3.7445   32.2015 C.3     1  UNL1        0.2526
     28 C           6.0931   -2.4850   31.5107 C.3     1  UNL1        0.2526
     29 O           6.0806   -2.4180   30.0123 O.3     1  UNL1       -0.4684
@<TRIPOS>BOND
     1    15    16    1
     2    16     8    1
     3     8     9   ar
     4     9    10   ar
     5    10    11   ar
     6    11    12    1
     7    11    13   ar
     8    13     7    1
     9     7     1    1
    10     1     2    1
    11     2     3    1
    12     3     4    1
    13     4    17    1
    14    17    18    1
    15    18    19    1
    16    19    20   ar
    17    20    21   ar
    18    21    22   ar
    19    22    23   ar
    20    23    24   ar
    21    24    25    1
    22    22    26    1
    23    26    27    1
    24    27    28    1
    25    28    29    1
    26     4     5    1
    27     5     6    1
    28    13    14   ar
    29    14     8   ar
    30     6     1    1
    31    24    19   ar
    32    29    21    1
@<TRIPOS>MOLECULE
*****
 29 32 0 0 0
SMALL
GASTEIGER

@<TRIPOS>ATOM
      1 C           4.9445   -3.5195   20.8145 C.3     1  UNL1        0.0071
      2 C           4.5582   -3.5077   22.2639 C.3     1  UNL1        0.0177
      3 C           5.5490   -3.9312   23.3076 C.3     1  UNL1        0.0721
      4 N           6.9259   -4.3665   22.9018 N.3     1  UNL1       -0.2724
      5 C           7.3121   -4.3783   21.4525 C.3     1  UNL1        0.0721
      6 C           6.3214   -3.9548   20.4088 C.3     1  UNL1        0.0177
      7 C           3.9538   -3.0960   19.7709 C.3     1  UNL1        0.0270
      8 C           5.4666   -0.2649   17.4372 C.ar    1  UNL1        0.1385
      9 C           4.4688    0.8358   17.6436 C.ar    1  UNL1        0.0374
     10 C           3.2993    0.6259   18.5591 C.ar    1  UNL1        0.0095
     11 C           3.1276   -0.6847   19.2682 C.ar    1  UNL1        0.0308
     12 BR          1.9580   -0.8945   20.1837 Br      1  UNL1       -0.0493
     13 C           4.1255   -1.7854   19.0618 C.ar    1  UNL1       -0.0130
     14 C           5.2950   -1.5755   18.1463 C.ar    1  UNL1        0.0331
     15 C           6.9571    1.3210   16.0183 C.3     1  UNL1        0.2525
     16 O           6.6362   -0.0551   16.5217 O.3     1  UNL1       -0.4714
     17 C           7.9165   -4.7900   23.9455 C.3     1  UNL1        0.0768
     18 C           7.7073   -6.0672   24.7038 C.3     1  UNL1        0.0446
     19 C           7.7032   -6.0568   26.2038 C.ar    1  UNL1       -0.0070
     20 C           7.0988   -4.9006   26.9441 C.ar    1  UNL1        0.0367
     21 C           7.0947   -4.8902   28.4441 C.ar    1  UNL1        0.1721
     22 C           7.6948   -6.0360   29.2037 C.ar    1  UNL1        0.1732
     23 C           8.2992   -7.1922   28.4633 C.ar    1  UNL1        0.0511
     24 C           8.3033   -7.2025   26.9634 C.ar    1  UNL1        0.0570
     25 CL          8.9076   -8.3587   26.2230 Cl      1  UNL1       -0.0825
     26 O           7.6907   -6.0256   30.7036 O.3     1  UNL1       -0.4683
     27 C           7.0864   -4.8695   31.4439 C.3     1  UNL1        0.2526
     28 C           6.4862   -3.7237   30.6843 C.3     1  UNL1        0.2526
     29 O           6.4903   -3.7341   29.1844 O.3     1  UNL1       -0.4684
@<TRIPOS>BOND
     1    15    16    1
     2    16     8    1
     3     8     9   ar
     4     9    10   ar
     5    10    11   ar
     6    11    12    1
     7    11    13   ar
     8    13     7    1
     9     7     1    1
    10     1     2    1
    11     2     3    1
    12     3     4    1
    13     4    17    1
    14    17    18    1
    15    18    19    1
    16    19    20   ar
    17    20    21   ar
    18    21    22   ar
    19    22    23   ar
    20    23    24   ar
    21    24    25    1
    22    22    26    1
    23    26    27    1
    24    27    28    1
    25    28    29    1
    26     4     5    1
    27     5     6    1
    28    13    14   ar
    29    14     8   ar
    30     6     1    1
    31    24    19   ar
    32    29    21    1
@<TRIPOS>MOLECULE
*****
 29 32 0 0 0
SMALL
GASTEIGER

@<TRIPOS>ATOM
      1 C          -5.8223  -19.9679   21.4233 C.3     1  UNL1        0.0071
      2 C          -6.7842  -20.4481   22.4694 C.3     1  UNL1        0.0177
      3 C          -8.2598  -20.2637   22.2726 C.3     1  UNL1        0.0721
      4 N          -8.7735  -19.5991   21.0299 N.3     1  UNL1       -0.2724
      5 C          -7.8116  -19.1189   19.9839 C.3     1  UNL1        0.0721
      6 C          -6.3361  -19.3033   20.1805 C.3     1  UNL1        0.0177
      7 C          -4.3468  -20.1523   21.6200 C.3     1  UNL1        0.0270
      8 C          -1.3629  -17.8397   20.3960 C.ar    1  UNL1        0.1385
      9 C          -1.5708  -16.6292   21.2570 C.ar    1  UNL1        0.0374
     10 C          -2.7041  -16.5931   22.2390 C.ar    1  UNL1        0.0095
     11 C          -3.6294  -17.7674   22.3600 C.ar    1  UNL1        0.0308
     12 BR         -4.7627  -17.7312   23.3421 Br      1  UNL1       -0.0493
     13 C          -3.4215  -18.9779   21.4990 C.ar    1  UNL1       -0.0130
     14 C          -2.2882  -19.0141   20.5170 C.ar    1  UNL1        0.0331
     15 C           1.1122  -17.3252   19.7965 C.3     1  UNL1        0.2525
     16 O          -0.2296  -17.8759   19.4139 O.3     1  UNL1       -0.4714
     17 C         -10.2490  -19.4147   20.8332 C.3     1  UNL1        0.0768
     18 C         -11.0399  -18.5981   21.8118 C.3     1  UNL1        0.0446
     19 C         -10.3323  -17.7119   22.7937 C.ar    1  UNL1       -0.0070
     20 C         -10.0981  -18.1850   24.1977 C.ar    1  UNL1        0.0367
     21 C          -9.3905  -17.2989   25.1796 C.ar    1  UNL1        0.1721
     22 C          -8.9171  -15.9396   24.7575 C.ar    1  UNL1        0.1732
     23 C          -9.1513  -15.4664   23.3534 C.ar    1  UNL1        0.0511
     24 C          -9.8589  -16.3526   22.3715 C.ar    1  UNL1        0.0570
     25 CL        -10.0931  -15.8795   20.9675 Cl      1  UNL1       -0.0825
     26 O          -8.2095  -15.0534   25.7393 O.3     1  UNL1       -0.4683
     27 C          -7.9754  -15.5265   27.1433 C.3     1  UNL1        0.2526
     28 C          -8.4487  -16.8858   27.5654 C.3     1  UNL1        0.2526
     29 O          -9.1563  -17.7720   26.5836 O.3     1  UNL1       -0.4684
@<TRIPOS>BOND
     1    15    16    1
     2    16     8    1
     3     8     9   ar
     4     9    10   ar
     5    10    11   ar
     6    11    12    1
     7    11    13   ar
     8    13     7    1
     9     7     1    1
    10     1     2    1
    11     2     3    1
    12     3     4    1
    13     4    17    1
    14    17    18    1
    15    18    19    1
    16    19    20   ar
    17    20    21   ar
    18    21    22   ar
    19    22    23   ar
    20    23    24   ar
    21    24    25    1
    22    22    26    1
    23    26    27    1
    24    27    28    1
    25    28    29    1
    26     4     5    1
    27     5     6    1
    28    13    14   ar
    29    14     8   ar
    30     6     1    1
    31    24    19   ar
    32    29    21    1
@<TRIPOS>MOLECULE
*****
 29 32 0 0 0
SMALL
GASTEIGER

@<TRIPOS>ATOM
      1 C           7.0057   -4.0715   22.7381 C.3     1  UNL1        0.0071
      2 C           7.3515   -4.1011   21.2788 C.3     1  UNL1        0.0177
      3 C           6.2842   -3.8706   20.2503 C.3     1  UNL1        0.0721
      4 N           4.8712   -3.6103   20.6811 N.3     1  UNL1       -0.2724
      5 C           4.5254   -3.5807   22.1404 C.3     1  UNL1        0.0721
      6 C           5.5926   -3.8112   23.1689 C.3     1  UNL1        0.0177
      7 C           8.0729   -4.3020   23.7666 C.3     1  UNL1        0.0270
      8 C           7.0013   -5.9152   27.2306 C.ar    1  UNL1        0.1385
      9 C           7.4365   -7.3363   27.0282 C.ar    1  UNL1        0.0374
     10 C           8.0838   -7.7460   25.7386 C.ar    1  UNL1        0.0095
     11 C           8.2960   -6.7346   24.6514 C.ar    1  UNL1        0.0308
     12 BR          8.9434   -7.1443   23.3618 Br      1  UNL1       -0.0493
     13 C           7.8608   -5.3135   24.8538 C.ar    1  UNL1       -0.0130
     14 C           7.2134   -4.9038   26.1434 C.ar    1  UNL1        0.0331
     15 C           7.0556   -5.7514   29.8230 C.3     1  UNL1        0.2525
     16 O           6.3539   -5.5055   28.5202 O.3     1  UNL1       -0.4714
     17 C           3.8040   -3.3798   19.6526 C.3     1  UNL1        0.0768
     18 C           3.0512   -2.0825   19.6306 C.3     1  UNL1        0.0446
     19 C           3.7001   -0.8481   19.0780 C.ar    1  UNL1       -0.0070
     20 C           4.8782   -0.9681   18.1574 C.ar    1  UNL1        0.0367
     21 C           5.5271    0.2663   17.6048 C.ar    1  UNL1        0.1721
     22 C           4.9978    1.6207   17.9729 C.ar    1  UNL1        0.1732
     23 C           3.8196    1.7406   18.8936 C.ar    1  UNL1        0.0511
     24 C           3.1708    0.5063   19.4461 C.ar    1  UNL1        0.0570
     25 CL          1.9927    0.6263   20.3668 Cl      1  UNL1       -0.0825
     26 O           5.6466    2.8550   17.4204 O.3     1  UNL1       -0.4683
     27 C           6.8247    2.7350   16.4997 C.3     1  UNL1        0.2526
     28 C           7.3540    1.3806   16.1316 C.3     1  UNL1        0.2526
     29 O           6.7052    0.1462   16.6842 O.3     1  UNL1       -0.4684
@<TRIPOS>BOND
     1    15    16    1
     2    16     8    1
     3     8     9   ar
     4     9    10   ar
     5    10    11   ar
     6    11    12    1
     7    11    13   ar
     8    13     7    1
     9     7     1    1
    10     1     2    1
    11     2     3    1
    12     3     4    1
    13     4    17    1
    14    17    18    1
    15    18    19    1
    16    19    20   ar
    17    20    21   ar
    18    21    22   ar
    19    22    23   ar
    20    23    24   ar
    21    24    25    1
    22    22    26    1
    23    26    27    1
    24    27    28    1
    25    28    29    1
    26     4     5    1
    27     5     6    1
    28    13    14   ar
    29    14     8   ar
    30     6     1    1
    31    24    19   ar
    32    29    21    1
@<TRIPOS>MOLECULE
*****
 29 32 0 0 0
SMALL
GASTEIGER

@<TRIPOS>ATOM
      1 C           6.8581   -4.0248   22.5635 C.3     1  UNL1        0.0071
      2 C           5.4499   -3.7929   23.0252 C.3     1  UNL1        0.0177
      3 C           4.3654   -3.5309   22.0226 C.3     1  UNL1        0.0721
      4 N           4.6892   -3.5006   20.5583 N.3     1  UNL1       -0.2724
      5 C           6.0974   -3.7324   20.0965 C.3     1  UNL1        0.0721
      6 C           7.1819   -3.9945   21.0991 C.3     1  UNL1        0.0177
      7 C           7.9426   -4.2868   23.5661 C.3     1  UNL1        0.0270
      8 C           6.8237   -5.8523   27.0370 C.ar    1  UNL1        0.1385
      9 C           7.2806   -7.2711   26.8685 C.ar    1  UNL1        0.0374
     10 C           7.9581   -7.6951   25.5992 C.ar    1  UNL1        0.0095
     11 C           8.1788   -6.7003   24.4984 C.ar    1  UNL1        0.0308
     12 BR          8.8564   -7.1244   23.2290 Br      1  UNL1       -0.0493
     13 C           7.7219   -5.2816   24.6669 C.ar    1  UNL1       -0.0130
     14 C           7.0444   -4.8576   25.9362 C.ar    1  UNL1        0.0331
     15 C           6.8468   -5.5947   29.6222 C.3     1  UNL1        0.2525
     16 O           6.1462   -5.4283   28.3063 O.3     1  UNL1       -0.4714
     17 C           3.6047   -3.2386   19.5557 C.3     1  UNL1        0.0768
     18 C           3.5334   -1.9131   18.8572 C.3     1  UNL1        0.0446
     19 C           3.1300   -0.6849   19.6182 C.ar    1  UNL1       -0.0070
     20 C           1.6774   -0.3546   19.7935 C.ar    1  UNL1        0.0367
     21 C           1.2741    0.8735   20.5545 C.ar    1  UNL1        0.1721
     22 C           2.3234    1.7712   21.1402 C.ar    1  UNL1        0.1732
     23 C           3.7761    1.4409   20.9649 C.ar    1  UNL1        0.0511
     24 C           4.1794    0.2128   20.2039 C.ar    1  UNL1        0.0570
     25 CL          5.6320   -0.1176   20.0285 Cl      1  UNL1       -0.0825
     26 O           1.9201    2.9993   21.9012 O.3     1  UNL1       -0.4683
     27 C           0.4675    3.3296   22.0765 C.3     1  UNL1        0.2526
     28 C          -0.5818    2.4319   21.4909 C.3     1  UNL1        0.2526
     29 O          -0.1785    1.2038   20.7299 O.3     1  UNL1       -0.4684
@<TRIPOS>BOND
     1    15    16    1
     2    16     8    1
     3     8     9   ar
     4     9    10   ar
     5    10    11   ar
     6    11    12    1
     7    11    13   ar
     8    13     7    1
     9     7     1    1
    10     1     2    1
    11     2     3    1
    12     3     4    1
    13     4    17    1
    14    17    18    1
    15    18    19    1
    16    19    20   ar
    17    20    21   ar
    18    21    22   ar
    19    22    23   ar
    20    23    24   ar
    21    24    25    1
    22    22    26    1
    23    26    27    1
    24    27    28    1
    25    28    29    1
    26     4     5    1
    27     5     6    1
    28    13    14   ar
    29    14     8   ar
    30     6     1    1
    31    24    19   ar
    32    29    21    1
@<TRIPOS>MOLECULE
*****
 29 32 0 0 0
SMALL
GASTEIGER

@<TRIPOS>ATOM
      1 C           6.8554   -3.5082   23.2893 C.3     1  UNL1        0.0071
      2 C           5.3574   -3.5402   23.3596 C.3     1  UNL1        0.0177
      3 C           4.5557   -3.8613   22.1331 C.3     1  UNL1        0.0721
      4 N           5.2520   -4.1504   20.8364 N.3     1  UNL1       -0.2724
      5 C           6.7500   -4.1184   20.7661 C.3     1  UNL1        0.0721
      6 C           7.5517   -3.7973   21.9925 C.3     1  UNL1        0.0177
      7 C           7.6571   -3.1871   24.5158 C.3     1  UNL1        0.0270
      8 C           7.3782   -5.9279   27.3724 C.ar    1  UNL1        0.1385
      9 C           6.6569   -5.1555   28.4368 C.ar    1  UNL1        0.0374
     10 C           6.2690   -3.7270   28.1943 C.ar    1  UNL1        0.0095
     11 C           6.6023   -3.0709   26.8873 C.ar    1  UNL1        0.0308
     12 BR          6.2144   -1.6423   26.6447 Br      1  UNL1       -0.0493
     13 C           7.3237   -3.8432   25.8228 C.ar    1  UNL1       -0.0130
     14 C           7.7116   -5.2717   26.0653 C.ar    1  UNL1        0.0331
     15 C           8.9872   -7.6746   28.4260 C.3     1  UNL1        0.2525
     16 O           7.7662   -7.3564   27.6149 O.3     1  UNL1       -0.4714
     17 C           4.4504   -4.4715   19.6100 C.3     1  UNL1        0.0768
     18 C           3.4426   -3.4877   19.0938 C.3     1  UNL1        0.0446
     19 C           3.8662   -2.0901   18.7511 C.ar    1  UNL1       -0.0070
     20 C           5.0846   -1.8616   17.9065 C.ar    1  UNL1        0.0367
     21 C           5.5082   -0.4640   17.5638 C.ar    1  UNL1        0.1721
     22 C           4.7134    0.7050   18.0655 C.ar    1  UNL1        0.1732
     23 C           3.4949    0.4764   18.9101 C.ar    1  UNL1        0.0511
     24 C           3.0714   -0.9212   19.2529 C.ar    1  UNL1        0.0570
     25 CL          1.8529   -1.1498   20.0974 Cl      1  UNL1       -0.0825
     26 O           5.1369    2.1025   17.7228 O.3     1  UNL1       -0.4683
     27 C           6.3553    2.3310   16.8783 C.3     1  UNL1        0.2526
     28 C           7.1501    1.1621   16.3765 C.3     1  UNL1        0.2526
     29 O           6.7266   -0.2354   16.7192 O.3     1  UNL1       -0.4684
@<TRIPOS>BOND
     1    15    16    1
     2    16     8    1
     3     8     9   ar
     4     9    10   ar
     5    10    11   ar
     6    11    12    1
     7    11    13   ar
     8    13     7    1
     9     7     1    1
    10     1     2    1
    11     2     3    1
    12     3     4    1
    13     4    17    1
    14    17    18    1
    15    18    19    1
    16    19    20   ar
    17    20    21   ar
    18    21    22   ar
    19    22    23   ar
    20    23    24   ar
    21    24    25    1
    22    22    26    1
    23    26    27    1
    24    27    28    1
    25    28    29    1
    26     4     5    1
    27     5     6    1
    28    13    14   ar
    29    14     8   ar
    30     6     1    1
    31    24    19   ar
    32    29    21    1
@<TRIPOS>MOLECULE
*****
 29 32 0 0 0
SMALL
GASTEIGER

@<TRIPOS>ATOM
      1 C           2.1147   -0.7479   20.8967 C.3     1  UNL1        0.0071
      2 C           1.0049    0.2597   20.8406 C.3     1  UNL1        0.0177
      3 C           0.7346    1.1442   22.0216 C.3     1  UNL1        0.0721
      4 N           1.5741    1.0212   23.2585 N.3     1  UNL1       -0.2724
      5 C           2.6839    0.0136   23.3146 C.3     1  UNL1        0.0721
      6 C           2.9542   -0.8710   22.1338 C.3     1  UNL1        0.0177
      7 C           2.3850   -1.6325   19.7158 C.3     1  UNL1        0.0270
      8 C           5.8401   -0.4581   18.1559 C.ar    1  UNL1        0.1385
      9 C           6.5049   -1.7803   17.9117 C.ar    1  UNL1        0.0374
     10 C           5.7964   -3.0533   18.2688 C.ar    1  UNL1        0.0095
     11 C           4.4231   -3.0040   18.8702 C.ar    1  UNL1        0.0308
     12 BR          3.7147   -4.2770   19.2274 Br      1  UNL1       -0.0493
     13 C           3.7583   -1.6817   19.1144 C.ar    1  UNL1       -0.0130
     14 C           4.4668   -0.4088   18.7573 C.ar    1  UNL1        0.0331
     15 C           6.9811    1.0609   16.3836 C.3     1  UNL1        0.2525
     16 O           6.5485    0.8150   17.7987 O.3     1  UNL1       -0.4714
     17 C           1.3037    1.9057   24.4394 C.3     1  UNL1        0.0768
     18 C           0.3014    1.4891   25.4747 C.3     1  UNL1        0.0446
     19 C           0.7633    1.0598   26.8357 C.ar    1  UNL1       -0.0070
     20 C           2.1626    0.5548   27.0282 C.ar    1  UNL1        0.0367
     21 C           2.6245    0.1255   28.3892 C.ar    1  UNL1        0.1721
     22 C           1.6871    0.2011   29.5578 C.ar    1  UNL1        0.1732
     23 C           0.2878    0.7061   29.3653 C.ar    1  UNL1        0.0511
     24 C          -0.1741    1.1354   28.0043 C.ar    1  UNL1        0.0570
     25 CL         -1.5734    1.6404   27.8118 Cl      1  UNL1       -0.0825
     26 O           2.1489   -0.2282   30.9188 O.3     1  UNL1       -0.4683
     27 C           3.5482   -0.7331   31.1112 C.3     1  UNL1        0.2526
     28 C           4.4856   -0.8088   29.9427 C.3     1  UNL1        0.2526
     29 O           4.0237   -0.3795   28.5817 O.3     1  UNL1       -0.4684
@<TRIPOS>BOND
     1    15    16    1
     2    16     8    1
     3     8     9   ar
     4     9    10   ar
     5    10    11   ar
     6    11    12    1
     7    11    13   ar
     8    13     7    1
     9     7     1    1
    10     1     2    1
    11     2     3    1
    12     3     4    1
    13     4    17    1
    14    17    18    1
    15    18    19    1
    16    19    20   ar
    17    20    21   ar
    18    21    22   ar
    19    22    23   ar
    20    23    24   ar
    21    24    25    1
    22    22    26    1
    23    26    27    1
    24    27    28    1
    25    28    29    1
    26     4     5    1
    27     5     6    1
    28    13    14   ar
    29    14     8   ar
    30     6     1    1
    31    24    19   ar
    32    29    21    1
