@<TRIPOS>MOLECULE
*****
 28 31 0 0 0
SMALL
GASTEIGER

@<TRIPOS>ATOM
      1 C           5.7736   -0.9012   34.3161 C.ar    1  UNL1        0.0593
      2 C           4.7200   -1.8526   33.8318 C.ar    1  UNL1        0.0152
      3 C           5.0267   -2.8060   32.7151 C.ar    1  UNL1        0.0036
      4 C           6.3869   -2.8079   32.0828 C.ar    1  UNL1        0.0291
      5 C           7.4405   -1.8564   32.5672 C.ar    1  UNL1        0.1414
      6 F           8.8007   -1.8583   31.9349 F       1  UNL1       -0.2041
      7 C           7.1338   -0.9030   33.6839 C.ar    1  UNL1        0.0446
      8 O           7.5512   -0.4784   37.0201 O.2     1  UNL1       -0.2258
      9 C           6.2840    0.2466   36.6757 C.2     1  UNL1        0.4088
     10 O           5.6114    1.2931   37.5137 O.3     1  UNL1       -0.4342
     11 C           4.3786    1.7457   36.7888 C.3     1  UNL1        0.2149
     12 C           4.2893    0.9788   35.5028 C.3     1  UNL1        0.1471
     13 N           5.4669    0.0523   35.4329 N.am    1  UNL1       -0.2212
     14 C           3.4059    2.7830   37.2662 C.3     1  UNL1        0.1745
     15 N           2.2024    2.3728   38.0620 N.ar    1  UNL1       -0.2264
     16 C           2.0762    1.1300   38.8925 C.ar    1  UNL1        0.1193
     17 C           0.7097    1.1225   39.5108 C.ar    1  UNL1        0.1441
     18 N          -0.0088    2.3607   39.0625 N.ar    1  UNL1       -0.1271
     19 N           0.9138    3.1334   38.1671 N.ar    1  UNL1       -0.0636
     20 C           6.6935   -3.7613   30.9661 C.ar    1  UNL1        0.0213
     21 C           6.5178   -3.3283   29.5407 C.ar    1  UNL1        0.0029
     22 C           6.8245   -4.2818   28.4240 C.ar    1  UNL1        0.0173
     23 CA          7.3068   -5.6681   28.7327 C.ar    1  UNL1        0.0885
     24 N           7.4825   -6.1011   30.1581 N.ar    1  UNL1       -0.2457
     25 C           7.1759   -5.1477   31.2747 C.ar    1  UNL1        0.0986
     26 C           7.6135   -6.6215   27.6160 C.3     1  UNL1        0.1829
     27 O           6.5068   -7.1360   26.7440 O.3     1  UNL1       -0.3760
     28 H           5.9105   -7.6902   27.2715 H       1  UNL1        0.2110
@<TRIPOS>BOND
     1     8     9    2
     2     9    10    1
     3    10    11    1
     4    11    14    1
     5    14    15    1
     6    15    16   ar
     7    16    17   ar
     8    17    18   ar
     9    18    19   ar
    10    11    12    1
    11    12    13    1
    12    13     1    1
    13     1     2   ar
    14     2     3   ar
    15     3     4   ar
    16     4    20    1
    17    20    21   ar
    18    21    22   ar
    19    22    23   ar
    20    23    26    1
    21    26    27    1
    22    23    24   ar
    23    24    25   ar
    24     4     5   ar
    25     5     6    1
    26     5     7   ar
    27    13     9   am
    28     7     1   ar
    29    19    15   ar
    30    25    20   ar
    31    27    28    1
@<TRIPOS>MOLECULE
*****
 28 31 0 0 0
SMALL
GASTEIGER

@<TRIPOS>ATOM
      1 C         -14.8296   -0.5686   18.9865 C.ar    1  UNL1        0.0593
      2 C         -14.9116   -1.5878   20.0839 C.ar    1  UNL1        0.0152
      3 C         -14.0091   -2.7858   20.0638 C.ar    1  UNL1        0.0036
      4 C         -13.0247   -2.9645   18.9462 C.ar    1  UNL1        0.0291
      5 C         -12.9427   -1.9453   17.8488 C.ar    1  UNL1        0.1414
      6 F         -11.9583   -2.1240   16.7312 F       1  UNL1       -0.2041
      7 C         -13.8452   -0.7473   17.8689 C.ar    1  UNL1        0.0446
      8 O         -18.0567   -0.5895   18.5011 O.2     1  UNL1       -0.2258
      9 C         -17.2154    0.6198   18.7835 C.2     1  UNL1        0.4088
     10 O         -17.7097    2.0318   18.8924 O.3     1  UNL1       -0.4342
     11 C         -16.5319    2.9142   19.1828 C.3     1  UNL1        0.2149
     12 C         -15.3097    2.0474   19.2534 C.3     1  UNL1        0.1471
     13 N         -15.7321    0.6294   19.0066 N.am    1  UNL1       -0.2212
     14 C         -16.5697    4.4020   19.3697 C.3     1  UNL1        0.1745
     15 N         -15.5714    5.0706   20.2677 N.ar    1  UNL1       -0.2264
     16 C         -15.7669    5.3895   21.7203 C.ar    1  UNL1        0.1193
     17 C         -14.5187    6.0538   22.2211 C.ar    1  UNL1        0.1441
     18 N         -13.5518    6.1454   21.0779 N.ar    1  UNL1       -0.1271
     19 N         -14.2024    5.5378   19.8707 N.ar    1  UNL1       -0.0636
     20 C         -12.1222   -4.1625   18.9261 C.ar    1  UNL1        0.0213
     21 C         -10.6385   -3.9818   18.8001 C.ar    1  UNL1        0.0029
     22 C          -9.7360   -5.1798   18.7800 C.ar    1  UNL1        0.0173
     23 CA        -10.3174   -6.5586   18.8859 C.ar    1  UNL1        0.0885
     24 N         -11.8011   -6.7392   19.0119 N.ar    1  UNL1       -0.2457
     25 C         -12.7035   -5.5412   19.0320 C.ar    1  UNL1        0.0986
     26 C          -9.4150   -7.7565   18.8658 C.3     1  UNL1        0.1829
     27 O          -9.6506   -8.8564   17.8734 O.3     1  UNL1       -0.3760
     28 H         -10.4949   -9.2923   18.0684 H       1  UNL1        0.2110
@<TRIPOS>BOND
     1     8     9    2
     2     9    10    1
     3    10    11    1
     4    11    14    1
     5    14    15    1
     6    15    16   ar
     7    16    17   ar
     8    17    18   ar
     9    18    19   ar
    10    11    12    1
    11    12    13    1
    12    13     1    1
    13     1     2   ar
    14     2     3   ar
    15     3     4   ar
    16     4    20    1
    17    20    21   ar
    18    21    22   ar
    19    22    23   ar
    20    23    26    1
    21    26    27    1
    22    23    24   ar
    23    24    25   ar
    24     4     5   ar
    25     5     6    1
    26     5     7   ar
    27    13     9   am
    28     7     1   ar
    29    19    15   ar
    30    25    20   ar
    31    27    28    1
@<TRIPOS>MOLECULE
*****
 28 31 0 0 0
SMALL
GASTEIGER

@<TRIPOS>ATOM
      1 C           7.4460   -4.8131   24.6186 C.ar    1  UNL1        0.0593
      2 C           8.1967   -4.9545   23.3277 C.ar    1  UNL1        0.0152
      3 C           7.6926   -4.2758   22.0887 C.ar    1  UNL1        0.0036
      4 C           6.4377   -3.4557   22.1406 C.ar    1  UNL1        0.0291
      5 C           5.6870   -3.3142   23.4314 C.ar    1  UNL1        0.1414
      6 F           4.4321   -2.4941   23.4833 F       1  UNL1       -0.2041
      7 C           6.1911   -3.9929   24.6704 C.ar    1  UNL1        0.0446
      8 O           7.7006   -8.0347   25.0726 O.2     1  UNL1       -0.2258
      9 C           8.0671   -6.9726   26.0664 C.2     1  UNL1        0.4088
     10 O           8.6151   -7.2048   27.4433 O.3     1  UNL1       -0.4342
     11 C           8.8367   -5.8674   28.0856 C.3     1  UNL1        0.2149
     12 C           8.4257   -4.8088   27.1057 C.3     1  UNL1        0.1471
     13 N           7.9501   -5.4918   25.8577 N.am    1  UNL1       -0.2212
     14 C           9.3747   -5.6305   29.4656 C.3     1  UNL1        0.1745
     15 N           8.5577   -4.8719   30.4691 N.ar    1  UNL1       -0.2264
     16 C           7.1120   -5.1102   30.7901 C.ar    1  UNL1        0.1193
     17 C           6.7038   -4.1274   31.8472 C.ar    1  UNL1        0.1441
     18 N           7.8973   -3.2817   32.1796 N.ar    1  UNL1       -0.1271
     19 N           9.0431   -3.7418   31.3279 N.ar    1  UNL1       -0.0636
     20 C           5.9336   -2.7770   20.9015 C.ar    1  UNL1        0.0213
     21 C           5.4071   -3.5949   19.7597 C.ar    1  UNL1        0.0029
     22 C           4.9029   -2.9162   18.5206 C.ar    1  UNL1        0.0173
     23 CA          4.9254   -1.4196   18.4234 C.ar    1  UNL1        0.0885
     24 N           5.4520   -0.6016   19.5652 N.ar    1  UNL1       -0.2457
     25 C           5.9561   -1.2803   20.8042 C.ar    1  UNL1        0.0986
     26 C           4.4213   -0.7408   17.1844 C.3     1  UNL1        0.1829
     27 O           3.6905   -1.5320   16.1404 O.3     1  UNL1       -0.3760
     28 H           4.2961   -2.1744   15.7387 H       1  UNL1        0.2110
@<TRIPOS>BOND
     1     8     9    2
     2     9    10    1
     3    10    11    1
     4    11    14    1
     5    14    15    1
     6    15    16   ar
     7    16    17   ar
     8    17    18   ar
     9    18    19   ar
    10    11    12    1
    11    12    13    1
    12    13     1    1
    13     1     2   ar
    14     2     3   ar
    15     3     4   ar
    16     4    20    1
    17    20    21   ar
    18    21    22   ar
    19    22    23   ar
    20    23    26    1
    21    26    27    1
    22    23    24   ar
    23    24    25   ar
    24     4     5   ar
    25     5     6    1
    26     5     7   ar
    27    13     9   am
    28     7     1   ar
    29    19    15   ar
    30    25    20   ar
    31    27    28    1
@<TRIPOS>MOLECULE
*****
 28 31 0 0 0
SMALL
GASTEIGER

@<TRIPOS>ATOM
      1 C           2.0503    0.4672   26.3894 C.ar    1  UNL1        0.0593
      2 C           3.2387   -0.3015   25.8927 C.ar    1  UNL1        0.0152
      3 C           3.4844   -0.4327   24.4188 C.ar    1  UNL1        0.0036
      4 C           2.5416    0.2047   23.4416 C.ar    1  UNL1        0.0291
      5 C           1.3532    0.9734   23.9383 C.ar    1  UNL1        0.1414
      6 F           0.4104    1.6108   22.9612 F       1  UNL1       -0.2041
      7 C           1.1076    1.1046   25.4122 C.ar    1  UNL1        0.0446
      8 O          -0.8518    0.3013   27.8727 O.2     1  UNL1       -0.2258
      9 C           0.4707    0.5222   28.5451 C.2     1  UNL1        0.4088
     10 O           0.6915    0.7056   30.0174 O.3     1  UNL1       -0.4342
     11 C           2.1619    0.8953   30.2456 C.3     1  UNL1        0.2149
     12 C           2.8498    0.8290   28.9143 C.3     1  UNL1        0.1471
     13 N           1.8047    0.5985   27.8633 N.am    1  UNL1       -0.2212
     14 C           2.8274    1.1130   31.5721 C.3     1  UNL1        0.1745
     15 N           3.3736   -0.0555   32.3379 N.ar    1  UNL1       -0.2264
     16 C           4.0286    0.0024   33.6860 C.ar    1  UNL1        0.1193
     17 C           4.4205   -1.3933   34.0713 C.ar    1  UNL1        0.1441
     18 N           4.0075   -2.3138   32.9612 N.ar    1  UNL1       -0.1271
     19 N           3.3605   -1.4870   31.8899 N.ar    1  UNL1       -0.0636
     20 C           2.7873    0.0735   21.9676 C.ar    1  UNL1        0.0213
     21 C           2.8224   -1.2843   21.3311 C.ar    1  UNL1        0.0029
     22 C           3.0681   -1.4156   19.8572 C.ar    1  UNL1        0.0173
     23 CA          3.2787   -0.1890   19.0198 C.ar    1  UNL1        0.0885
     24 N           3.2435    1.1688   19.6564 N.ar    1  UNL1       -0.2457
     25 C           2.9979    1.3000   21.1303 C.ar    1  UNL1        0.0986
     26 C           3.5243   -0.3202   17.5459 C.3     1  UNL1        0.1829
     27 O           4.0024   -1.6238   16.9784 O.3     1  UNL1       -0.3760
     28 H           4.8945   -1.8127   17.3092 H       1  UNL1        0.2110
@<TRIPOS>BOND
     1     8     9    2
     2     9    10    1
     3    10    11    1
     4    11    14    1
     5    14    15    1
     6    15    16   ar
     7    16    17   ar
     8    17    18   ar
     9    18    19   ar
    10    11    12    1
    11    12    13    1
    12    13     1    1
    13     1     2   ar
    14     2     3   ar
    15     3     4   ar
    16     4    20    1
    17    20    21   ar
    18    21    22   ar
    19    22    23   ar
    20    23    26    1
    21    26    27    1
    22    23    24   ar
    23    24    25   ar
    24     4     5   ar
    25     5     6    1
    26     5     7   ar
    27    13     9   am
    28     7     1   ar
    29    19    15   ar
    30    25    20   ar
    31    27    28    1
@<TRIPOS>MOLECULE
*****
 28 31 0 0 0
SMALL
GASTEIGER

@<TRIPOS>ATOM
      1 C          -6.8359  -19.0913   20.9406 C.ar    1  UNL1        0.0593
      2 C          -6.9157  -18.4563   22.2972 C.ar    1  UNL1        0.0152
      3 C          -8.2433  -18.3101   22.9799 C.ar    1  UNL1        0.0036
      4 C          -9.4911  -18.7990   22.3060 C.ar    1  UNL1        0.0291
      5 C          -9.4113  -19.4340   20.9494 C.ar    1  UNL1        0.1414
      6 F         -10.6591  -19.9228   20.2756 F       1  UNL1       -0.2041
      7 C          -8.0837  -19.5802   20.2667 C.ar    1  UNL1        0.0446
      8 O          -5.3777  -21.9057   20.1642 O.2     1  UNL1       -0.2258
      9 C          -4.8381  -20.5311   19.9010 C.2     1  UNL1        0.4088
     10 O          -3.5334  -20.2089   19.2346 O.3     1  UNL1       -0.4342
     11 C          -3.3973  -18.7160   19.1796 C.3     1  UNL1        0.2149
     12 C          -4.6179  -18.1157   19.8120 C.3     1  UNL1        0.1471
     13 N          -5.5083  -19.2375   20.2578 N.am    1  UNL1       -0.2212
     14 C          -2.2433  -17.9568   18.5950 C.3     1  UNL1        0.1745
     15 N          -0.9421  -17.8811   19.3374 N.ar    1  UNL1       -0.2264
     16 C          -0.3052  -16.6340   19.8752 C.ar    1  UNL1        0.1193
     17 C           0.9811  -17.0213   20.5426 C.ar    1  UNL1        0.1441
     18 N           1.1392  -18.5077   20.4173 N.ar    1  UNL1       -0.1271
     19 N          -0.0495  -19.0391   19.6725 N.ar    1  UNL1       -0.0636
     20 C         -10.8187  -18.6528   22.9888 C.ar    1  UNL1        0.0213
     21 C         -11.9361  -17.9202   22.3070 C.ar    1  UNL1        0.0029
     22 C         -13.2637  -17.7740   22.9898 C.ar    1  UNL1        0.0173
     23 CA        -13.4739  -18.3604   24.3544 C.ar    1  UNL1        0.0885
     24 N         -12.3564  -19.0929   25.0361 N.ar    1  UNL1       -0.2457
     25 C         -11.0289  -19.2391   24.3534 C.ar    1  UNL1        0.0986
     26 C         -14.8014  -18.2142   25.0372 C.3     1  UNL1        0.1829
     27 O         -14.9836  -18.7178   26.4383 O.3     1  UNL1       -0.3760
     28 H         -14.9018  -19.6843   26.4476 H       1  UNL1        0.2110
@<TRIPOS>BOND
     1     8     9    2
     2     9    10    1
     3    10    11    1
     4    11    14    1
     5    14    15    1
     6    15    16   ar
     7    16    17   ar
     8    17    18   ar
     9    18    19   ar
    10    11    12    1
    11    12    13    1
    12    13     1    1
    13     1     2   ar
    14     2     3   ar
    15     3     4   ar
    16     4    20    1
    17    20    21   ar
    18    21    22   ar
    19    22    23   ar
    20    23    26    1
    21    26    27    1
    22    23    24   ar
    23    24    25   ar
    24     4     5   ar
    25     5     6    1
    26     5     7   ar
    27    13     9   am
    28     7     1   ar
    29    19    15   ar
    30    25    20   ar
    31    27    28    1
@<TRIPOS>MOLECULE
*****
 28 31 0 0 0
SMALL
GASTEIGER

@<TRIPOS>ATOM
      1 C           2.5392    0.1141   26.6510 C.ar    1  UNL1        0.0593
      2 C           1.9078    0.9543   25.5808 C.ar    1  UNL1        0.0152
      3 C           2.2406    0.7071   24.1392 C.ar    1  UNL1        0.0036
      4 C           3.2048   -0.3804   23.7679 C.ar    1  UNL1        0.0291
      5 C           3.8361   -1.2206   24.8381 C.ar    1  UNL1        0.1414
      6 F           4.8003   -2.3080   24.4667 F       1  UNL1       -0.2041
      7 C           3.5033   -0.9734   26.2796 C.ar    1  UNL1        0.0446
      8 O          -0.4592    0.2427   27.9328 O.2     1  UNL1       -0.2258
      9 C           0.8282    0.4204   28.6817 C.2     1  UNL1        0.4088
     10 O           0.9635    0.6884   30.1514 O.3     1  UNL1       -0.4342
     11 C           2.4253    0.7949   30.4706 C.3     1  UNL1        0.2149
     12 C           3.1934    0.5927   29.1981 C.3     1  UNL1        0.1471
     13 N           2.2064    0.3612   28.0926 N.am    1  UNL1       -0.2212
     14 C           3.0153    1.0574   31.8244 C.3     1  UNL1        0.1745
     15 N           3.5430   -0.0811   32.6462 N.ar    1  UNL1       -0.2264
     16 C           4.2065    0.0323   33.9867 C.ar    1  UNL1        0.1193
     17 C           4.5733   -1.3494   34.4407 C.ar    1  UNL1        0.1441
     18 N           4.1366   -2.3169   33.3808 N.ar    1  UNL1       -0.1271
     19 N           3.4998   -1.5330   32.2717 N.ar    1  UNL1       -0.0636
     20 C           3.5375   -0.6275   22.3262 C.ar    1  UNL1        0.0213
     21 C           2.4426   -0.9164   21.3426 C.ar    1  UNL1        0.0029
     22 C           2.7754   -1.1636   19.9010 C.ar    1  UNL1        0.0173
     23 CA          4.2031   -1.1219   19.4431 C.ar    1  UNL1        0.0885
     24 N           5.2981   -0.8330   20.4268 N.ar    1  UNL1       -0.2457
     25 C           4.9653   -0.5858   21.8683 C.ar    1  UNL1        0.0986
     26 C           4.5360   -1.3690   18.0015 C.3     1  UNL1        0.1829
     27 O           5.0096   -2.7229   17.5627 O.3     1  UNL1       -0.3760
     28 H           5.8735   -2.9086   17.9629 H       1  UNL1        0.2110
@<TRIPOS>BOND
     1     8     9    2
     2     9    10    1
     3    10    11    1
     4    11    14    1
     5    14    15    1
     6    15    16   ar
     7    16    17   ar
     8    17    18   ar
     9    18    19   ar
    10    11    12    1
    11    12    13    1
    12    13     1    1
    13     1     2   ar
    14     2     3   ar
    15     3     4   ar
    16     4    20    1
    17    20    21   ar
    18    21    22   ar
    19    22    23   ar
    20    23    26    1
    21    26    27    1
    22    23    24   ar
    23    24    25   ar
    24     4     5   ar
    25     5     6    1
    26     5     7   ar
    27    13     9   am
    28     7     1   ar
    29    19    15   ar
    30    25    20   ar
    31    27    28    1
@<TRIPOS>MOLECULE
*****
 28 31 0 0 0
SMALL
GASTEIGER

@<TRIPOS>ATOM
      1 C           5.4892   -0.7661   34.4587 C.ar    1  UNL1        0.0593
      2 C           4.4623   -1.7375   33.9568 C.ar    1  UNL1        0.0152
      3 C           4.7998   -2.6713   32.8325 C.ar    1  UNL1        0.0036
      4 C           6.1642   -2.6339   32.2103 C.ar    1  UNL1        0.0291
      5 C           7.1910   -1.6625   32.7123 C.ar    1  UNL1        0.1414
      6 F           8.5553   -1.6250   32.0900 F       1  UNL1       -0.2041
      7 C           6.8535   -0.7286   33.8365 C.ar    1  UNL1        0.0446
      8 O           6.9976   -0.6192   37.3489 O.2     1  UNL1       -0.2258
      9 C           5.8450    0.2353   36.9114 C.2     1  UNL1        0.4088
     10 O           5.1835    1.3074   37.7256 O.3     1  UNL1       -0.4342
     11 C           4.0812    1.9026   36.9004 C.3     1  UNL1        0.2149
     12 C           4.0616    1.1982   35.5762 C.3     1  UNL1        0.1471
     13 N           5.1517    0.1678   35.5830 N.am    1  UNL1       -0.2212
     14 C           3.1604    3.0079   37.3249 C.3     1  UNL1        0.1745
     15 N           3.4387    3.7741   38.5840 N.ar    1  UNL1       -0.2264
     16 C           3.9882    5.1675   38.6650 C.ar    1  UNL1        0.1193
     17 C           4.1055    5.5359   40.1143 C.ar    1  UNL1        0.1441
     18 N           3.6286    4.3702   40.9291 N.ar    1  UNL1       -0.1271
     19 N           3.2165    3.2813   39.9833 N.ar    1  UNL1       -0.0636
     20 C           6.5016   -3.5678   31.0860 C.ar    1  UNL1        0.0213
     21 C           6.9047   -4.9821   31.3812 C.ar    1  UNL1        0.0029
     22 C           7.2421   -5.9161   30.2569 C.ar    1  UNL1        0.0173
     23 CA          7.1766   -5.4356   28.8375 C.ar    1  UNL1        0.0885
     24 N           6.7735   -4.0212   28.5423 N.ar    1  UNL1       -0.2457
     25 C           6.4360   -3.0873   29.6665 C.ar    1  UNL1        0.0986
     26 C           7.5140   -6.3694   27.7132 C.3     1  UNL1        0.1829
     27 O           6.4213   -6.9395   26.8582 O.3     1  UNL1       -0.3760
     28 H           5.8638   -7.5252   27.3939 H       1  UNL1        0.2110
@<TRIPOS>BOND
     1     8     9    2
     2     9    10    1
     3    10    11    1
     4    11    14    1
     5    14    15    1
     6    15    16   ar
     7    16    17   ar
     8    17    18   ar
     9    18    19   ar
    10    11    12    1
    11    12    13    1
    12    13     1    1
    13     1     2   ar
    14     2     3   ar
    15     3     4   ar
    16     4    20    1
    17    20    21   ar
    18    21    22   ar
    19    22    23   ar
    20    23    26    1
    21    26    27    1
    22    23    24   ar
    23    24    25   ar
    24     4     5   ar
    25     5     6    1
    26     5     7   ar
    27    13     9   am
    28     7     1   ar
    29    19    15   ar
    30    25    20   ar
    31    27    28    1
@<TRIPOS>MOLECULE
*****
 28 31 0 0 0
SMALL
GASTEIGER

@<TRIPOS>ATOM
      1 C           6.4993   -2.1986   32.3306 C.ar    1  UNL1        0.0593
      2 C           5.1155   -2.5768   32.7688 C.ar    1  UNL1        0.0152
      3 C           4.3808   -1.7192   33.7560 C.ar    1  UNL1        0.0036
      4 C           5.0299   -0.4834   34.3051 C.ar    1  UNL1        0.0291
      5 C           6.4137   -0.1052   33.8669 C.ar    1  UNL1        0.1414
      6 F           7.0627    1.1306   34.4160 F       1  UNL1       -0.2041
      7 C           7.1484   -0.9628   32.8797 C.ar    1  UNL1        0.0446
      8 O           8.1487   -1.1378   29.7222 O.2     1  UNL1       -0.2258
      9 C           7.9922   -2.5686   30.1444 C.2     1  UNL1        0.4088
     10 O           8.5664   -3.7630   29.4418 O.3     1  UNL1       -0.4342
     11 C           8.1631   -4.9889   30.2065 C.3     1  UNL1        0.2149
     12 C           7.3397   -4.5520   31.3817 C.3     1  UNL1        0.1471
     13 N           7.2341   -3.0562   31.3433 N.am    1  UNL1       -0.2212
     14 C           8.5205   -6.4032   29.8573 C.3     1  UNL1        0.1745
     15 N           8.0942   -6.9812   28.5403 N.ar    1  UNL1       -0.2264
     16 C           7.3285   -6.2633   27.4688 C.ar    1  UNL1        0.1193
     17 C           7.1199   -7.2170   26.3300 C.ar    1  UNL1        0.1441
     18 N           7.7568   -8.5244   26.6977 N.ar    1  UNL1       -0.1271
     19 N           8.3590   -8.3787   28.0637 N.ar    1  UNL1       -0.0636
     20 C           4.2951    0.3742   35.2924 C.ar    1  UNL1        0.0213
     21 C           4.4933    0.1617   36.7639 C.ar    1  UNL1        0.0029
     22 C           3.7585    1.0193   37.7512 C.ar    1  UNL1        0.0173
     23 CA          2.8255    2.0894   37.2669 C.ar    1  UNL1        0.0885
     24 N           2.6274    2.3018   35.7952 N.ar    1  UNL1       -0.2457
     25 C           3.3621    1.4442   34.8080 C.ar    1  UNL1        0.0986
     26 C           2.0908    2.9470   38.2541 C.3     1  UNL1        0.1829
     27 O           0.6253    2.7311   38.4904 O.3     1  UNL1       -0.3760
     28 H           0.1320    2.9517   37.6849 H       1  UNL1        0.2110
@<TRIPOS>BOND
     1     8     9    2
     2     9    10    1
     3    10    11    1
     4    11    14    1
     5    14    15    1
     6    15    16   ar
     7    16    17   ar
     8    17    18   ar
     9    18    19   ar
    10    11    12    1
    11    12    13    1
    12    13     1    1
    13     1     2   ar
    14     2     3   ar
    15     3     4   ar
    16     4    20    1
    17    20    21   ar
    18    21    22   ar
    19    22    23   ar
    20    23    26    1
    21    26    27    1
    22    23    24   ar
    23    24    25   ar
    24     4     5   ar
    25     5     6    1
    26     5     7   ar
    27    13     9   am
    28     7     1   ar
    29    19    15   ar
    30    25    20   ar
    31    27    28    1
@<TRIPOS>MOLECULE
*****
 28 31 0 0 0
SMALL
GASTEIGER

@<TRIPOS>ATOM
      1 C           6.7574   -2.9862   31.8579 C.ar    1  UNL1        0.0593
      2 C           7.4079   -1.6665   32.1497 C.ar    1  UNL1        0.0152
      3 C           6.7729   -0.7159   33.1208 C.ar    1  UNL1        0.0036
      4 C           5.4874   -1.0850   33.8001 C.ar    1  UNL1        0.0291
      5 C           4.8370   -2.4048   33.5082 C.ar    1  UNL1        0.1414
      6 F           3.5515   -2.7739   34.1874 F       1  UNL1       -0.2041
      7 C           5.4720   -3.3554   32.5371 C.ar    1  UNL1        0.0446
      8 O           6.7522   -6.2422   32.0787 O.2     1  UNL1       -0.2258
      9 C           7.3900   -5.4334   30.9883 C.2     1  UNL1        0.4088
     10 O           8.1374   -5.9793   29.8079 O.3     1  UNL1       -0.4342
     11 C           8.6018   -4.8201   28.9767 C.3     1  UNL1        0.2149
     12 C           8.1414   -3.5579   29.6435 C.3     1  UNL1        0.1471
     13 N           7.3925   -3.9369   30.8867 N.am    1  UNL1       -0.2212
     14 C           9.3885   -4.9079   27.7026 C.3     1  UNL1        0.1745
     15 N           8.8535   -5.6957   26.5436 N.ar    1  UNL1       -0.2264
     16 C           8.7644   -7.1906   26.4598 C.ar    1  UNL1        0.1193
     17 C           8.1696   -7.5457   25.1294 C.ar    1  UNL1        0.1441
     18 N           7.8911   -6.2701   24.3908 N.ar    1  UNL1       -0.1271
     19 N           8.3138   -5.1267   25.2649 N.ar    1  UNL1       -0.0636
     20 C           4.8524   -0.1344   34.7712 C.ar    1  UNL1        0.0213
     21 C           5.1337   -0.2624   36.2390 C.ar    1  UNL1        0.0029
     22 C           4.4987    0.6882   37.2101 C.ar    1  UNL1        0.0173
     23 CA          3.5824    1.7670   36.7134 C.ar    1  UNL1        0.0885
     24 N           3.3011    1.8950   35.2455 N.ar    1  UNL1       -0.2457
     25 C           3.9361    0.9444   34.2745 C.ar    1  UNL1        0.0986
     26 C           2.9474    2.7176   37.6844 C.3     1  UNL1        0.1829
     27 O           1.4900    2.5895   38.0153 O.3     1  UNL1       -0.3760
     28 H           0.9609    2.7858   37.2264 H       1  UNL1        0.2110
@<TRIPOS>BOND
     1     8     9    2
     2     9    10    1
     3    10    11    1
     4    11    14    1
     5    14    15    1
     6    15    16   ar
     7    16    17   ar
     8    17    18   ar
     9    18    19   ar
    10    11    12    1
    11    12    13    1
    12    13     1    1
    13     1     2   ar
    14     2     3   ar
    15     3     4   ar
    16     4    20    1
    17    20    21   ar
    18    21    22   ar
    19    22    23   ar
    20    23    26    1
    21    26    27    1
    22    23    24   ar
    23    24    25   ar
    24     4     5   ar
    25     5     6    1
    26     5     7   ar
    27    13     9   am
    28     7     1   ar
    29    19    15   ar
    30    25    20   ar
    31    27    28    1
