@<TRIPOS>MOLECULE
*****
 32 35 0 0 0
SMALL
GASTEIGER

@<TRIPOS>ATOM
      1 C           3.3400   -0.7735   28.6043 C.3     1  UNL1        0.1351
      2 N           2.9822   -0.1763   27.2756 N.ar    1  UNL1       -0.2791
      3 C           3.9048   -0.3443   26.1049 C.ar    1  UNL1        0.3341
      4 O           5.1852   -1.1096   26.2629 O.2     1  UNL1       -0.2462
      5 N           3.5469    0.2528   24.7763 N.ar    1  UNL1       -0.2445
      6 C           2.2666    1.0181   24.6183 C.ar    1  UNL1        0.2659
      7 O           1.9087    1.6152   23.2897 O.2     1  UNL1       -0.2668
      8 C           1.3439    1.1861   25.7891 C.ar    1  UNL1        0.0728
      9 C           0.0635    1.9514   25.6311 C.ar    1  UNL1        0.0144
     10 C          -0.8590    2.1194   26.8018 C.ar    1  UNL1        0.0419
     11 C          -0.5012    1.5222   28.1305 C.ar    1  UNL1        0.0097
     12 C           0.7792    0.7570   28.2884 C.ar    1  UNL1        0.0181
     13 C           1.7017    0.5890   27.1177 C.ar    1  UNL1        0.0685
     14 C          -2.1395    2.8847   26.6439 C.1     1  UNL1       -0.0640
     15 C          -3.4199    3.6499   26.4860 C.1     1  UNL1       -0.0816
     16 C          -4.7004    4.4152   26.3281 C.3     1  UNL1        0.1026
     17 C          -5.4451    4.3705   25.0268 C.ar    1  UNL1       -0.0092
     18 C          -6.7301    5.1288   24.8717 C.ar    1  UNL1       -0.0033
     19 C          -7.4749    5.0841   23.5704 C.ar    1  UNL1       -0.0003
     20 C          -6.9347    4.2812   22.4243 C.ar    1  UNL1       -0.0000
     21 C          -5.6498    3.5230   22.5794 C.ar    1  UNL1       -0.0003
     22 C          -4.9050    3.5677   23.8807 C.ar    1  UNL1       -0.0033
     23 C           4.4696    0.0848   23.6055 C.3     1  UNL1        0.1403
     24 C           4.3269   -1.1047   22.7029 C.ar    1  UNL1        0.0006
     25 C           3.7199   -0.9439   21.3407 C.ar    1  UNL1       -0.0024
     26 C           3.5772   -2.1334   20.4380 C.ar    1  UNL1        0.0009
     27 C           4.0416   -3.4837   20.8976 C.ar    1  UNL1        0.0140
     28 C           4.6485   -3.6445   22.2599 C.ar    1  UNL1        0.0009
     29 C           4.7912   -2.4549   23.1625 C.ar    1  UNL1       -0.0024
     30 C           3.8989   -4.6732   19.9950 C.2     1  UNL1        0.0729
     31 O           3.1913   -5.9031   20.4813 O.co2   1  UNL1       -0.5446
     32 O           4.4638   -4.6327   18.6060 O.co2   1  UNL1       -0.5446
@<TRIPOS>UNITY_ATOM_ATTR
31 1
charge -1
@<TRIPOS>BOND
     1     1     2    1
     2     2     3   ar
     3     3     4    2
     4     3     5   ar
     5     5    23    1
     6    23    24    1
     7    24    25   ar
     8    25    26   ar
     9    26    27   ar
    10    27    30    1
    11    30    31   ar
    12    30    32   ar
    13    27    28   ar
    14    28    29   ar
    15     5     6   ar
    16     6     7    2
    17     6     8   ar
    18     8     9   ar
    19     9    10   ar
    20    10    14    1
    21    14    15    3
    22    15    16    1
    23    16    17    1
    24    17    18   ar
    25    18    19   ar
    26    19    20   ar
    27    20    21   ar
    28    21    22   ar
    29    10    11   ar
    30    11    12   ar
    31    12    13   ar
    32    13     2   ar
    33    29    24   ar
    34    13     8   ar
    35    22    17   ar
@<TRIPOS>MOLECULE
*****
 32 35 0 0 0
SMALL
GASTEIGER

@<TRIPOS>ATOM
      1 C           9.4453   -2.3686   19.1336 C.3     1  UNL1        0.1351
      2 N           8.1190   -2.7619   19.7136 N.ar    1  UNL1       -0.2791
      3 C           6.8659   -2.5833   18.9088 C.ar    1  UNL1        0.3341
      4 O           6.9390   -2.0114   17.5240 O.2     1  UNL1       -0.2462
      5 N           5.5396   -2.9765   19.4888 N.ar    1  UNL1       -0.2445
      6 C           5.4664   -3.5484   20.8735 C.ar    1  UNL1        0.2659
      7 O           4.1401   -3.9416   21.4534 O.2     1  UNL1       -0.2668
      8 C           6.7196   -3.7270   21.6784 C.ar    1  UNL1        0.0728
      9 C           6.6464   -4.2989   23.0631 C.ar    1  UNL1        0.0144
     10 C           7.8995   -4.4775   23.8679 C.ar    1  UNL1        0.0419
     11 C           9.2258   -4.0843   23.2880 C.ar    1  UNL1        0.0097
     12 C           9.2990   -3.5124   21.9032 C.ar    1  UNL1        0.0181
     13 C           8.0459   -3.3338   21.0984 C.ar    1  UNL1        0.0685
     14 C           7.8264   -5.0494   25.2527 C.1     1  UNL1       -0.0640
     15 C           7.7533   -5.6213   26.6375 C.1     1  UNL1       -0.0816
     16 C           7.6802   -6.1932   28.0223 C.3     1  UNL1        0.1026
     17 C           7.2923   -5.3168   29.1761 C.ar    1  UNL1       -0.0092
     18 C           7.2974   -5.8677   30.5714 C.ar    1  UNL1       -0.0033
     19 C           6.9095   -4.9913   31.7252 C.ar    1  UNL1       -0.0003
     20 C           6.5165   -3.5639   31.4838 C.ar    1  UNL1       -0.0000
     21 C           6.5113   -3.0130   30.0887 C.ar    1  UNL1       -0.0003
     22 C           6.8992   -3.8895   28.9348 C.ar    1  UNL1       -0.0033
     23 C           4.2864   -2.7979   18.6839 C.3     1  UNL1        0.1403
     24 C           3.3896   -1.6238   18.9431 C.ar    1  UNL1        0.0006
     25 C           2.4702   -1.6295   20.1283 C.ar    1  UNL1       -0.0024
     26 C           1.5733   -0.4555   20.3875 C.ar    1  UNL1        0.0009
     27 C           1.5958    0.7244   19.4614 C.ar    1  UNL1        0.0140
     28 C           2.5152    0.7301   18.2762 C.ar    1  UNL1        0.0009
     29 C           3.4121   -0.4440   18.0171 C.ar    1  UNL1       -0.0024
     30 C           0.6990    1.8984   19.7206 C.2     1  UNL1        0.0729
     31 O           1.0580    3.2503   19.1790 O.co2   1  UNL1       -0.5446
     32 O          -0.5568    1.7205   20.5214 O.co2   1  UNL1       -0.5446
@<TRIPOS>UNITY_ATOM_ATTR
31 1
charge -1
@<TRIPOS>BOND
     1     1     2    1
     2     2     3   ar
     3     3     4    2
     4     3     5   ar
     5     5    23    1
     6    23    24    1
     7    24    25   ar
     8    25    26   ar
     9    26    27   ar
    10    27    30    1
    11    30    31   ar
    12    30    32   ar
    13    27    28   ar
    14    28    29   ar
    15     5     6   ar
    16     6     7    2
    17     6     8   ar
    18     8     9   ar
    19     9    10   ar
    20    10    14    1
    21    14    15    3
    22    15    16    1
    23    16    17    1
    24    17    18   ar
    25    18    19   ar
    26    19    20   ar
    27    20    21   ar
    28    21    22   ar
    29    10    11   ar
    30    11    12   ar
    31    12    13   ar
    32    13     2   ar
    33    29    24   ar
    34    13     8   ar
    35    22    17   ar
@<TRIPOS>MOLECULE
*****
 32 35 0 0 0
SMALL
GASTEIGER

@<TRIPOS>ATOM
      1 C           3.9844   -3.9071   19.0104 C.3     1  UNL1        0.1351
      2 N           4.4007   -3.1021   20.2057 N.ar    1  UNL1       -0.2791
      3 C           5.6785   -3.4271   20.9208 C.ar    1  UNL1        0.3341
      4 O           6.5402   -4.5572   20.4407 O.2     1  UNL1       -0.2462
      5 N           6.0947   -2.6221   22.1161 N.ar    1  UNL1       -0.2445
      6 C           5.2332   -1.4920   22.5962 C.ar    1  UNL1        0.2659
      7 O           5.6494   -0.6870   23.7915 O.2     1  UNL1       -0.2668
      8 C           3.9552   -1.1669   21.8811 C.ar    1  UNL1        0.0728
      9 C           3.0937   -0.0369   22.3613 C.ar    1  UNL1        0.0144
     10 C           1.8158    0.2882   21.6461 C.ar    1  UNL1        0.0419
     11 C           1.3996   -0.5169   20.4509 C.ar    1  UNL1        0.0097
     12 C           2.2612   -1.6469   19.9707 C.ar    1  UNL1        0.0181
     13 C           3.5390   -1.9720   20.6858 C.ar    1  UNL1        0.0685
     14 C           0.9542    1.4183   22.1263 C.1     1  UNL1       -0.0640
     15 C           0.0926    2.5483   22.6065 C.1     1  UNL1       -0.0816
     16 C          -0.7691    3.6784   23.0866 C.3     1  UNL1        0.1026
     17 C          -2.2629    3.5694   23.0054 C.ar    1  UNL1       -0.0092
     18 C          -3.0832    3.5545   24.2612 C.ar    1  UNL1       -0.0033
     19 C          -4.5770    3.4455   24.1800 C.ar    1  UNL1       -0.0003
     20 C          -5.2506    3.3514   22.8430 C.ar    1  UNL1       -0.0000
     21 C          -4.4303    3.3664   21.5872 C.ar    1  UNL1       -0.0003
     22 C          -2.9365    3.4754   21.6685 C.ar    1  UNL1       -0.0033
     23 C           7.3727   -2.9472   22.8312 C.3     1  UNL1        0.1403
     24 C           7.4073   -4.0596   23.8368 C.ar    1  UNL1        0.0006
     25 C           6.8292   -3.8519   25.2052 C.ar    1  UNL1       -0.0024
     26 C           6.8638   -4.9644   26.2108 C.ar    1  UNL1        0.0009
     27 C           7.4766   -6.2846   25.8480 C.ar    1  UNL1        0.0140
     28 C           8.0548   -6.4923   24.4795 C.ar    1  UNL1        0.0009
     29 C           8.0201   -5.3797   23.4739 C.ar    1  UNL1       -0.0024
     30 C           7.5113   -7.3970   26.8535 C.2     1  UNL1        0.0729
     31 O           7.9946   -7.1321   28.2486 O.co2   1  UNL1       -0.5446
     32 O           7.0626   -8.7743   26.4641 O.co2   1  UNL1       -0.5446
@<TRIPOS>UNITY_ATOM_ATTR
31 1
charge -1
@<TRIPOS>BOND
     1     1     2    1
     2     2     3   ar
     3     3     4    2
     4     3     5   ar
     5     5    23    1
     6    23    24    1
     7    24    25   ar
     8    25    26   ar
     9    26    27   ar
    10    27    30    1
    11    30    31   ar
    12    30    32   ar
    13    27    28   ar
    14    28    29   ar
    15     5     6   ar
    16     6     7    2
    17     6     8   ar
    18     8     9   ar
    19     9    10   ar
    20    10    14    1
    21    14    15    3
    22    15    16    1
    23    16    17    1
    24    17    18   ar
    25    18    19   ar
    26    19    20   ar
    27    20    21   ar
    28    21    22   ar
    29    10    11   ar
    30    11    12   ar
    31    12    13   ar
    32    13     2   ar
    33    29    24   ar
    34    13     8   ar
    35    22    17   ar
@<TRIPOS>MOLECULE
*****
 32 35 0 0 0
SMALL
GASTEIGER

@<TRIPOS>ATOM
      1 C           8.9528   -8.9589   27.9280 C.3     1  UNL1        0.1351
      2 N           8.9469   -7.4608   27.8525 N.ar    1  UNL1       -0.2791
      3 C           9.2047   -6.6466   29.0856 C.ar    1  UNL1        0.3341
      4 O           9.4685   -7.3306   30.3943 O.2     1  UNL1       -0.2462
      5 N           9.1989   -5.1486   29.0101 N.ar    1  UNL1       -0.2445
      6 C           8.9352   -4.4646   27.7014 C.ar    1  UNL1        0.2659
      7 O           8.9293   -2.9665   27.6259 O.2     1  UNL1       -0.2668
      8 C           8.6773   -5.2787   26.4682 C.ar    1  UNL1        0.0728
      9 C           8.4136   -4.5948   25.1596 C.ar    1  UNL1        0.0144
     10 C           8.1557   -5.4089   23.9264 C.ar    1  UNL1        0.0419
     11 C           8.1616   -6.9070   24.0019 C.ar    1  UNL1        0.0097
     12 C           8.4253   -7.5909   25.3106 C.ar    1  UNL1        0.0181
     13 C           8.6832   -6.7768   26.5437 C.ar    1  UNL1        0.0685
     14 C           7.8920   -4.7249   22.6177 C.1     1  UNL1       -0.0640
     15 C           7.6283   -4.0410   21.3090 C.1     1  UNL1       -0.0816
     16 C           7.3646   -3.3570   20.0003 C.3     1  UNL1        0.1026
     17 C           6.0141   -2.7668   19.7213 C.ar    1  UNL1       -0.0092
     18 C           5.6552   -2.3403   18.3286 C.ar    1  UNL1       -0.0033
     19 C           4.3047   -1.7501   18.0496 C.ar    1  UNL1       -0.0003
     20 C           3.3132   -1.5863   19.1633 C.ar    1  UNL1       -0.0000
     21 C           3.6721   -2.0128   20.5558 C.ar    1  UNL1       -0.0003
     22 C           5.0226   -2.6030   20.8348 C.ar    1  UNL1       -0.0033
     23 C           9.4567   -4.3344   30.2433 C.3     1  UNL1        0.1403
     24 C           8.3095   -3.7250   30.9932 C.ar    1  UNL1        0.0006
     25 C           8.1954   -2.2337   31.1069 C.ar    1  UNL1       -0.0024
     26 C           7.0481   -1.6243   31.8568 C.ar    1  UNL1        0.0009
     27 C           6.0148   -2.5063   32.4929 C.ar    1  UNL1        0.0140
     28 C           6.1289   -3.9976   32.3792 C.ar    1  UNL1        0.0009
     29 C           7.2763   -4.6070   31.6293 C.ar    1  UNL1       -0.0024
     30 C           4.8675   -1.8969   33.2428 C.2     1  UNL1        0.0729
     31 O           3.8292   -2.7786   33.8709 O.co2   1  UNL1       -0.5446
     32 O           4.7585   -0.4058   33.3646 O.co2   1  UNL1       -0.5446
@<TRIPOS>UNITY_ATOM_ATTR
31 1
charge -1
@<TRIPOS>BOND
     1     1     2    1
     2     2     3   ar
     3     3     4    2
     4     3     5   ar
     5     5    23    1
     6    23    24    1
     7    24    25   ar
     8    25    26   ar
     9    26    27   ar
    10    27    30    1
    11    30    31   ar
    12    30    32   ar
    13    27    28   ar
    14    28    29   ar
    15     5     6   ar
    16     6     7    2
    17     6     8   ar
    18     8     9   ar
    19     9    10   ar
    20    10    14    1
    21    14    15    3
    22    15    16    1
    23    16    17    1
    24    17    18   ar
    25    18    19   ar
    26    19    20   ar
    27    20    21   ar
    28    21    22   ar
    29    10    11   ar
    30    11    12   ar
    31    12    13   ar
    32    13     2   ar
    33    29    24   ar
    34    13     8   ar
    35    22    17   ar
@<TRIPOS>MOLECULE
*****
 32 35 0 0 0
SMALL
GASTEIGER

@<TRIPOS>ATOM
      1 C           8.8927   -7.3027   27.6450 C.3     1  UNL1        0.1351
      2 N           8.3996   -5.8996   27.4501 N.ar    1  UNL1       -0.2791
      3 C           8.5609   -5.2260   26.1196 C.ar    1  UNL1        0.3341
      4 O           9.2154   -5.9555   24.9840 O.2     1  UNL1       -0.2462
      5 N           8.0677   -3.8229   25.9246 N.ar    1  UNL1       -0.2445
      6 C           7.4132   -3.0933   27.0601 C.ar    1  UNL1        0.2659
      7 O           6.9201   -1.6902   26.8652 O.2     1  UNL1       -0.2668
      8 C           7.2519   -3.7670   28.3907 C.ar    1  UNL1        0.0728
      9 C           6.5974   -3.0374   29.5262 C.ar    1  UNL1        0.0144
     10 C           6.4361   -3.7110   30.8567 C.ar    1  UNL1        0.0419
     11 C           6.9292   -5.1142   31.0516 C.ar    1  UNL1        0.0097
     12 C           7.5837   -5.8437   29.9161 C.ar    1  UNL1        0.0181
     13 C           7.7450   -5.1701   28.5857 C.ar    1  UNL1        0.0685
     14 C           5.7816   -2.9815   31.9922 C.1     1  UNL1       -0.0640
     15 C           5.1271   -2.2521   33.1278 C.1     1  UNL1       -0.0816
     16 C           4.4726   -1.5225   34.2634 C.3     1  UNL1        0.1026
     17 C           5.2849   -0.6157   35.1397 C.ar    1  UNL1       -0.0092
     18 C           6.6839   -0.2463   34.7443 C.ar    1  UNL1       -0.0033
     19 C           7.4962    0.6606   35.6206 C.ar    1  UNL1       -0.0003
     20 C           6.9094    1.1980   36.8922 C.ar    1  UNL1       -0.0000
     21 C           5.5104    0.8286   37.2874 C.ar    1  UNL1       -0.0003
     22 C           4.6981   -0.0782   36.4112 C.ar    1  UNL1       -0.0033
     23 C           8.2291   -3.1493   24.5941 C.3     1  UNL1        0.1403
     24 C           7.2121   -3.3696   23.5137 C.ar    1  UNL1        0.0006
     25 C           7.6585   -3.6407   22.1076 C.ar    1  UNL1       -0.0024
     26 C           6.6416   -3.8610   21.0272 C.ar    1  UNL1        0.0009
     27 C           5.1782   -3.8102   21.3529 C.ar    1  UNL1        0.0140
     28 C           4.7318   -3.5391   22.7590 C.ar    1  UNL1        0.0009
     29 C           5.7489   -3.3188   23.8395 C.ar    1  UNL1       -0.0024
     30 C           4.1613   -4.0306   20.2725 C.2     1  UNL1        0.0729
     31 O           3.9076   -5.4144   19.7523 O.co2   1  UNL1       -0.5446
     32 O           3.3980   -2.8671   19.7124 O.co2   1  UNL1       -0.5446
@<TRIPOS>UNITY_ATOM_ATTR
31 1
charge -1
@<TRIPOS>BOND
     1     1     2    1
     2     2     3   ar
     3     3     4    2
     4     3     5   ar
     5     5    23    1
     6    23    24    1
     7    24    25   ar
     8    25    26   ar
     9    26    27   ar
    10    27    30    1
    11    30    31   ar
    12    30    32   ar
    13    27    28   ar
    14    28    29   ar
    15     5     6   ar
    16     6     7    2
    17     6     8   ar
    18     8     9   ar
    19     9    10   ar
    20    10    14    1
    21    14    15    3
    22    15    16    1
    23    16    17    1
    24    17    18   ar
    25    18    19   ar
    26    19    20   ar
    27    20    21   ar
    28    21    22   ar
    29    10    11   ar
    30    11    12   ar
    31    12    13   ar
    32    13     2   ar
    33    29    24   ar
    34    13     8   ar
    35    22    17   ar
@<TRIPOS>MOLECULE
*****
 32 35 0 0 0
SMALL
GASTEIGER

@<TRIPOS>ATOM
      1 C           4.9947   -4.4962   18.8633 C.3     1  UNL1        0.1351
      2 N           5.2588   -3.7160   20.1169 N.ar    1  UNL1       -0.2791
      3 C           6.4682   -4.0217   20.9498 C.ar    1  UNL1        0.3341
      4 O           7.4137   -5.1076   20.5291 O.2     1  UNL1       -0.2462
      5 N           6.7322   -3.2414   22.2034 N.ar    1  UNL1       -0.2445
      6 C           5.7868   -2.1556   22.6241 C.ar    1  UNL1        0.2659
      7 O           6.0509   -1.3754   23.8777 O.2     1  UNL1       -0.2668
      8 C           4.5773   -1.8499   21.7912 C.ar    1  UNL1        0.0728
      9 C           3.6319   -0.7640   22.2119 C.ar    1  UNL1        0.0144
     10 C           2.4225   -0.4583   21.3790 C.ar    1  UNL1        0.0419
     11 C           2.1584   -1.2386   20.1254 C.ar    1  UNL1        0.0097
     12 C           3.1038   -2.3244   19.7047 C.ar    1  UNL1        0.0181
     13 C           4.3133   -2.6301   20.5376 C.ar    1  UNL1        0.0685
     14 C           1.4770    0.6276   21.7997 C.1     1  UNL1       -0.0640
     15 C           0.5316    1.7135   22.2203 C.1     1  UNL1       -0.0816
     16 C          -0.4139    2.7994   22.6410 C.3     1  UNL1        0.1026
     17 C          -0.9367    2.8357   24.0465 C.ar    1  UNL1       -0.0092
     18 C          -0.2415    2.0596   25.1256 C.ar    1  UNL1       -0.0033
     19 C          -0.7643    2.0959   26.5311 C.ar    1  UNL1       -0.0003
     20 C          -1.9824    2.9083   26.8574 C.ar    1  UNL1       -0.0000
     21 C          -2.6776    3.6843   25.7783 C.ar    1  UNL1       -0.0003
     22 C          -2.1547    3.6480   24.3729 C.ar    1  UNL1       -0.0033
     23 C           7.9418   -3.5471   23.0363 C.3     1  UNL1        0.1403
     24 C           7.8938   -4.6500   24.0518 C.ar    1  UNL1        0.0006
     25 C           8.4334   -6.0075   23.7109 C.ar    1  UNL1       -0.0024
     26 C           8.3854   -7.1104   24.7264 C.ar    1  UNL1        0.0009
     27 C           7.7980   -6.8558   26.0829 C.ar    1  UNL1        0.0140
     28 C           7.2584   -5.4984   26.4239 C.ar    1  UNL1        0.0009
     29 C           7.3064   -4.3955   25.4083 C.ar    1  UNL1       -0.0024
     30 C           7.7500   -7.9587   27.0984 C.2     1  UNL1        0.0729
     31 O           8.5618   -7.8564   28.3556 O.co2   1  UNL1       -0.5446
     32 O           6.8903   -9.1639   26.8568 O.co2   1  UNL1       -0.5446
@<TRIPOS>UNITY_ATOM_ATTR
31 1
charge -1
@<TRIPOS>BOND
     1     1     2    1
     2     2     3   ar
     3     3     4    2
     4     3     5   ar
     5     5    23    1
     6    23    24    1
     7    24    25   ar
     8    25    26   ar
     9    26    27   ar
    10    27    30    1
    11    30    31   ar
    12    30    32   ar
    13    27    28   ar
    14    28    29   ar
    15     5     6   ar
    16     6     7    2
    17     6     8   ar
    18     8     9   ar
    19     9    10   ar
    20    10    14    1
    21    14    15    3
    22    15    16    1
    23    16    17    1
    24    17    18   ar
    25    18    19   ar
    26    19    20   ar
    27    20    21   ar
    28    21    22   ar
    29    10    11   ar
    30    11    12   ar
    31    12    13   ar
    32    13     2   ar
    33    29    24   ar
    34    13     8   ar
    35    22    17   ar
@<TRIPOS>MOLECULE
*****
 32 35 0 0 0
SMALL
GASTEIGER

@<TRIPOS>ATOM
      1 C         -19.7408   -0.7295   20.6765 C.3     1  UNL1        0.1351
      2 N         -18.4600   -0.0214   20.3476 N.ar    1  UNL1       -0.2791
      3 C         -18.3089    1.4383   20.6582 C.ar    1  UNL1        0.3341
      4 O         -19.4385    2.1899   21.2978 O.2     1  UNL1       -0.2462
      5 N         -17.0281    2.1464   20.3292 N.ar    1  UNL1       -0.2445
      6 C         -15.8985    1.3949   19.6896 C.ar    1  UNL1        0.2659
      7 O         -14.6178    2.1030   19.3606 O.2     1  UNL1       -0.2668
      8 C         -16.0496   -0.0649   19.3790 C.ar    1  UNL1        0.0728
      9 C         -14.9200   -0.8164   18.7394 C.ar    1  UNL1        0.0144
     10 C         -15.0712   -2.2761   18.4288 C.ar    1  UNL1        0.0419
     11 C         -16.3519   -2.9842   18.7578 C.ar    1  UNL1        0.0097
     12 C         -17.4815   -2.2326   19.3973 C.ar    1  UNL1        0.0181
     13 C         -17.3304   -0.7730   19.7079 C.ar    1  UNL1        0.0685
     14 C         -13.9415   -3.0277   17.7892 C.1     1  UNL1       -0.0640
     15 C         -12.8120   -3.7793   17.1495 C.1     1  UNL1       -0.0816
     16 C         -11.6823   -4.5309   16.5099 C.3     1  UNL1        0.1026
     17 C         -10.9384   -5.5737   17.2904 C.ar    1  UNL1       -0.0092
     18 C         -10.0669   -5.1688   18.4422 C.ar    1  UNL1       -0.0033
     19 C          -9.3230   -6.2117   19.2226 C.ar    1  UNL1       -0.0003
     20 C          -9.4506   -7.6594   18.8512 C.ar    1  UNL1       -0.0000
     21 C         -10.3220   -8.0643   17.6995 C.ar    1  UNL1       -0.0003
     22 C         -11.0659   -7.0214   16.9190 C.ar    1  UNL1       -0.0033
     23 C         -16.8770    3.6061   20.6398 C.3     1  UNL1        0.1403
     24 C         -16.2105    4.0370   21.9126 C.ar    1  UNL1        0.0006
     25 C         -14.8357    4.6356   21.8739 C.ar    1  UNL1       -0.0024
     26 C         -14.1691    5.0665   23.1467 C.ar    1  UNL1        0.0009
     27 C         -14.8774    4.8987   24.4583 C.ar    1  UNL1        0.0140
     28 C         -16.2522    4.3000   24.4970 C.ar    1  UNL1        0.0009
     29 C         -16.9188    3.8692   23.2242 C.ar    1  UNL1       -0.0024
     30 C         -14.2108    5.3295   25.7311 C.2     1  UNL1        0.0729
     31 O         -14.8935    5.1064   27.0479 O.co2   1  UNL1       -0.5446
     32 O         -12.8616    5.9835   25.6870 O.co2   1  UNL1       -0.5446
@<TRIPOS>UNITY_ATOM_ATTR
31 1
charge -1
@<TRIPOS>BOND
     1     1     2    1
     2     2     3   ar
     3     3     4    2
     4     3     5   ar
     5     5    23    1
     6    23    24    1
     7    24    25   ar
     8    25    26   ar
     9    26    27   ar
    10    27    30    1
    11    30    31   ar
    12    30    32   ar
    13    27    28   ar
    14    28    29   ar
    15     5     6   ar
    16     6     7    2
    17     6     8   ar
    18     8     9   ar
    19     9    10   ar
    20    10    14    1
    21    14    15    3
    22    15    16    1
    23    16    17    1
    24    17    18   ar
    25    18    19   ar
    26    19    20   ar
    27    20    21   ar
    28    21    22   ar
    29    10    11   ar
    30    11    12   ar
    31    12    13   ar
    32    13     2   ar
    33    29    24   ar
    34    13     8   ar
    35    22    17   ar
@<TRIPOS>MOLECULE
*****
 32 35 0 0 0
SMALL
GASTEIGER

@<TRIPOS>ATOM
      1 C           4.2892   -1.7205   32.2556 C.3     1  UNL1        0.1351
      2 N           3.7158   -0.3453   32.4289 N.ar    1  UNL1       -0.2791
      3 C           4.0837    0.4749   33.6296 C.ar    1  UNL1        0.3341
      4 O           5.0251   -0.0800   34.6572 O.2     1  UNL1       -0.2462
      5 N           3.5102    1.8501   33.8029 N.ar    1  UNL1       -0.2445
      6 C           2.5688    2.4051   32.7755 C.ar    1  UNL1        0.2659
      7 O           1.9954    3.7802   32.9487 O.2     1  UNL1       -0.2668
      8 C           2.2008    1.5848   31.5746 C.ar    1  UNL1        0.0728
      9 C           1.2594    2.1398   30.5472 C.ar    1  UNL1        0.0144
     10 C           0.8915    1.3196   29.3464 C.ar    1  UNL1        0.0419
     11 C           1.4650   -0.0556   29.1731 C.ar    1  UNL1        0.0097
     12 C           2.4064   -0.6105   30.2006 C.ar    1  UNL1        0.0181
     13 C           2.7743    0.2097   31.4014 C.ar    1  UNL1        0.0685
     14 C          -0.0499    1.8746   28.3189 C.1     1  UNL1       -0.0640
     15 C          -0.9914    2.4295   27.2914 C.1     1  UNL1       -0.0816
     16 C          -1.9328    2.9845   26.2639 C.3     1  UNL1        0.1026
     17 C          -2.8399    4.1259   26.6166 C.ar    1  UNL1       -0.0092
     18 C          -2.2710    5.3795   27.2123 C.ar    1  UNL1       -0.0033
     19 C          -3.1781    6.5210   27.5650 C.ar    1  UNL1       -0.0003
     20 C          -4.6541    6.4087   27.3220 C.ar    1  UNL1       -0.0000
     21 C          -5.2229    5.1551   26.7263 C.ar    1  UNL1       -0.0003
     22 C          -4.3158    4.0137   26.3736 C.ar    1  UNL1       -0.0033
     23 C           3.8782    2.6703   35.0038 C.3     1  UNL1        0.1403
     24 C           3.1764    2.4443   36.3100 C.ar    1  UNL1        0.0006
     25 C           3.5089    1.2412   37.1418 C.ar    1  UNL1       -0.0024
     26 C           2.8072    1.0152   38.4480 C.ar    1  UNL1        0.0009
     27 C           1.7728    1.9924   38.9226 C.ar    1  UNL1        0.0140
     28 C           1.4403    3.1956   38.0909 C.ar    1  UNL1        0.0009
     29 C           2.1421    3.4216   36.7846 C.ar    1  UNL1       -0.0024
     30 C           1.0710    1.7665   40.2289 C.2     1  UNL1        0.0729
     31 O           0.6382    2.9376   41.0601 O.co2   1  UNL1       -0.5446
     32 O           0.8021    0.3693   40.7040 O.co2   1  UNL1       -0.5446
@<TRIPOS>UNITY_ATOM_ATTR
31 1
charge -1
@<TRIPOS>BOND
     1     1     2    1
     2     2     3   ar
     3     3     4    2
     4     3     5   ar
     5     5    23    1
     6    23    24    1
     7    24    25   ar
     8    25    26   ar
     9    26    27   ar
    10    27    30    1
    11    30    31   ar
    12    30    32   ar
    13    27    28   ar
    14    28    29   ar
    15     5     6   ar
    16     6     7    2
    17     6     8   ar
    18     8     9   ar
    19     9    10   ar
    20    10    14    1
    21    14    15    3
    22    15    16    1
    23    16    17    1
    24    17    18   ar
    25    18    19   ar
    26    19    20   ar
    27    20    21   ar
    28    21    22   ar
    29    10    11   ar
    30    11    12   ar
    31    12    13   ar
    32    13     2   ar
    33    29    24   ar
    34    13     8   ar
    35    22    17   ar
@<TRIPOS>MOLECULE
*****
 32 35 0 0 0
SMALL
GASTEIGER

@<TRIPOS>ATOM
      1 C           4.6805    3.5449   27.9383 C.3     1  UNL1        0.1351
      2 N           3.6038    2.5956   28.3736 N.ar    1  UNL1       -0.2791
      3 C           3.9524    1.3950   29.2024 C.ar    1  UNL1        0.3341
      4 O           5.3779    1.1437   29.5960 O.2     1  UNL1       -0.2462
      5 N           2.8757    0.4457   29.6376 N.ar    1  UNL1       -0.2445
      6 C           1.4503    0.6970   29.2440 C.ar    1  UNL1        0.2659
      7 O           0.3735   -0.2523   29.6793 O.2     1  UNL1       -0.2668
      8 C           1.1015    1.8976   28.4152 C.ar    1  UNL1        0.0728
      9 C          -0.3239    2.1489   28.0216 C.ar    1  UNL1        0.0144
     10 C          -0.6726    3.3495   27.1928 C.ar    1  UNL1        0.0419
     11 C           0.4042    4.2988   26.7575 C.ar    1  UNL1        0.0097
     12 C           1.8296    4.0475   27.1511 C.ar    1  UNL1        0.0181
     13 C           2.1783    2.8469   27.9799 C.ar    1  UNL1        0.0685
     14 C          -2.0981    3.6008   26.7991 C.1     1  UNL1       -0.0640
     15 C          -3.5235    3.8521   26.4056 C.1     1  UNL1       -0.0816
     16 C          -4.9490    4.1035   26.0120 C.3     1  UNL1        0.1026
     17 C          -5.3571    4.0092   24.5716 C.ar    1  UNL1       -0.0092
     18 C          -4.4753    3.2998   23.5871 C.ar    1  UNL1       -0.0033
     19 C          -4.8834    3.2056   22.1468 C.ar    1  UNL1       -0.0003
     20 C          -6.1733    3.8208   21.6909 C.ar    1  UNL1       -0.0000
     21 C          -7.0550    4.5302   22.6754 C.ar    1  UNL1       -0.0003
     22 C          -6.6469    4.6244   24.1158 C.ar    1  UNL1       -0.0033
     23 C           3.2244   -0.7549   30.4665 C.3     1  UNL1        0.1403
     24 C           3.6176   -0.5853   31.9040 C.ar    1  UNL1        0.0006
     25 C           3.3782    0.7229   32.5977 C.ar    1  UNL1       -0.0024
     26 C           3.7713    0.8925   34.0353 C.ar    1  UNL1        0.0009
     27 C           4.4039   -0.2462   34.7792 C.ar    1  UNL1        0.0140
     28 C           4.6433   -1.5544   34.0855 C.ar    1  UNL1        0.0009
     29 C           4.2501   -1.7240   32.6479 C.ar    1  UNL1       -0.0024
     30 C           4.7970   -0.0766   36.2168 C.2     1  UNL1        0.0729
     31 O           3.8633    0.6021   37.1746 O.co2   1  UNL1       -0.5446
     32 O           6.1239   -0.5857   36.6966 O.co2   1  UNL1       -0.5446
@<TRIPOS>UNITY_ATOM_ATTR
31 1
charge -1
@<TRIPOS>BOND
     1     1     2    1
     2     2     3   ar
     3     3     4    2
     4     3     5   ar
     5     5    23    1
     6    23    24    1
     7    24    25   ar
     8    25    26   ar
     9    26    27   ar
    10    27    30    1
    11    30    31   ar
    12    30    32   ar
    13    27    28   ar
    14    28    29   ar
    15     5     6   ar
    16     6     7    2
    17     6     8   ar
    18     8     9   ar
    19     9    10   ar
    20    10    14    1
    21    14    15    3
    22    15    16    1
    23    16    17    1
    24    17    18   ar
    25    18    19   ar
    26    19    20   ar
    27    20    21   ar
    28    21    22   ar
    29    10    11   ar
    30    11    12   ar
    31    12    13   ar
    32    13     2   ar
    33    29    24   ar
    34    13     8   ar
    35    22    17   ar
