@<TRIPOS>MOLECULE
*****
 35 37 0 0 0
SMALL
GASTEIGER

@<TRIPOS>ATOM
      1 C           8.2053   -8.2625   27.1829 C.ar    1  UNL1       -0.0024
      2 C           8.5627   -8.0315   25.7445 C.ar    1  UNL1       -0.0026
      3 C           8.7266   -6.6328   25.2278 C.ar    1  UNL1       -0.0001
      4 C           8.5332   -5.4653   26.1494 C.ar    1  UNL1        0.0045
      5 C           8.1759   -5.6963   27.5878 C.ar    1  UNL1        0.0534
      6 C           8.0120   -7.0949   28.1045 C.ar    1  UNL1        0.0019
      7 C           7.9826   -4.5288   28.5095 C.2     1  UNL1        0.2495
      8 O           8.1702   -3.1310   27.9987 O.2     1  UNL1       -0.2698
      9 N           7.6015   -4.7591   29.9419 N.am    1  UNL1       -0.2804
     10 H           7.4784   -5.6765   30.2771 H       1  UNL1        0.1552
     11 C           7.4082   -3.5915   30.8635 C.ar    1  UNL1        0.0505
     12 C           8.4458   -3.2735   31.8990 C.ar    1  UNL1        0.0144
     13 C           8.2524   -2.1059   32.8207 C.ar    1  UNL1       -0.0016
     14 C           7.0214   -1.2564   32.7068 C.ar    1  UNL1       -0.0061
     15 C           5.9838   -1.5744   31.6713 C.ar    1  UNL1       -0.0016
     16 C           6.1771   -2.7419   30.7497 C.ar    1  UNL1        0.0144
     17 C           6.8281   -0.0888   33.6285 C.3     1  UNL1        0.0992
     18 N           5.4703    0.2022   34.1955 N.3     1  UNL1       -0.2665
     19 C           4.8219   -0.7765   35.1292 C.3     1  UNL1        0.0899
     20 C           4.7609    1.4720   33.8290 C.3     1  UNL1        0.0899
     21 C           8.0414   -9.6611   27.6997 C.3     1  UNL1        0.1166
     22 C           6.5845  -11.7957   27.9664 C.2     1  UNL1        0.2462
     23 O           7.7875  -12.5578   28.4375 O.2     1  UNL1       -0.2701
     24 N           6.7115  -10.3473   27.5975 N.am    1  UNL1       -0.2969
     25 H           5.9219   -9.8471   27.2883 H       1  UNL1        0.1501
     26 C           2.5947  -13.8543   27.6599 C.ar    1  UNL1        0.1724
     27 C           3.7101  -14.2385   26.7335 C.ar    1  UNL1        0.0402
     28 C           5.0400  -13.5523   26.8356 C.ar    1  UNL1        0.0078
     29 C           5.2546  -12.4819   27.8642 C.ar    1  UNL1        0.0566
     30 C           4.1393  -12.0976   28.7907 C.ar    1  UNL1        0.0446
     31 C           2.8093  -12.7838   28.6885 C.ar    1  UNL1        0.1725
     32 C           1.0233  -15.8222   28.2986 C.3     1  UNL1        0.2526
     33 O           1.2648  -14.5405   27.5577 O.3     1  UNL1       -0.4684
     34 O           1.6940  -12.3995   29.6150 O.3     1  UNL1       -0.4684
     35 C           1.2769  -13.3316   30.7137 C.3     1  UNL1        0.2526
@<TRIPOS>BOND
     1    32    33    1
     2    33    26    1
     3    26    27   ar
     4    27    28   ar
     5    28    29   ar
     6    29    22    1
     7    22    23    2
     8    22    24   am
     9    24    21    1
    10    21     1    1
    11     1     2   ar
    12     2     3   ar
    13     3     4   ar
    14     4     5   ar
    15     5     7    1
    16     7     8    2
    17     7     9   am
    18     9    11    1
    19    11    12   ar
    20    12    13   ar
    21    13    14   ar
    22    14    17    1
    23    17    18    1
    24    18    19    1
    25    18    20    1
    26    14    15   ar
    27    15    16   ar
    28     5     6   ar
    29    29    30   ar
    30    30    31   ar
    31    31    34    1
    32    34    35    1
    33    31    26   ar
    34     6     1   ar
    35    16    11   ar
    36    24    25    1
    37     9    10    1
@<TRIPOS>MOLECULE
*****
 35 37 0 0 0
SMALL
GASTEIGER

@<TRIPOS>ATOM
      1 C           8.6687   -5.2197   24.1388 C.ar    1  UNL1       -0.0024
      2 C           8.8024   -6.6987   23.9275 C.ar    1  UNL1       -0.0026
      3 C           8.2881   -7.6539   24.9634 C.ar    1  UNL1       -0.0001
      4 C           7.6402   -7.1301   26.2107 C.ar    1  UNL1        0.0045
      5 C           7.5065   -5.6510   26.4221 C.ar    1  UNL1        0.0534
      6 C           8.0207   -4.6959   25.3861 C.ar    1  UNL1        0.0019
      7 C           6.8585   -5.1272   27.6694 C.2     1  UNL1        0.2495
      8 O           5.5259   -5.6616   28.1034 O.2     1  UNL1       -0.2698
      9 N           7.5433   -4.0690   28.4827 N.am    1  UNL1       -0.2804
     10 H           8.4180   -3.7183   28.1978 H       1  UNL1        0.1552
     11 C           6.8953   -3.5452   29.7300 C.ar    1  UNL1        0.0505
     12 C           7.0188   -4.3071   31.0161 C.ar    1  UNL1        0.0144
     13 C           6.3709   -3.7833   32.2634 C.ar    1  UNL1       -0.0016
     14 C           5.5994   -2.4975   32.2246 C.ar    1  UNL1       -0.0061
     15 C           5.4759   -1.7355   30.9384 C.ar    1  UNL1       -0.0016
     16 C           6.1238   -2.2593   29.6911 C.ar    1  UNL1        0.0144
     17 C           4.9515   -1.9737   33.4719 C.3     1  UNL1        0.0992
     18 N           5.6737   -0.9788   34.3311 N.3     1  UNL1       -0.2665
     19 C           5.0117   -0.4285   35.5596 C.3     1  UNL1        0.0899
     20 C           7.0578   -0.5341   33.9620 C.3     1  UNL1        0.0899
     21 C           9.1829   -4.2644   23.1029 C.3     1  UNL1        0.1166
     22 C           7.6294   -4.2675   21.0204 C.2     1  UNL1        0.2462
     23 O           7.9966   -5.6962   20.7487 O.2     1  UNL1       -0.2701
     24 N           8.2226   -3.5516   22.1975 N.am    1  UNL1       -0.2969
     25 H           7.9816   -2.6139   22.3759 H       1  UNL1        0.1501
     26 C           4.7485   -2.1291   18.3043 C.ar    1  UNL1        0.1724
     27 C           4.2342   -3.0833   19.3411 C.ar    1  UNL1        0.0402
     28 C           5.1945   -3.7962   20.2464 C.ar    1  UNL1        0.0078
     29 C           6.6691   -3.5547   20.1151 C.ar    1  UNL1        0.0566
     30 C           7.1833   -2.6004   19.0783 C.ar    1  UNL1        0.0446
     31 C           6.2230   -1.8876   18.1730 C.ar    1  UNL1        0.1725
     32 C           3.3307   -0.0278   17.7348 C.3     1  UNL1        0.2526
     33 O           3.7881   -1.4162   17.3990 O.3     1  UNL1       -0.4684
     34 O           6.7373   -0.9333   17.1362 O.3     1  UNL1       -0.4684
     35 C           7.1939    0.4375   17.5393 C.3     1  UNL1        0.2526
@<TRIPOS>BOND
     1    32    33    1
     2    33    26    1
     3    26    27   ar
     4    27    28   ar
     5    28    29   ar
     6    29    22    1
     7    22    23    2
     8    22    24   am
     9    24    21    1
    10    21     1    1
    11     1     2   ar
    12     2     3   ar
    13     3     4   ar
    14     4     5   ar
    15     5     7    1
    16     7     8    2
    17     7     9   am
    18     9    11    1
    19    11    12   ar
    20    12    13   ar
    21    13    14   ar
    22    14    17    1
    23    17    18    1
    24    18    19    1
    25    18    20    1
    26    14    15   ar
    27    15    16   ar
    28     5     6   ar
    29    29    30   ar
    30    30    31   ar
    31    31    34    1
    32    34    35    1
    33    31    26   ar
    34     6     1   ar
    35    16    11   ar
    36    24    25    1
    37     9    10    1
@<TRIPOS>MOLECULE
*****
 35 37 0 0 0
SMALL
GASTEIGER

@<TRIPOS>ATOM
      1 C           6.3488   -2.9473   19.0850 C.ar    1  UNL1       -0.0024
      2 C           7.5095   -2.1801   18.5247 C.ar    1  UNL1       -0.0026
      3 C           8.8311   -2.1951   19.2341 C.ar    1  UNL1       -0.0001
      4 C           8.9919   -2.9775   20.5038 C.ar    1  UNL1        0.0045
      5 C           7.8311   -3.7448   21.0641 C.ar    1  UNL1        0.0534
      6 C           6.5096   -3.7297   20.3547 C.ar    1  UNL1        0.0019
      7 C           7.9920   -4.5271   22.3338 C.2     1  UNL1        0.2495
      8 O           8.3091   -5.9921   22.2770 O.2     1  UNL1       -0.2698
      9 N           7.8356   -3.8445   23.6603 N.am    1  UNL1       -0.2804
     10 H           7.6274   -2.8829   23.6976 H       1  UNL1        0.1552
     11 C           7.9964   -4.6268   24.9299 C.ar    1  UNL1        0.0505
     12 C           9.2370   -4.4664   25.7577 C.ar    1  UNL1        0.0144
     13 C           9.3978   -5.2488   27.0274 C.ar    1  UNL1       -0.0016
     14 C           8.3181   -6.1915   27.4693 C.ar    1  UNL1       -0.0061
     15 C           7.0774   -6.3519   26.6415 C.ar    1  UNL1       -0.0016
     16 C           6.9166   -5.5696   25.3719 C.ar    1  UNL1        0.0144
     17 C           8.4789   -6.9739   28.7390 C.3     1  UNL1        0.0992
     18 N           8.1619   -6.3353   30.0587 N.3     1  UNL1       -0.2665
     19 C           9.0408   -6.5924   31.2467 C.3     1  UNL1        0.0899
     20 C           6.9660   -5.4395   30.1904 C.3     1  UNL1        0.0899
     21 C           5.0271   -2.9323   18.3757 C.3     1  UNL1        0.1166
     22 C           3.4942   -0.8348   18.3957 C.2     1  UNL1        0.2462
     23 O           4.2716   -0.2558   17.2510 O.2     1  UNL1       -0.2701
     24 N           3.8720   -2.1730   18.9580 N.am    1  UNL1       -0.2969
     25 H           3.3618   -2.5531   19.7094 H       1  UNL1        0.1501
     26 C           0.0287    1.4430   20.1428 C.ar    1  UNL1        0.1724
     27 C           0.3475    0.0644   20.6406 C.ar    1  UNL1        0.0402
     28 C           1.5026   -0.6949   20.0583 C.ar    1  UNL1        0.0078
     29 C           2.3390   -0.0755   18.9781 C.ar    1  UNL1        0.0566
     30 C           2.0203    1.3031   18.4803 C.ar    1  UNL1        0.0446
     31 C           0.8651    2.0623   19.0627 C.ar    1  UNL1        0.1725
     32 C          -0.9055    3.1355   21.8785 C.3     1  UNL1        0.2526
     33 O          -1.1264    2.2022   20.7252 O.3     1  UNL1       -0.4684
     34 O           0.5464    3.4410   18.5648 O.3     1  UNL1       -0.4684
     35 C          -0.5021    3.6336   17.5097 C.3     1  UNL1        0.2526
@<TRIPOS>BOND
     1    32    33    1
     2    33    26    1
     3    26    27   ar
     4    27    28   ar
     5    28    29   ar
     6    29    22    1
     7    22    23    2
     8    22    24   am
     9    24    21    1
    10    21     1    1
    11     1     2   ar
    12     2     3   ar
    13     3     4   ar
    14     4     5   ar
    15     5     7    1
    16     7     8    2
    17     7     9   am
    18     9    11    1
    19    11    12   ar
    20    12    13   ar
    21    13    14   ar
    22    14    17    1
    23    17    18    1
    24    18    19    1
    25    18    20    1
    26    14    15   ar
    27    15    16   ar
    28     5     6   ar
    29    29    30   ar
    30    30    31   ar
    31    31    34    1
    32    34    35    1
    33    31    26   ar
    34     6     1   ar
    35    16    11   ar
    36    24    25    1
    37     9    10    1
@<TRIPOS>MOLECULE
*****
 35 37 0 0 0
SMALL
GASTEIGER

@<TRIPOS>ATOM
      1 C          -0.4396    1.6122   26.4653 C.ar    1  UNL1       -0.0024
      2 C          -1.4649    2.6902   26.2742 C.ar    1  UNL1       -0.0026
      3 C          -1.6041    3.3653   24.9419 C.ar    1  UNL1       -0.0001
      4 C          -0.7179    2.9623   23.8007 C.ar    1  UNL1        0.0045
      5 C           0.3075    1.8843   23.9919 C.ar    1  UNL1        0.0534
      6 C           0.4467    1.2092   25.3241 C.ar    1  UNL1        0.0019
      7 C           1.1937    1.4813   22.8507 C.2     1  UNL1        0.2495
      8 O           2.6645    1.7709   22.9048 O.2     1  UNL1       -0.2698
      9 N           0.6091    0.7887   21.6554 N.am    1  UNL1       -0.2804
     10 H          -0.3562    0.5987   21.6199 H       1  UNL1        0.1552
     11 C           1.4954    0.3858   20.5143 C.ar    1  UNL1        0.0505
     12 C           1.6997    1.3188   19.3577 C.ar    1  UNL1        0.0144
     13 C           2.5860    0.9158   18.2166 C.ar    1  UNL1       -0.0016
     14 C           3.2678   -0.4201   18.2320 C.ar    1  UNL1       -0.0061
     15 C           3.0635   -1.3532   19.3886 C.ar    1  UNL1       -0.0016
     16 C           2.1772   -0.9503   20.5298 C.ar    1  UNL1        0.0144
     17 C           4.1540   -0.8231   17.0908 C.3     1  UNL1        0.0992
     18 N           5.6452   -0.7631   17.2418 N.3     1  UNL1       -0.2665
     19 C           6.4013    0.4352   16.7496 C.3     1  UNL1        0.0899
     20 C           6.3802   -1.9015   17.8851 C.3     1  UNL1        0.0899
     21 C          -0.3004    0.9371   27.7976 C.3     1  UNL1        0.1166
     22 C           1.4705    0.3152   29.5940 C.2     1  UNL1        0.2462
     23 O           0.6538    1.0132   30.6407 O.2     1  UNL1       -0.2701
     24 N           0.9934    0.2771   28.1724 N.am    1  UNL1       -0.2969
     25 H           1.5294   -0.1810   27.4854 H       1  UNL1        0.1501
     26 C           5.3519   -1.6648   30.7185 C.ar    1  UNL1        0.1724
     27 C           5.0930   -1.2776   29.2927 C.ar    1  UNL1        0.0402
     28 C           3.7992   -0.6176   28.9178 C.ar    1  UNL1        0.0078
     29 C           2.7643   -0.3448   29.9688 C.ar    1  UNL1        0.0566
     30 C           3.0233   -0.7320   31.3946 C.ar    1  UNL1        0.0446
     31 C           4.3171   -1.3920   31.7694 C.ar    1  UNL1        0.1725
     32 C           6.8747   -3.7693   30.7606 C.3     1  UNL1        0.2526
     33 O           6.6457   -2.3248   31.0933 O.3     1  UNL1       -0.4684
     34 O           4.5760   -1.7792   33.1953 O.3     1  UNL1       -0.4684
     35 C           5.2156   -0.7997   34.1342 C.3     1  UNL1        0.2526
@<TRIPOS>BOND
     1    32    33    1
     2    33    26    1
     3    26    27   ar
     4    27    28   ar
     5    28    29   ar
     6    29    22    1
     7    22    23    2
     8    22    24   am
     9    24    21    1
    10    21     1    1
    11     1     2   ar
    12     2     3   ar
    13     3     4   ar
    14     4     5   ar
    15     5     7    1
    16     7     8    2
    17     7     9   am
    18     9    11    1
    19    11    12   ar
    20    12    13   ar
    21    13    14   ar
    22    14    17    1
    23    17    18    1
    24    18    19    1
    25    18    20    1
    26    14    15   ar
    27    15    16   ar
    28     5     6   ar
    29    29    30   ar
    30    30    31   ar
    31    31    34    1
    32    34    35    1
    33    31    26   ar
    34     6     1   ar
    35    16    11   ar
    36    24    25    1
    37     9    10    1
@<TRIPOS>MOLECULE
*****
 35 37 0 0 0
SMALL
GASTEIGER

@<TRIPOS>ATOM
      1 C           6.1388   -3.2597   20.5226 C.ar    1  UNL1       -0.0024
      2 C           5.6320   -4.4879   19.8265 C.ar    1  UNL1       -0.0026
      3 C           4.3382   -4.4407   19.0690 C.ar    1  UNL1       -0.0001
      4 C           3.5512   -3.1653   19.0076 C.ar    1  UNL1        0.0045
      5 C           4.0580   -1.9370   19.7037 C.ar    1  UNL1        0.0534
      6 C           5.3518   -1.9842   20.4612 C.ar    1  UNL1        0.0019
      7 C           3.2710   -0.6615   19.6423 C.2     1  UNL1        0.2495
      8 O           3.9828    0.6548   19.5399 O.2     1  UNL1       -0.2698
      9 N           1.7720   -0.7024   19.6833 N.am    1  UNL1       -0.2804
     10 H           1.3048   -1.5664   19.7505 H       1  UNL1        0.1552
     11 C           0.9850    0.5731   19.6219 C.ar    1  UNL1        0.0505
     12 C           0.2233    1.0430   20.8256 C.ar    1  UNL1        0.0144
     13 C          -0.5637    2.3185   20.7642 C.ar    1  UNL1       -0.0016
     14 C          -0.5890    3.1240   19.4991 C.ar    1  UNL1       -0.0061
     15 C           0.1727    2.6540   18.2954 C.ar    1  UNL1       -0.0016
     16 C           0.9597    1.3786   18.3567 C.ar    1  UNL1        0.0144
     17 C          -1.3760    4.3995   19.4377 C.3     1  UNL1        0.0992
     18 N          -2.7815    4.3891   18.9138 N.3     1  UNL1       -0.2665
     19 C          -3.0876    4.9940   17.5757 C.3     1  UNL1        0.0899
     20 C          -3.8808    3.7737   19.7279 C.3     1  UNL1        0.0899
     21 C           7.4326   -3.3069   21.2802 C.3     1  UNL1        0.1166
     22 C           8.0169   -5.3811   22.7315 C.2     1  UNL1        0.2462
     23 O           8.4795   -6.1093   21.5045 O.2     1  UNL1       -0.2701
     24 N           7.4935   -3.9799   22.6193 N.am    1  UNL1       -0.2969
     25 H           7.1899   -3.5019   23.4247 H       1  UNL1        0.1501
     26 C           8.1995   -7.3999   26.7491 C.ar    1  UNL1        0.1724
     27 C           9.0351   -7.9122   25.6136 C.ar    1  UNL1        0.0402
     28 C           8.9743   -7.2392   24.2744 C.ar    1  UNL1        0.0078
     29 C           8.0778   -6.0540   24.0707 C.ar    1  UNL1        0.0566
     30 C           7.2421   -5.5418   25.2061 C.ar    1  UNL1        0.0446
     31 C           7.3030   -6.2148   26.5453 C.ar    1  UNL1        0.1725
     32 C           9.2343   -7.5952   29.1241 C.3     1  UNL1        0.2526
     33 O           8.2603   -8.0729   28.0882 O.3     1  UNL1       -0.4684
     34 O           6.4672   -5.7025   27.6808 O.3     1  UNL1       -0.4684
     35 C           6.7326   -4.3415   28.2529 C.3     1  UNL1        0.2526
@<TRIPOS>BOND
     1    32    33    1
     2    33    26    1
     3    26    27   ar
     4    27    28   ar
     5    28    29   ar
     6    29    22    1
     7    22    23    2
     8    22    24   am
     9    24    21    1
    10    21     1    1
    11     1     2   ar
    12     2     3   ar
    13     3     4   ar
    14     4     5   ar
    15     5     7    1
    16     7     8    2
    17     7     9   am
    18     9    11    1
    19    11    12   ar
    20    12    13   ar
    21    13    14   ar
    22    14    17    1
    23    17    18    1
    24    18    19    1
    25    18    20    1
    26    14    15   ar
    27    15    16   ar
    28     5     6   ar
    29    29    30   ar
    30    30    31   ar
    31    31    34    1
    32    34    35    1
    33    31    26   ar
    34     6     1   ar
    35    16    11   ar
    36    24    25    1
    37     9    10    1
@<TRIPOS>MOLECULE
*****
 35 37 0 0 0
SMALL
GASTEIGER

@<TRIPOS>ATOM
      1 C           7.5802   -5.6735   27.3186 C.ar    1  UNL1       -0.0024
      2 C           8.8589   -6.4029   27.0307 C.ar    1  UNL1       -0.0026
      3 C           9.4623   -6.3460   25.6586 C.ar    1  UNL1       -0.0001
      4 C           8.7871   -5.5595   24.5744 C.ar    1  UNL1        0.0045
      5 C           7.5083   -4.8301   24.8623 C.ar    1  UNL1        0.0534
      6 C           6.9050   -4.8870   26.2344 C.ar    1  UNL1        0.0019
      7 C           6.8331   -4.0436   23.7781 C.2     1  UNL1        0.2495
      8 O           7.6541   -3.3567   22.7274 O.2     1  UNL1       -0.2698
      9 N           5.3367   -3.9442   23.7445 N.am    1  UNL1       -0.2804
     10 H           4.7978   -4.3952   24.4341 H       1  UNL1        0.1552
     11 C           4.6614   -3.1578   22.6603 C.ar    1  UNL1        0.0505
     12 C           4.5946   -3.7069   21.2660 C.ar    1  UNL1        0.0144
     13 C           3.9193   -2.9205   20.1818 C.ar    1  UNL1       -0.0016
     14 C           3.3109   -1.5850   20.4918 C.ar    1  UNL1       -0.0061
     15 C           3.3777   -1.0358   21.8861 C.ar    1  UNL1       -0.0016
     16 C           4.0529   -1.8223   22.9704 C.ar    1  UNL1        0.0144
     17 C           2.6356   -0.7986   19.4076 C.3     1  UNL1        0.0992
     18 N           3.4564   -0.1150   18.3546 N.3     1  UNL1       -0.2665
     19 C           4.0515    1.2349   18.6264 C.3     1  UNL1        0.0899
     20 C           3.6823   -0.7812   17.0298 C.3     1  UNL1        0.0899
     21 C           6.9768   -5.7304   28.6907 C.3     1  UNL1        0.1166
     22 C           6.8240   -4.6521   31.0495 C.2     1  UNL1        0.2462
     23 O           6.6547   -6.0116   31.6600 O.2     1  UNL1       -0.2701
     24 N           6.9850   -4.5114   29.5648 N.am    1  UNL1       -0.2969
     25 H           7.0961   -3.6191   29.1641 H       1  UNL1        0.1501
     26 C           6.8486   -0.9951   33.6717 C.ar    1  UNL1        0.1724
     27 C           8.1399   -1.5540   33.1519 C.ar    1  UNL1        0.0402
     28 C           8.1317   -2.7729   32.2778 C.ar    1  UNL1        0.0078
     29 C           6.8322   -3.4331   31.9236 C.ar    1  UNL1        0.0566
     30 C           5.5409   -2.8743   32.4434 C.ar    1  UNL1        0.0446
     31 C           5.5491   -1.6553   33.3175 C.ar    1  UNL1        0.1725
     32 C           6.7899    0.0778   36.0372 C.3     1  UNL1        0.2526
     33 O           6.8568    0.2238   34.5458 O.3     1  UNL1       -0.4684
     34 O           4.2578   -1.0965   33.8374 O.3     1  UNL1       -0.4684
     35 C           3.6106    0.0659   33.1445 C.3     1  UNL1        0.2526
@<TRIPOS>BOND
     1    32    33    1
     2    33    26    1
     3    26    27   ar
     4    27    28   ar
     5    28    29   ar
     6    29    22    1
     7    22    23    2
     8    22    24   am
     9    24    21    1
    10    21     1    1
    11     1     2   ar
    12     2     3   ar
    13     3     4   ar
    14     4     5   ar
    15     5     7    1
    16     7     8    2
    17     7     9   am
    18     9    11    1
    19    11    12   ar
    20    12    13   ar
    21    13    14   ar
    22    14    17    1
    23    17    18    1
    24    18    19    1
    25    18    20    1
    26    14    15   ar
    27    15    16   ar
    28     5     6   ar
    29    29    30   ar
    30    30    31   ar
    31    31    34    1
    32    34    35    1
    33    31    26   ar
    34     6     1   ar
    35    16    11   ar
    36    24    25    1
    37     9    10    1
@<TRIPOS>MOLECULE
*****
 35 37 0 0 0
SMALL
GASTEIGER

@<TRIPOS>ATOM
      1 C           8.0036   -6.5618   28.1040 C.ar    1  UNL1       -0.0024
      2 C           8.5309   -7.9487   27.8843 C.ar    1  UNL1       -0.0026
      3 C           8.6597   -8.4903   26.4914 C.ar    1  UNL1       -0.0001
      4 C           8.2611   -7.6449   25.3182 C.ar    1  UNL1        0.0045
      5 C           7.7337   -6.2579   25.5380 C.ar    1  UNL1        0.0534
      6 C           7.6050   -5.7164   26.9308 C.ar    1  UNL1        0.0019
      7 C           7.3351   -5.4124   24.3648 C.2     1  UNL1        0.2495
      8 O           7.8186   -5.7631   22.9889 O.2     1  UNL1       -0.2698
      9 N           6.4528   -4.2163   24.5676 N.am    1  UNL1       -0.2804
     10 H           6.1355   -3.9862   25.4706 H       1  UNL1        0.1552
     11 C           6.0542   -3.3709   23.3944 C.ar    1  UNL1        0.0505
     12 C           4.7317   -3.5952   22.7231 C.ar    1  UNL1        0.0144
     13 C           4.3331   -2.7498   21.5499 C.ar    1  UNL1       -0.0016
     14 C           5.2570   -1.6801   21.0480 C.ar    1  UNL1       -0.0061
     15 C           6.5796   -1.4557   21.7192 C.ar    1  UNL1       -0.0016
     16 C           6.9782   -2.3011   22.8924 C.ar    1  UNL1        0.0144
     17 C           4.8583   -0.8347   19.8748 C.3     1  UNL1        0.0992
     18 N           4.9050   -1.4057   18.4886 N.3     1  UNL1       -0.2665
     19 C           3.9701   -0.8920   17.4340 C.3     1  UNL1        0.0899
     20 C           5.8865   -2.4903   18.1569 C.3     1  UNL1        0.0899
     21 C           7.8749   -6.0202   29.4970 C.3     1  UNL1        0.1166
     22 C           7.1645   -3.8038   30.6515 C.2     1  UNL1        0.2462
     23 O           8.5577   -3.6329   31.1805 O.2     1  UNL1       -0.2701
     24 N           6.8231   -4.9974   29.8098 N.am    1  UNL1       -0.2969
     25 H           5.9087   -5.1096   29.4625 H       1  UNL1        0.1501
     26 C           4.0093   -0.7356   31.5899 C.ar    1  UNL1        0.1724
     27 C           4.5860   -0.8199   30.2078 C.ar    1  UNL1        0.0402
     28 C           5.6377   -1.8426   29.8950 C.ar    1  UNL1        0.0078
     29 C           6.1128   -2.7811   30.9643 C.ar    1  UNL1        0.0566
     30 C           5.5361   -2.6968   32.3465 C.ar    1  UNL1        0.0446
     31 C           4.4844   -1.6741   32.6593 C.ar    1  UNL1        0.1725
     32 C           3.3478    1.6041   32.5053 C.3     1  UNL1        0.2526
     33 O           2.9576    0.2871   31.9027 O.3     1  UNL1       -0.4684
     34 O           3.9077   -1.5899   34.0415 O.3     1  UNL1       -0.4684
     35 C           4.6155   -0.8006   35.1026 C.3     1  UNL1        0.2526
@<TRIPOS>BOND
     1    32    33    1
     2    33    26    1
     3    26    27   ar
     4    27    28   ar
     5    28    29   ar
     6    29    22    1
     7    22    23    2
     8    22    24   am
     9    24    21    1
    10    21     1    1
    11     1     2   ar
    12     2     3   ar
    13     3     4   ar
    14     4     5   ar
    15     5     7    1
    16     7     8    2
    17     7     9   am
    18     9    11    1
    19    11    12   ar
    20    12    13   ar
    21    13    14   ar
    22    14    17    1
    23    17    18    1
    24    18    19    1
    25    18    20    1
    26    14    15   ar
    27    15    16   ar
    28     5     6   ar
    29    29    30   ar
    30    30    31   ar
    31    31    34    1
    32    34    35    1
    33    31    26   ar
    34     6     1   ar
    35    16    11   ar
    36    24    25    1
    37     9    10    1
@<TRIPOS>MOLECULE
*****
 35 37 0 0 0
SMALL
GASTEIGER

@<TRIPOS>ATOM
      1 C           4.4412   -1.2611   28.0015 C.ar    1  UNL1       -0.0024
      2 C           5.7335   -1.9468   27.6703 C.ar    1  UNL1       -0.0026
      3 C           6.6764   -2.3410   28.7684 C.ar    1  UNL1       -0.0001
      4 C           6.3269   -2.0493   30.1977 C.ar    1  UNL1        0.0045
      5 C           5.0345   -1.3635   30.5288 C.ar    1  UNL1        0.0534
      6 C           4.0918   -0.9694   29.4307 C.ar    1  UNL1        0.0019
      7 C           4.6850   -1.0718   31.9581 C.2     1  UNL1        0.2495
      8 O           3.6095   -1.8614   32.6434 O.2     1  UNL1       -0.2698
      9 N           5.4112    0.0096   32.7021 N.am    1  UNL1       -0.2804
     10 H           6.1171    0.5279   32.2523 H       1  UNL1        0.1552
     11 C           5.0617    0.3013   34.1313 C.ar    1  UNL1        0.0505
     12 C           5.8232   -0.3624   35.2401 C.ar    1  UNL1        0.0144
     13 C           5.4737   -0.0707   36.6694 C.ar    1  UNL1       -0.0016
     14 C           4.3627    0.8847   36.9898 C.ar    1  UNL1       -0.0061
     15 C           3.6011    1.5485   35.8810 C.ar    1  UNL1       -0.0016
     16 C           3.9506    1.2568   34.4517 C.ar    1  UNL1        0.0144
     17 C           4.0132    1.1764   38.4191 C.3     1  UNL1        0.0992
     18 N           2.6173    1.5893   38.7806 N.3     1  UNL1       -0.2665
     19 C           2.2685    3.0445   38.8837 C.3     1  UNL1        0.0899
     20 C           1.5701    0.5469   39.0390 C.3     1  UNL1        0.0899
     21 C           3.4984   -0.8669   26.9034 C.3     1  UNL1        0.1166
     22 C           3.2533   -0.6547   24.3256 C.2     1  UNL1        0.2462
     23 O           2.6844    0.7230   24.4932 O.2     1  UNL1       -0.2701
     24 N           3.6603   -1.4497   25.5307 N.am    1  UNL1       -0.2969
     25 H           4.0336   -2.3540   25.4208 H       1  UNL1        0.1501
     26 C           3.7389   -2.4031   20.2077 C.ar    1  UNL1        0.1724
     27 C           4.4630   -3.0125   21.3714 C.ar    1  UNL1        0.0402
     28 C           4.3011   -2.4297   22.7440 C.ar    1  UNL1        0.0078
     29 C           3.4151   -1.2375   22.9530 C.ar    1  UNL1        0.0566
     30 C           2.6910   -0.6281   21.7893 C.ar    1  UNL1        0.0446
     31 C           2.8529   -1.2109   20.4166 C.ar    1  UNL1        0.1725
     32 C           5.2676   -3.1124   18.2304 C.3     1  UNL1        0.2526
     33 O           3.9007   -2.9859   18.8350 O.3     1  UNL1       -0.4684
     34 O           2.1288   -0.6014   19.2529 O.3     1  UNL1       -0.4684
     35 C           2.8679    0.2736   18.2844 C.3     1  UNL1        0.2526
@<TRIPOS>BOND
     1    32    33    1
     2    33    26    1
     3    26    27   ar
     4    27    28   ar
     5    28    29   ar
     6    29    22    1
     7    22    23    2
     8    22    24   am
     9    24    21    1
    10    21     1    1
    11     1     2   ar
    12     2     3   ar
    13     3     4   ar
    14     4     5   ar
    15     5     7    1
    16     7     8    2
    17     7     9   am
    18     9    11    1
    19    11    12   ar
    20    12    13   ar
    21    13    14   ar
    22    14    17    1
    23    17    18    1
    24    18    19    1
    25    18    20    1
    26    14    15   ar
    27    15    16   ar
    28     5     6   ar
    29    29    30   ar
    30    30    31   ar
    31    31    34    1
    32    34    35    1
    33    31    26   ar
    34     6     1   ar
    35    16    11   ar
    36    24    25    1
    37     9    10    1
@<TRIPOS>MOLECULE
*****
 35 37 0 0 0
SMALL
GASTEIGER

@<TRIPOS>ATOM
      1 C           4.2222   -0.8514   28.2399 C.ar    1  UNL1       -0.0024
      2 C           5.5001   -1.5404   27.8630 C.ar    1  UNL1       -0.0026
      3 C           6.4428   -2.0093   28.9315 C.ar    1  UNL1       -0.0001
      4 C           6.1074   -1.7892   30.3769 C.ar    1  UNL1        0.0045
      5 C           4.8294   -1.1001   30.7538 C.ar    1  UNL1        0.0534
      6 C           3.8869   -0.6312   29.6853 C.ar    1  UNL1        0.0019
      7 C           4.4941   -0.8800   32.1991 C.2     1  UNL1        0.2495
      8 O           3.6600   -1.8849   32.9370 O.2     1  UNL1       -0.2698
      9 N           4.9928    0.3451   32.9066 N.am    1  UNL1       -0.2804
     10 H           5.5402    1.0047   32.4223 H       1  UNL1        0.1552
     11 C           4.6575    0.5652   34.3520 C.ar    1  UNL1        0.0505
     12 C           3.5925    1.5503   34.7332 C.ar    1  UNL1        0.0144
     13 C           3.2571    1.7705   36.1786 C.ar    1  UNL1       -0.0016
     14 C           3.9868    1.0055   37.2427 C.ar    1  UNL1       -0.0061
     15 C           5.0518    0.0204   36.8615 C.ar    1  UNL1       -0.0016
     16 C           5.3872   -0.1998   35.4161 C.ar    1  UNL1        0.0144
     17 C           3.6514    1.2256   38.6881 C.3     1  UNL1        0.0992
     18 N           2.2183    1.3357   39.1171 N.3     1  UNL1       -0.2665
     19 C           1.5897    2.6863   39.2930 C.3     1  UNL1        0.0899
     20 C           1.4139    0.0953   39.3704 C.3     1  UNL1        0.0899
     21 C           3.2795   -0.3824   27.1714 C.3     1  UNL1        0.1166
     22 C           4.1423   -0.5656   24.7277 C.2     1  UNL1        0.2462
     23 O           5.0404    0.6138   24.9564 O.2     1  UNL1       -0.2701
     24 N           3.2618   -1.0637   25.8352 N.am    1  UNL1       -0.2969
     25 H           2.6723   -1.8378   25.6851 H       1  UNL1        0.1501
     26 C           4.0891   -2.6094   20.7189 C.ar    1  UNL1        0.1724
     27 C           3.1827   -1.4427   20.9780 C.ar    1  UNL1        0.0402
     28 C           3.2004   -0.7614   22.3143 C.ar    1  UNL1        0.0078
     29 C           4.1246   -1.2469   23.3914 C.ar    1  UNL1        0.0566
     30 C           5.0310   -2.4136   23.1323 C.ar    1  UNL1        0.0446
     31 C           5.0133   -3.0948   21.7961 C.ar    1  UNL1        0.1725
     32 C           3.2976   -4.5625   19.1994 C.3     1  UNL1        0.2526
     33 O           4.0714   -3.2907   19.3827 O.3     1  UNL1       -0.4684
     34 O           5.9197   -4.2616   21.5370 O.3     1  UNL1       -0.4684
     35 C           7.2430   -4.0482   20.8637 C.3     1  UNL1        0.2526
@<TRIPOS>BOND
     1    32    33    1
     2    33    26    1
     3    26    27   ar
     4    27    28   ar
     5    28    29   ar
     6    29    22    1
     7    22    23    2
     8    22    24   am
     9    24    21    1
    10    21     1    1
    11     1     2   ar
    12     2     3   ar
    13     3     4   ar
    14     4     5   ar
    15     5     7    1
    16     7     8    2
    17     7     9   am
    18     9    11    1
    19    11    12   ar
    20    12    13   ar
    21    13    14   ar
    22    14    17    1
    23    17    18    1
    24    18    19    1
    25    18    20    1
    26    14    15   ar
    27    15    16   ar
    28     5     6   ar
    29    29    30   ar
    30    30    31   ar
    31    31    34    1
    32    34    35    1
    33    31    26   ar
    34     6     1   ar
    35    16    11   ar
    36    24    25    1
    37     9    10    1
