@<TRIPOS>MOLECULE
*****
 17 18 0 0 0
SMALL
GASTEIGER

@<TRIPOS>ATOM
      1 C         -10.1643  -19.1279   21.0335 C.ar    1  UNL1        0.1386
      2 C          -9.3956  -19.4313   19.7817 C.ar    1  UNL1        0.0369
      3 C          -7.8985  -19.5139   19.8223 C.ar    1  UNL1        0.0046
      4 C          -7.1699  -19.2933   21.1148 C.ar    1  UNL1        0.0178
      5 C          -7.9386  -18.9900   22.3666 C.ar    1  UNL1        0.0046
      6 C          -9.4358  -18.9073   22.3260 C.ar    1  UNL1        0.0369
      7 C          -5.6728  -19.3760   21.1554 C.ar    1  UNL1        0.0813
      8 C          -4.9489  -20.3225   20.2444 C.ar    1  UNL1        0.0191
      9 C          -3.4517  -20.4052   20.2850 C.ar    1  UNL1        0.0031
     10 C          -2.6784  -19.5414   21.2367 C.ar    1  UNL1        0.0207
     11 C          -3.4023  -18.5949   22.1477 C.ar    1  UNL1        0.0988
     12 N          -4.8995  -18.5122   22.1071 N.ar    1  UNL1       -0.2438
     13 O         -11.6615  -19.0452   20.9929 O.3     1  UNL1       -0.4755
     14 C         -12.3445  -17.7211   21.1665 C.3     1  UNL1        0.2054
     15 C         -12.6001  -17.1839   22.5434 C.3     1  UNL1        0.0473
     16 C         -14.1497  -18.1826   24.3742 C.3     1  UNL1        0.0001
     17 C         -12.8165  -18.1281   23.6887 C.3     1  UNL1        0.0038
@<TRIPOS>BOND
     1    16    17    1
     2    17    15    1
     3    15    14    1
     4    14    13    1
     5    13     1    1
     6     1     2   ar
     7     2     3   ar
     8     3     4   ar
     9     4     7    1
    10     7     8   ar
    11     8     9   ar
    12     9    10   ar
    13    10    11   ar
    14    11    12   ar
    15     4     5   ar
    16     5     6   ar
    17     6     1   ar
    18    12     7   ar
@<TRIPOS>MOLECULE
*****
 17 18 0 0 0
SMALL
GASTEIGER

@<TRIPOS>ATOM
      1 C         -10.0087  -18.2486   23.3171 C.ar    1  UNL1        0.1386
      2 C          -9.0842  -17.1287   22.9419 C.ar    1  UNL1        0.0369
      3 C          -7.7195  -17.4327   22.3985 C.ar    1  UNL1        0.0046
      4 C          -7.2794  -18.8568   22.2304 C.ar    1  UNL1        0.0178
      5 C          -8.2040  -19.9768   22.6056 C.ar    1  UNL1        0.0046
      6 C          -9.5686  -19.6727   23.1490 C.ar    1  UNL1        0.0369
      7 C          -5.9148  -19.1609   21.6870 C.ar    1  UNL1        0.0813
      8 C          -5.7359  -20.2579   20.6798 C.ar    1  UNL1        0.0191
      9 C          -4.3712  -20.5620   20.1365 C.ar    1  UNL1        0.0031
     10 C          -3.1855  -19.7691   20.6003 C.ar    1  UNL1        0.0207
     11 C          -3.3644  -18.6720   21.6074 C.ar    1  UNL1        0.0988
     12 N          -4.7290  -18.3679   22.1508 N.ar    1  UNL1       -0.2438
     13 O         -11.3734  -17.9445   23.8605 O.3     1  UNL1       -0.4755
     14 C         -12.4105  -17.3186   22.9760 C.3     1  UNL1        0.2054
     15 C         -12.6360  -17.8509   21.5918 C.3     1  UNL1        0.0473
     16 C         -10.8369  -18.2153   19.7532 C.3     1  UNL1        0.0001
     17 C         -11.8259  -17.3242   20.4445 C.3     1  UNL1        0.0038
@<TRIPOS>BOND
     1    16    17    1
     2    17    15    1
     3    15    14    1
     4    14    13    1
     5    13     1    1
     6     1     2   ar
     7     2     3   ar
     8     3     4   ar
     9     4     7    1
    10     7     8   ar
    11     8     9   ar
    12     9    10   ar
    13    10    11   ar
    14    11    12   ar
    15     4     5   ar
    16     5     6   ar
    17     6     1   ar
    18    12     7   ar
@<TRIPOS>MOLECULE
*****
 17 18 0 0 0
SMALL
GASTEIGER

@<TRIPOS>ATOM
      1 C          -3.9646  -19.6336   21.3179 C.ar    1  UNL1        0.1386
      2 C          -4.6797  -18.7660   22.3107 C.ar    1  UNL1        0.0369
      3 C          -6.1749  -18.6537   22.2686 C.ar    1  UNL1        0.0046
      4 C          -6.9550  -19.4090   21.2338 C.ar    1  UNL1        0.0178
      5 C          -6.2398  -20.2767   20.2410 C.ar    1  UNL1        0.0046
      6 C          -4.7446  -20.3890   20.2830 C.ar    1  UNL1        0.0369
      7 C          -8.4502  -19.2967   21.1918 C.ar    1  UNL1        0.0813
      8 C          -9.2619  -19.6314   22.4079 C.ar    1  UNL1        0.0191
      9 C         -10.7571  -19.5191   22.3658 C.ar    1  UNL1        0.0031
     10 C         -11.4406  -19.0721   21.1077 C.ar    1  UNL1        0.0207
     11 C         -10.6288  -18.7374   19.8916 C.ar    1  UNL1        0.0988
     12 N          -9.1336  -18.8497   19.9336 N.ar    1  UNL1       -0.2438
     13 O          -2.4694  -19.7460   21.3599 O.3     1  UNL1       -0.4755
     14 C          -1.6406  -19.1393   20.2667 C.3     1  UNL1        0.2054
     15 C          -1.8325  -17.6998   19.8910 C.3     1  UNL1        0.0473
     16 C          -2.2328  -16.1123   21.9083 C.3     1  UNL1        0.0001
     17 C          -1.3478  -16.6148   20.8063 C.3     1  UNL1        0.0038
@<TRIPOS>BOND
     1    16    17    1
     2    17    15    1
     3    15    14    1
     4    14    13    1
     5    13     1    1
     6     1     2   ar
     7     2     3   ar
     8     3     4   ar
     9     4     7    1
    10     7     8   ar
    11     8     9   ar
    12     9    10   ar
    13    10    11   ar
    14    11    12   ar
    15     4     5   ar
    16     5     6   ar
    17     6     1   ar
    18    12     7   ar
@<TRIPOS>MOLECULE
*****
 17 18 0 0 0
SMALL
GASTEIGER

@<TRIPOS>ATOM
      1 C          -6.4173  -20.2593   20.6263 C.ar    1  UNL1        0.1386
      2 C          -6.7095  -20.2135   22.0968 C.ar    1  UNL1        0.0369
      3 C          -8.0403  -19.7200   22.5821 C.ar    1  UNL1        0.0046
      4 C          -9.0789  -19.2723   21.5968 C.ar    1  UNL1        0.0178
      5 C          -8.7867  -19.3181   20.1263 C.ar    1  UNL1        0.0046
      6 C          -7.4559  -19.8115   19.6410 C.ar    1  UNL1        0.0369
      7 C         -10.4097  -18.7789   22.0821 C.ar    1  UNL1        0.0813
      8 C         -10.7662  -18.8890   23.5349 C.ar    1  UNL1        0.0191
      9 C         -12.0970  -18.3956   24.0201 C.ar    1  UNL1        0.0031
     10 C         -13.0713  -17.7919   23.0526 C.ar    1  UNL1        0.0207
     11 C         -12.7148  -17.6818   21.5997 C.ar    1  UNL1        0.0988
     12 N         -11.3840  -18.1752   21.1145 N.ar    1  UNL1       -0.2438
     13 O          -5.0865  -20.7527   20.1410 O.3     1  UNL1       -0.4755
     14 C          -3.8992  -19.8362   20.1469 C.3     1  UNL1        0.2054
     15 C          -3.0329  -19.7387   21.3676 C.3     1  UNL1        0.0473
     16 C          -3.8387  -18.1008   23.2164 C.3     1  UNL1        0.0001
     17 C          -2.9024  -18.4317   22.0922 C.3     1  UNL1        0.0038
@<TRIPOS>BOND
     1    16    17    1
     2    17    15    1
     3    15    14    1
     4    14    13    1
     5    13     1    1
     6     1     2   ar
     7     2     3   ar
     8     3     4   ar
     9     4     7    1
    10     7     8   ar
    11     8     9   ar
    12     9    10   ar
    13    10    11   ar
    14    11    12   ar
    15     4     5   ar
    16     5     6   ar
    17     6     1   ar
    18    12     7   ar
@<TRIPOS>MOLECULE
*****
 17 18 0 0 0
SMALL
GASTEIGER

@<TRIPOS>ATOM
      1 C          -9.6056  -19.4947   21.3030 C.ar    1  UNL1        0.1386
      2 C          -8.9983  -19.4217   19.9334 C.ar    1  UNL1        0.0369
      3 C          -7.5091  -19.3335   19.7771 C.ar    1  UNL1        0.0046
      4 C          -6.6272  -19.3184   20.9903 C.ar    1  UNL1        0.0178
      5 C          -7.2345  -19.3914   22.3599 C.ar    1  UNL1        0.0046
      6 C          -8.7237  -19.4795   22.5162 C.ar    1  UNL1        0.0369
      7 C          -5.1380  -19.2302   20.8339 C.ar    1  UNL1        0.0813
      8 C          -4.2396  -19.6478   21.9601 C.ar    1  UNL1        0.0191
      9 C          -2.7503  -19.5597   21.8038 C.ar    1  UNL1        0.0031
     10 C          -2.1595  -19.0539   20.5212 C.ar    1  UNL1        0.0207
     11 C          -3.0579  -18.6363   19.3950 C.ar    1  UNL1        0.0988
     12 N          -4.5471  -18.7244   19.5513 N.ar    1  UNL1       -0.2438
     13 O         -11.0948  -19.5828   21.4594 O.3     1  UNL1       -0.4755
     14 C         -11.8290  -18.5403   22.2493 C.3     1  UNL1        0.2054
     15 C         -12.7077  -17.5479   21.5471 C.3     1  UNL1        0.0473
     16 C         -10.6850  -15.9812   21.0952 C.3     1  UNL1        0.0001
     17 C         -12.0950  -16.3998   20.8010 C.3     1  UNL1        0.0038
@<TRIPOS>BOND
     1    16    17    1
     2    17    15    1
     3    15    14    1
     4    14    13    1
     5    13     1    1
     6     1     2   ar
     7     2     3   ar
     8     3     4   ar
     9     4     7    1
    10     7     8   ar
    11     8     9   ar
    12     9    10   ar
    13    10    11   ar
    14    11    12   ar
    15     4     5   ar
    16     5     6   ar
    17     6     1   ar
    18    12     7   ar
@<TRIPOS>MOLECULE
*****
 17 18 0 0 0
SMALL
GASTEIGER

@<TRIPOS>ATOM
      1 C          -5.2709  -19.1776   22.2311 C.ar    1  UNL1        0.1386
      2 C          -5.5757  -17.7932   22.7215 C.ar    1  UNL1        0.0369
      3 C          -6.9925  -17.3013   22.7464 C.ar    1  UNL1        0.0046
      4 C          -8.1046  -18.1937   22.2809 C.ar    1  UNL1        0.0178
      5 C          -7.7999  -19.5781   21.7905 C.ar    1  UNL1        0.0046
      6 C          -6.3830  -20.0700   21.7656 C.ar    1  UNL1        0.0369
      7 C          -9.5214  -17.7018   22.3058 C.ar    1  UNL1        0.0813
      8 C         -10.5051  -18.2968   23.2692 C.ar    1  UNL1        0.0191
      9 C         -11.9219  -17.8049   23.2941 C.ar    1  UNL1        0.0031
     10 C         -12.3551  -16.7179   22.3556 C.ar    1  UNL1        0.0207
     11 C         -11.3714  -16.1229   21.3922 C.ar    1  UNL1        0.0988
     12 N          -9.9545  -16.6148   21.3673 N.ar    1  UNL1       -0.2438
     13 O          -3.8541  -19.6695   22.2062 O.3     1  UNL1       -0.4755
     14 C          -3.2094  -20.0336   20.9017 C.3     1  UNL1        0.2054
     15 C          -3.5831  -19.2976   19.6492 C.3     1  UNL1        0.0473
     16 C          -1.4555  -17.9171   19.0856 C.3     1  UNL1        0.0001
     17 C          -2.9341  -17.9836   19.3294 C.3     1  UNL1        0.0038
@<TRIPOS>BOND
     1    16    17    1
     2    17    15    1
     3    15    14    1
     4    14    13    1
     5    13     1    1
     6     1     2   ar
     7     2     3   ar
     8     3     4   ar
     9     4     7    1
    10     7     8   ar
    11     8     9   ar
    12     9    10   ar
    13    10    11   ar
    14    11    12   ar
    15     4     5   ar
    16     5     6   ar
    17     6     1   ar
    18    12     7   ar
@<TRIPOS>MOLECULE
*****
 17 18 0 0 0
SMALL
GASTEIGER

@<TRIPOS>ATOM
      1 C          -5.7468  -17.0996   23.0752 C.ar    1  UNL1        0.1386
      2 C          -6.4206  -18.2623   22.4089 C.ar    1  UNL1        0.0369
      3 C          -7.9109  -18.4122   22.4891 C.ar    1  UNL1        0.0046
      4 C          -8.7275  -17.3993   23.2356 C.ar    1  UNL1        0.0178
      5 C          -8.0537  -16.2366   23.9018 C.ar    1  UNL1        0.0046
      6 C          -6.5633  -16.0867   23.8217 C.ar    1  UNL1        0.0369
      7 C         -10.2178  -17.5492   23.3157 C.ar    1  UNL1        0.0813
      8 C         -10.8257  -18.4637   24.3375 C.ar    1  UNL1        0.0191
      9 C         -12.3161  -18.6135   24.4177 C.ar    1  UNL1        0.0031
     10 C         -13.1985  -17.8489   23.4761 C.ar    1  UNL1        0.0207
     11 C         -12.5905  -16.9344   22.4543 C.ar    1  UNL1        0.0988
     12 N         -11.1002  -16.7846   22.3741 N.ar    1  UNL1       -0.2438
     13 O          -4.2564  -16.9497   22.9950 O.3     1  UNL1       -0.4755
     14 C          -3.3709  -18.1443   23.1914 C.3     1  UNL1        0.2054
     15 C          -2.6064  -18.7100   22.0315 C.3     1  UNL1        0.0473
     16 C          -3.8603  -19.8354   20.0537 C.3     1  UNL1        0.0001
     17 C          -3.1807  -18.6373   20.6476 C.3     1  UNL1        0.0038
@<TRIPOS>BOND
     1    16    17    1
     2    17    15    1
     3    15    14    1
     4    14    13    1
     5    13     1    1
     6     1     2   ar
     7     2     3   ar
     8     3     4   ar
     9     4     7    1
    10     7     8   ar
    11     8     9   ar
    12     9    10   ar
    13    10    11   ar
    14    11    12   ar
    15     4     5   ar
    16     5     6   ar
    17     6     1   ar
    18    12     7   ar
@<TRIPOS>MOLECULE
*****
 17 18 0 0 0
SMALL
GASTEIGER

@<TRIPOS>ATOM
      1 C         -12.5479   -4.3628   18.4489 C.ar    1  UNL1        0.1386
      2 C         -12.9927   -5.2624   17.3341 C.ar    1  UNL1        0.0369
      3 C         -14.0904   -6.2579   17.5664 C.ar    1  UNL1        0.0046
      4 C         -14.7433   -6.3538   18.9134 C.ar    1  UNL1        0.0178
      5 C         -14.2984   -5.4541   20.0282 C.ar    1  UNL1        0.0046
      6 C         -13.2007   -4.4586   19.7959 C.ar    1  UNL1        0.0369
      7 C         -15.8410   -7.3493   19.1457 C.ar    1  UNL1        0.0813
      8 C         -17.1782   -6.8884   19.6451 C.ar    1  UNL1        0.0191
      9 C         -18.2759   -7.8839   19.8774 C.ar    1  UNL1        0.0031
     10 C         -18.0365   -9.3403   19.6103 C.ar    1  UNL1        0.0207
     11 C         -16.6993   -9.8012   19.1110 C.ar    1  UNL1        0.0988
     12 N         -15.6016   -8.8057   18.8787 N.ar    1  UNL1       -0.2438
     13 O         -11.4501   -3.3673   18.2166 O.3     1  UNL1       -0.4755
     14 C         -10.0161   -3.8001   18.2951 C.3     1  UNL1        0.2054
     15 C          -9.6585   -5.0926   18.9671 C.3     1  UNL1        0.0473
     16 C          -9.5665   -7.6857   18.8347 C.3     1  UNL1        0.0001
     17 C          -9.5275   -6.3481   18.1568 C.3     1  UNL1        0.0038
@<TRIPOS>BOND
     1    16    17    1
     2    17    15    1
     3    15    14    1
     4    14    13    1
     5    13     1    1
     6     1     2   ar
     7     2     3   ar
     8     3     4   ar
     9     4     7    1
    10     7     8   ar
    11     8     9   ar
    12     9    10   ar
    13    10    11   ar
    14    11    12   ar
    15     4     5   ar
    16     5     6   ar
    17     6     1   ar
    18    12     7   ar
@<TRIPOS>MOLECULE
*****
 17 18 0 0 0
SMALL
GASTEIGER

@<TRIPOS>ATOM
      1 C           6.8094  -11.3319   27.9682 C.ar    1  UNL1        0.1386
      2 C           6.7609  -12.6193   28.7364 C.ar    1  UNL1        0.0369
      3 C           5.4752  -13.3856   28.8354 C.ar    1  UNL1        0.0046
      4 C           4.2381  -12.8645   28.1662 C.ar    1  UNL1        0.0178
      5 C           4.2866  -11.5771   27.3980 C.ar    1  UNL1        0.0046
      6 C           5.5723  -10.8107   27.2990 C.ar    1  UNL1        0.0369
      7 C           2.9524  -13.6308   28.2652 C.ar    1  UNL1        0.0813
      8 C           1.6431  -12.8992   28.2889 C.ar    1  UNL1        0.0191
      9 C           0.3575  -13.6655   28.3879 C.ar    1  UNL1        0.0031
     10 C           0.3810  -15.1634   28.4632 C.ar    1  UNL1        0.0207
     11 C           1.6903  -15.8950   28.4394 C.ar    1  UNL1        0.0988
     12 N           2.9760  -15.1287   28.3404 N.ar    1  UNL1       -0.2438
     13 O           8.0951  -10.5655   27.8692 O.3     1  UNL1       -0.4755
     14 C           8.0783   -9.1219   27.4625 C.3     1  UNL1        0.2054
     15 C           9.3301   -8.4719   26.9520 C.3     1  UNL1        0.0473
     16 C           8.0338   -7.5952   24.8780 C.3     1  UNL1        0.0001
     17 C           9.3193   -7.7554   25.6341 C.3     1  UNL1        0.0038
@<TRIPOS>BOND
     1    16    17    1
     2    17    15    1
     3    15    14    1
     4    14    13    1
     5    13     1    1
     6     1     2   ar
     7     2     3   ar
     8     3     4   ar
     9     4     7    1
    10     7     8   ar
    11     8     9   ar
    12     9    10   ar
    13    10    11   ar
    14    11    12   ar
    15     4     5   ar
    16     5     6   ar
    17     6     1   ar
    18    12     7   ar
