@<TRIPOS>MOLECULE
*****
 28 30 0 0 0
SMALL
GASTEIGER

@<TRIPOS>ATOM
      1 C           6.9189   -4.6135   30.1150 C.ar    1  UNL1        0.1384
      2 C           6.5422   -3.3894   29.3342 C.ar    1  UNL1        0.0370
      3 C           6.5025   -3.4384   27.8355 C.ar    1  UNL1        0.0076
      4 C           6.8395   -4.7116   27.1176 C.ar    1  UNL1        0.0536
      5 C           7.2162   -5.9358   27.8983 C.ar    1  UNL1        0.0076
      6 C           7.2559   -5.8867   29.3971 C.ar    1  UNL1        0.0370
      7 C           6.7997   -4.7607   25.6189 C.2     1  UNL1        0.2458
      8 O           7.4708   -5.8851   24.8873 O.2     1  UNL1       -0.2701
      9 N           6.0889   -3.6853   24.8519 N.am    1  UNL1       -0.3011
     10 H           5.6485   -2.9473   25.3321 H       1  UNL1        0.1497
     11 C           6.0492   -3.7344   23.3533 C.3     1  UNL1        0.0892
     12 C           7.2390   -3.7599   22.4401 C.3     1  UNL1        0.0383
     13 C           6.7379   -3.8078   21.0271 C.3     1  UNL1        0.0738
     14 N           5.2383   -3.8120   21.0670 N.3     1  UNL1       -0.2725
     15 C           4.8128   -3.7666   22.5047 C.3     1  UNL1        0.0919
     16 C           4.3248   -3.8541   19.8780 C.3     1  UNL1        0.0576
     17 C           4.3437   -5.0397   18.9593 C.3     1  UNL1        0.0173
     18 C           3.3924   -2.7106   19.6076 C.3     1  UNL1        0.0173
     19 O           6.9587   -4.5645   31.6136 O.3     1  UNL1       -0.4791
     20 N           6.0347   -0.7212   33.7643 N.3     1  UNL1       -0.2737
     21 C           4.9407   -1.7112   33.4943 C.3     1  UNL1        0.0758
     22 C           5.2487   -2.9923   32.7774 C.3     1  UNL1        0.0609
     23 C           6.6507   -3.2834   32.3305 C.3     1  UNL1        0.1687
     24 C           7.7447   -2.2933   32.6006 C.3     1  UNL1        0.0609
     25 C           7.4367   -1.0122   33.3174 C.3     1  UNL1        0.0758
     26 C           6.0760    1.8751   33.8502 C.3     1  UNL1        0.0173
     27 C           5.7268    0.5599   34.4812 C.3     1  UNL1        0.0576
     28 C           5.0695    0.5258   35.8291 C.3     1  UNL1        0.0173
@<TRIPOS>BOND
     1    26    27    1
     2    27    28    1
     3    27    20    1
     4    20    21    1
     5    21    22    1
     6    22    23    1
     7    23    19    1
     8    19     1    1
     9     1     2   ar
    10     2     3   ar
    11     3     4   ar
    12     4     7    1
    13     7     8    2
    14     7     9   am
    15     9    11    1
    16    11    12    1
    17    12    13    1
    18    13    14    1
    19    14    16    1
    20    16    17    1
    21    16    18    1
    22    14    15    1
    23     4     5   ar
    24     5     6   ar
    25    23    24    1
    26    24    25    1
    27    25    20    1
    28     6     1   ar
    29    15    11    1
    30     9    10    1
@<TRIPOS>MOLECULE
*****
 28 30 0 0 0
SMALL
GASTEIGER

@<TRIPOS>ATOM
      1 C           5.0472   -0.5627   34.9261 C.ar    1  UNL1        0.1384
      2 C           4.2318   -1.6528   34.2960 C.ar    1  UNL1        0.0370
      3 C           4.7960   -2.4480   33.1562 C.ar    1  UNL1        0.0076
      4 C           6.1756   -2.1533   32.6465 C.ar    1  UNL1        0.0536
      5 C           6.9910   -1.0634   33.2766 C.ar    1  UNL1        0.0076
      6 C           6.4269   -0.2681   34.4164 C.ar    1  UNL1        0.0370
      7 C           6.7398   -2.9487   31.5066 C.2     1  UNL1        0.2458
      8 O           7.5707   -2.2707   30.4578 O.2     1  UNL1       -0.2701
      9 N           6.4731   -4.4219   31.4156 N.am    1  UNL1       -0.3011
     10 H           5.9277   -4.8669   32.1039 H       1  UNL1        0.1497
     11 C           7.0373   -5.2172   30.2757 C.3     1  UNL1        0.0892
     12 C           8.1931   -6.1702   30.3525 C.3     1  UNL1        0.0383
     13 C           8.4149   -6.7411   28.9832 C.3     1  UNL1        0.0738
     14 N           7.3961   -6.1408   28.0602 N.3     1  UNL1       -0.2725
     15 C           6.5447   -5.1990   28.8591 C.3     1  UNL1        0.0919
     16 C           7.2537   -6.4314   26.5955 C.3     1  UNL1        0.0576
     17 C           7.3155   -7.8466   26.1022 C.3     1  UNL1        0.0173
     18 C           7.0495   -5.3068   25.6241 C.3     1  UNL1        0.0173
     19 O           4.4830    0.2325   36.0659 O.3     1  UNL1       -0.4791
     20 N           1.8895    3.8166   35.2425 N.3     1  UNL1       -0.2737
     21 C           2.2923    3.4898   36.6499 C.3     1  UNL1        0.0758
     22 C           3.1568    2.2951   36.9244 C.3     1  UNL1        0.0609
     23 C           3.6185    1.4272   35.7914 C.3     1  UNL1        0.1687
     24 C           3.2157    1.7540   34.3840 C.3     1  UNL1        0.0609
     25 C           2.3512    2.9487   34.1096 C.3     1  UNL1        0.0758
     26 C           0.4209    5.2035   33.6086 C.3     1  UNL1        0.0173
     27 C           1.0250    5.0113   34.9680 C.3     1  UNL1        0.0576
     28 C           0.7645    6.0137   36.0530 C.3     1  UNL1        0.0173
@<TRIPOS>BOND
     1    26    27    1
     2    27    28    1
     3    27    20    1
     4    20    21    1
     5    21    22    1
     6    22    23    1
     7    23    19    1
     8    19     1    1
     9     1     2   ar
    10     2     3   ar
    11     3     4   ar
    12     4     7    1
    13     7     8    2
    14     7     9   am
    15     9    11    1
    16    11    12    1
    17    12    13    1
    18    13    14    1
    19    14    16    1
    20    16    17    1
    21    16    18    1
    22    14    15    1
    23     4     5   ar
    24     5     6   ar
    25    23    24    1
    26    24    25    1
    27    25    20    1
    28     6     1   ar
    29    15    11    1
    30     9    10    1
@<TRIPOS>MOLECULE
*****
 28 30 0 0 0
SMALL
GASTEIGER

@<TRIPOS>ATOM
      1 C           1.9145    0.2238   18.9186 C.ar    1  UNL1        0.1384
      2 C           1.1726   -0.2698   20.1253 C.ar    1  UNL1        0.0370
      3 C           0.1185    0.5878   20.7605 C.ar    1  UNL1        0.0076
      4 C          -0.1936    1.9391   20.1891 C.ar    1  UNL1        0.0536
      5 C           0.5482    2.4328   18.9825 C.ar    1  UNL1        0.0076
      6 C           1.6023    1.5752   18.3472 C.ar    1  UNL1        0.0370
      7 C          -1.2477    2.7967   20.8243 C.2     1  UNL1        0.2458
      8 O          -0.8591    3.8465   21.8228 O.2     1  UNL1       -0.2701
      9 N          -2.6903    2.6046   20.4611 N.am    1  UNL1       -0.3011
     10 H          -2.9453    1.9155   19.8058 H       1  UNL1        0.1497
     11 C          -3.7442    3.4622   21.0964 C.3     1  UNL1        0.0892
     12 C          -4.2906    4.7441   20.5411 C.3     1  UNL1        0.0383
     13 C          -5.3210    5.2626   21.5000 C.3     1  UNL1        0.0738
     14 N          -5.4114    4.3012   22.6479 N.3     1  UNL1       -0.2725
     15 C          -4.4369    3.1885   22.3984 C.3     1  UNL1        0.0919
     16 C          -6.3173    4.4299   23.8365 C.3     1  UNL1        0.0576
     17 C          -5.7414    4.4334   25.2215 C.3     1  UNL1        0.0173
     18 C          -7.7991    4.5551   23.6401 C.3     1  UNL1        0.0173
     19 O           2.9685   -0.6338   18.2835 O.3     1  UNL1       -0.4791
     20 N           5.7842   -3.0172   20.8605 N.3     1  UNL1       -0.2737
     21 C           5.9544   -1.5319   20.7386 C.3     1  UNL1        0.0758
     22 C           5.0158   -0.7374   19.8796 C.3     1  UNL1        0.0609
     23 C           3.9071   -1.4282   19.1425 C.3     1  UNL1        0.1687
     24 C           3.7369   -2.9135   19.2643 C.3     1  UNL1        0.0609
     25 C           4.6755   -3.7080   20.1233 C.3     1  UNL1        0.0758
     26 C           7.9644   -4.4056   21.1232 C.3     1  UNL1        0.0173
     27 C           6.7228   -3.8117   21.7195 C.3     1  UNL1        0.0576
     28 C           6.4198   -4.0122   23.1748 C.3     1  UNL1        0.0173
@<TRIPOS>BOND
     1    26    27    1
     2    27    28    1
     3    27    20    1
     4    20    21    1
     5    21    22    1
     6    22    23    1
     7    23    19    1
     8    19     1    1
     9     1     2   ar
    10     2     3   ar
    11     3     4   ar
    12     4     7    1
    13     7     8    2
    14     7     9   am
    15     9    11    1
    16    11    12    1
    17    12    13    1
    18    13    14    1
    19    14    16    1
    20    16    17    1
    21    16    18    1
    22    14    15    1
    23     4     5   ar
    24     5     6   ar
    25    23    24    1
    26    24    25    1
    27    25    20    1
    28     6     1   ar
    29    15    11    1
    30     9    10    1
@<TRIPOS>MOLECULE
*****
 28 30 0 0 0
SMALL
GASTEIGER

@<TRIPOS>ATOM
      1 C           3.9257   -2.5260   21.2225 C.ar    1  UNL1        0.1384
      2 C           3.6546   -1.6007   22.3716 C.ar    1  UNL1        0.0370
      3 C           4.4063   -1.7639   23.6594 C.ar    1  UNL1        0.0076
      4 C           5.4290   -2.8524   23.7980 C.ar    1  UNL1        0.0536
      5 C           5.7001   -3.7777   22.6490 C.ar    1  UNL1        0.0076
      6 C           4.9484   -3.6145   21.3611 C.ar    1  UNL1        0.0370
      7 C           6.1807   -3.0156   25.0859 C.2     1  UNL1        0.2458
      8 O           6.8551   -1.8330   25.7157 O.2     1  UNL1       -0.2701
      9 N           6.2578   -4.3614   25.7439 N.am    1  UNL1       -0.3011
     10 H           5.8152   -5.1375   25.3305 H       1  UNL1        0.1497
     11 C           7.0095   -4.5245   27.0316 C.3     1  UNL1        0.0892
     12 C           8.4759   -4.8097   27.1666 C.3     1  UNL1        0.0383
     13 C           8.7994   -4.8926   28.6289 C.3     1  UNL1        0.0738
     14 N           7.5328   -4.6586   29.3978 N.3     1  UNL1       -0.2725
     15 C           6.4266   -4.4311   28.4106 C.3     1  UNL1        0.0919
     16 C           7.3964   -4.6530   30.8916 C.3     1  UNL1        0.0576
     17 C           7.1342   -5.9346   31.6255 C.3     1  UNL1        0.0173
     18 C           7.5223   -3.3659   31.6514 C.3     1  UNL1        0.0173
     19 O           3.1741   -2.3628   19.9347 O.3     1  UNL1       -0.4791
     20 N           1.6230    1.6868   18.7325 N.3     1  UNL1       -0.2737
     21 C           3.0096    1.2686   18.3423 C.3     1  UNL1        0.0758
     22 C           3.5267   -0.0812   18.7430 C.3     1  UNL1        0.0609
     23 C           2.6570   -1.0129   19.5340 C.3     1  UNL1        0.1687
     24 C           1.2704   -0.5947   19.9242 C.3     1  UNL1        0.0609
     25 C           0.7534    0.7551   19.5235 C.3     1  UNL1        0.0758
     26 C          -0.3152    3.1909   17.8774 C.3     1  UNL1        0.0173
     27 C           1.1060    3.0367   18.3318 C.3     1  UNL1        0.0576
     28 C           2.0101    4.2323   18.3854 C.3     1  UNL1        0.0173
@<TRIPOS>BOND
     1    26    27    1
     2    27    28    1
     3    27    20    1
     4    20    21    1
     5    21    22    1
     6    22    23    1
     7    23    19    1
     8    19     1    1
     9     1     2   ar
    10     2     3   ar
    11     3     4   ar
    12     4     7    1
    13     7     8    2
    14     7     9   am
    15     9    11    1
    16    11    12    1
    17    12    13    1
    18    13    14    1
    19    14    16    1
    20    16    17    1
    21    16    18    1
    22    14    15    1
    23     4     5   ar
    24     5     6   ar
    25    23    24    1
    26    24    25    1
    27    25    20    1
    28     6     1   ar
    29    15    11    1
    30     9    10    1
@<TRIPOS>MOLECULE
*****
 28 30 0 0 0
SMALL
GASTEIGER

@<TRIPOS>ATOM
      1 C           7.6037   -3.8764   25.7280 C.ar    1  UNL1        0.1384
      2 C           7.7883   -2.5254   26.3532 C.ar    1  UNL1        0.0370
      3 C           7.4108   -2.3051   27.7881 C.ar    1  UNL1        0.0076
      4 C           6.8486   -3.4358   28.5978 C.ar    1  UNL1        0.0536
      5 C           6.6640   -4.7867   27.9726 C.ar    1  UNL1        0.0076
      6 C           7.0415   -5.0071   26.5377 C.ar    1  UNL1        0.0370
      7 C           6.4711   -3.2154   30.0327 C.2     1  UNL1        0.2458
      8 O           6.6198   -4.3289   31.0268 O.2     1  UNL1       -0.2701
      9 N           5.9449   -1.8818   30.4735 N.am    1  UNL1       -0.3011
     10 H           5.8473   -1.1510   29.8211 H       1  UNL1        0.1497
     11 C           5.5674   -1.6615   31.9084 C.3     1  UNL1        0.0892
     12 C           4.3126   -2.1436   32.5740 C.3     1  UNL1        0.0383
     13 C           4.3481   -1.7005   34.0066 C.3     1  UNL1        0.0738
     14 N           5.6249   -0.9445   34.2264 N.3     1  UNL1       -0.2725
     15 C           6.3785   -0.9204   32.9297 C.3     1  UNL1        0.0919
     16 C           6.0700   -0.3219   35.5165 C.3     1  UNL1        0.0576
     17 C           7.5150    0.0231   35.7235 C.3     1  UNL1        0.0173
     18 C           5.0701   -0.0444   36.5996 C.3     1  UNL1        0.0173
     19 O           7.9812   -4.0967   24.2931 O.3     1  UNL1       -0.4791
     20 N           4.9229   -3.5052   21.0455 N.3     1  UNL1       -0.2737
     21 C           6.3510   -3.7919   20.6876 C.3     1  UNL1        0.0758
     22 C           7.3705   -3.9891   21.7701 C.3     1  UNL1        0.0609
     23 C           6.9618   -3.8995   23.2106 C.3     1  UNL1        0.1687
     24 C           5.5336   -3.6128   23.5685 C.3     1  UNL1        0.0609
     25 C           4.5142   -3.4156   22.4859 C.3     1  UNL1        0.0758
     26 C           3.3116   -1.9498   19.7284 C.3     1  UNL1        0.0173
     27 C           3.9034   -3.3080   19.9630 C.3     1  UNL1        0.0576
     28 C           3.4758   -4.4690   19.1150 C.3     1  UNL1        0.0173
@<TRIPOS>BOND
     1    26    27    1
     2    27    28    1
     3    27    20    1
     4    20    21    1
     5    21    22    1
     6    22    23    1
     7    23    19    1
     8    19     1    1
     9     1     2   ar
    10     2     3   ar
    11     3     4   ar
    12     4     7    1
    13     7     8    2
    14     7     9   am
    15     9    11    1
    16    11    12    1
    17    12    13    1
    18    13    14    1
    19    14    16    1
    20    16    17    1
    21    16    18    1
    22    14    15    1
    23     4     5   ar
    24     5     6   ar
    25    23    24    1
    26    24    25    1
    27    25    20    1
    28     6     1   ar
    29    15    11    1
    30     9    10    1
@<TRIPOS>MOLECULE
*****
 28 30 0 0 0
SMALL
GASTEIGER

@<TRIPOS>ATOM
      1 C           8.1804   -3.8112   31.4974 C.ar    1  UNL1        0.1384
      2 C           6.8005   -4.3405   31.7539 C.ar    1  UNL1        0.0370
      3 C           5.7968   -3.4965   32.4819 C.ar    1  UNL1        0.0076
      4 C           6.1729   -2.1231   32.9536 C.ar    1  UNL1        0.0536
      5 C           7.5528   -1.5938   32.6971 C.ar    1  UNL1        0.0076
      6 C           8.5566   -2.4379   31.9690 C.ar    1  UNL1        0.0370
      7 C           5.1692   -1.2791   33.6817 C.2     1  UNL1        0.2458
      8 O           3.7023   -1.4915   33.4509 O.2     1  UNL1       -0.2701
      9 N           5.6322   -0.2227   34.6406 N.am    1  UNL1       -0.3011
     10 H           6.5950   -0.0832   34.7921 H       1  UNL1        0.1497
     11 C           4.6285    0.6213   35.3686 C.3     1  UNL1        0.0892
     12 C           3.7831    1.7035   34.7651 C.3     1  UNL1        0.0383
     13 C           2.9260    2.2824   35.8515 C.3     1  UNL1        0.0738
     14 N           3.2416    1.5578   37.1265 N.3     1  UNL1       -0.2725
     15 C           4.2938    0.5313   36.8280 C.3     1  UNL1        0.0919
     16 C           2.6151    1.8148   38.4650 C.3     1  UNL1        0.0576
     17 C           2.9476    3.0670   39.2207 C.3     1  UNL1        0.0173
     18 C           1.6560    0.8195   39.0476 C.3     1  UNL1        0.0173
     19 O           9.1841   -4.6553   30.7693 O.3     1  UNL1       -0.4791
     20 N           8.4371   -5.8575   26.4977 N.3     1  UNL1       -0.2737
     21 C           8.0304   -4.4950   26.9755 C.3     1  UNL1        0.0758
     22 C           8.2794   -4.0943   28.3993 C.3     1  UNL1        0.0609
     23 C           8.9351   -5.0560   29.3454 C.3     1  UNL1        0.1687
     24 C           9.3418   -6.4185   28.8677 C.3     1  UNL1        0.0609
     25 C           9.0928   -6.8192   27.4438 C.3     1  UNL1        0.0758
     26 C           8.4663   -7.6640   24.6307 C.3     1  UNL1        0.0173
     27 C           8.1881   -6.2582   25.0738 C.3     1  UNL1        0.0576
     28 C           7.6609   -5.2532   24.0931 C.3     1  UNL1        0.0173
@<TRIPOS>BOND
     1    26    27    1
     2    27    28    1
     3    27    20    1
     4    20    21    1
     5    21    22    1
     6    22    23    1
     7    23    19    1
     8    19     1    1
     9     1     2   ar
    10     2     3   ar
    11     3     4   ar
    12     4     7    1
    13     7     8    2
    14     7     9   am
    15     9    11    1
    16    11    12    1
    17    12    13    1
    18    13    14    1
    19    14    16    1
    20    16    17    1
    21    16    18    1
    22    14    15    1
    23     4     5   ar
    24     5     6   ar
    25    23    24    1
    26    24    25    1
    27    25    20    1
    28     6     1   ar
    29    15    11    1
    30     9    10    1
@<TRIPOS>MOLECULE
*****
 28 30 0 0 0
SMALL
GASTEIGER

@<TRIPOS>ATOM
      1 C           4.5384   -0.0247   34.0045 C.ar    1  UNL1        0.1384
      2 C           5.6158    0.4785   33.0900 C.ar    1  UNL1        0.0370
      3 C           6.3785   -0.4841   32.2287 C.ar    1  UNL1        0.0076
      4 C           6.0639   -1.9497   32.2819 C.ar    1  UNL1        0.0536
      5 C           4.9866   -2.4529   33.1964 C.ar    1  UNL1        0.0076
      6 C           4.2238   -1.4903   34.0577 C.ar    1  UNL1        0.0370
      7 C           6.8266   -2.9123   31.4206 C.2     1  UNL1        0.2458
      8 O           7.9084   -2.4099   30.5111 O.2     1  UNL1       -0.2701
      9 N           6.5075   -4.3771   31.4689 N.am    1  UNL1       -0.3011
     10 H           5.7975   -4.7069   32.0658 H       1  UNL1        0.1497
     11 C           7.2703   -5.3396   30.6076 C.3     1  UNL1        0.0892
     12 C           8.5311   -6.0566   30.9899 C.3     1  UNL1        0.0383
     13 C           8.9462   -6.9142   29.8313 C.3     1  UNL1        0.0738
     14 N           7.9418   -6.7272   28.7330 N.3     1  UNL1       -0.2725
     15 C           6.9061   -5.7540   29.2127 C.3     1  UNL1        0.0919
     16 C           7.9686   -7.3959   27.3905 C.3     1  UNL1        0.0576
     17 C           7.3344   -6.7275   26.2069 C.3     1  UNL1        0.0173
     18 C           8.6295   -8.7330   27.2317 C.3     1  UNL1        0.0173
     19 O           3.7758    0.9379   34.8658 O.3     1  UNL1       -0.4791
     20 N           0.9504    3.8908   32.9823 N.3     1  UNL1       -0.2737
     21 C           1.5282    4.1660   34.3389 C.3     1  UNL1        0.0758
     22 C           2.4700    3.1817   34.9667 C.3     1  UNL1        0.0609
     23 C           2.8340    1.9222   34.2379 C.3     1  UNL1        0.1687
     24 C           2.2561    1.6470   32.8814 C.3     1  UNL1        0.0609
     25 C           1.3143    2.6313   32.2535 C.3     1  UNL1        0.0758
     26 C          -1.1075    5.4663   33.1637 C.3     1  UNL1        0.0173
     27 C           0.0086    4.8751   32.3545 C.3     1  UNL1        0.0576
     28 C           0.1828    5.2681   30.9175 C.3     1  UNL1        0.0173
@<TRIPOS>BOND
     1    26    27    1
     2    27    28    1
     3    27    20    1
     4    20    21    1
     5    21    22    1
     6    22    23    1
     7    23    19    1
     8    19     1    1
     9     1     2   ar
    10     2     3   ar
    11     3     4   ar
    12     4     7    1
    13     7     8    2
    14     7     9   am
    15     9    11    1
    16    11    12    1
    17    12    13    1
    18    13    14    1
    19    14    16    1
    20    16    17    1
    21    16    18    1
    22    14    15    1
    23     4     5   ar
    24     5     6   ar
    25    23    24    1
    26    24    25    1
    27    25    20    1
    28     6     1   ar
    29    15    11    1
    30     9    10    1
@<TRIPOS>MOLECULE
*****
 28 30 0 0 0
SMALL
GASTEIGER

@<TRIPOS>ATOM
      1 C          -0.5605    3.5010   25.6022 C.ar    1  UNL1        0.1384
      2 C          -0.2936    2.0328   25.7547 C.ar    1  UNL1        0.0370
      3 C           0.1780    1.2301   24.5787 C.ar    1  UNL1        0.0076
      4 C           0.3828    1.8955   23.2500 C.ar    1  UNL1        0.0536
      5 C           0.1160    3.3636   23.0974 C.ar    1  UNL1        0.0076
      6 C          -0.3557    4.1664   24.2735 C.ar    1  UNL1        0.0370
      7 C           0.8545    1.0927   22.0739 C.2     1  UNL1        0.2458
      8 O          -0.1395    0.5414   21.0951 O.2     1  UNL1       -0.2701
      9 N           2.3200    0.8413   21.8767 N.am    1  UNL1       -0.3011
     10 H           2.9724    1.2031   22.5192 H       1  UNL1        0.1497
     11 C           2.7916    0.0385   20.7007 C.3     1  UNL1        0.0892
     12 C           2.8581    0.5127   19.2791 C.3     1  UNL1        0.0383
     13 C           3.3871   -0.6121   18.4395 C.3     1  UNL1        0.0738
     14 N           3.6476   -1.7815   19.3422 N.3     1  UNL1       -0.2725
     15 C           3.2795   -1.3794   20.7397 C.3     1  UNL1        0.0919
     16 C           4.1822   -3.1183   18.9213 C.3     1  UNL1        0.0576
     17 C           3.3499   -4.3520   19.1094 C.3     1  UNL1        0.0173
     18 C           5.5491   -3.2215   18.3124 C.3     1  UNL1        0.0173
     19 O          -1.0321    4.3037   26.7782 O.3     1  UNL1       -0.4791
     20 N          -5.3113    5.6794   26.9929 N.3     1  UNL1       -0.2737
     21 C          -4.2243    6.5117   27.6057 C.3     1  UNL1        0.0758
     22 C          -2.7979    6.0531   27.5342 C.3     1  UNL1        0.0609
     23 C          -2.4585    4.7623   26.8498 C.3     1  UNL1        0.1687
     24 C          -3.5455    3.9300   26.2369 C.3     1  UNL1        0.0609
     25 C          -4.9719    4.3886   26.3085 C.3     1  UNL1        0.0758
     26 C          -7.5243    6.3414   25.8035 C.3     1  UNL1        0.0173
     27 C          -6.7377    6.1380   27.0644 C.3     1  UNL1        0.0576
     28 C          -7.3775    6.3933   28.3969 C.3     1  UNL1        0.0173
@<TRIPOS>BOND
     1    26    27    1
     2    27    28    1
     3    27    20    1
     4    20    21    1
     5    21    22    1
     6    22    23    1
     7    23    19    1
     8    19     1    1
     9     1     2   ar
    10     2     3   ar
    11     3     4   ar
    12     4     7    1
    13     7     8    2
    14     7     9   am
    15     9    11    1
    16    11    12    1
    17    12    13    1
    18    13    14    1
    19    14    16    1
    20    16    17    1
    21    16    18    1
    22    14    15    1
    23     4     5   ar
    24     5     6   ar
    25    23    24    1
    26    24    25    1
    27    25    20    1
    28     6     1   ar
    29    15    11    1
    30     9    10    1
@<TRIPOS>MOLECULE
*****
 28 30 0 0 0
SMALL
GASTEIGER

@<TRIPOS>ATOM
      1 C           1.3197    0.2566   28.7249 C.ar    1  UNL1        0.1384
      2 C          -0.1506    0.0197   28.9045 C.ar    1  UNL1        0.0370
      3 C          -1.1430    0.8968   28.2006 C.ar    1  UNL1        0.0076
      4 C          -0.6653    2.0109   27.3170 C.ar    1  UNL1        0.0536
      5 C           0.8049    2.2478   27.1374 C.ar    1  UNL1        0.0076
      6 C           1.7975    1.3707   27.8414 C.ar    1  UNL1        0.0370
      7 C          -1.6579    2.8880   26.6131 C.2     1  UNL1        0.2458
      8 O          -1.2710    3.5915   25.3460 O.2     1  UNL1       -0.2701
      9 N          -3.0373    3.0616   27.1761 N.am    1  UNL1       -0.3011
     10 H          -3.2912    2.5999   28.0077 H       1  UNL1        0.1497
     11 C          -4.0298    3.9387   26.4722 C.3     1  UNL1        0.0892
     12 C          -4.4582    5.3094   26.9053 C.3     1  UNL1        0.0383
     13 C          -5.4614    5.8170   25.9123 C.3     1  UNL1        0.0738
     14 N          -5.6529    4.7599   24.8654 N.3     1  UNL1       -0.2725
     15 C          -4.7681    3.5991   25.2114 C.3     1  UNL1        0.0919
     16 C          -6.5684    4.8482   23.6804 C.3     1  UNL1        0.0576
     17 C          -5.9986    5.0202   22.3036 C.3     1  UNL1        0.0173
     18 C          -8.0537    4.7645   23.8724 C.3     1  UNL1        0.0173
     19 O           2.3122   -0.6205   29.4289 O.3     1  UNL1       -0.4791
     20 N           3.6696    0.4101   33.5937 N.3     1  UNL1       -0.2737
     21 C           2.7892    1.3588   32.8355 C.3     1  UNL1        0.0758
     22 C           2.3368    1.0153   31.4472 C.3     1  UNL1        0.0609
     23 C           2.7647   -0.2770   30.8172 C.3     1  UNL1        0.1687
     24 C           3.6450   -1.2257   31.5754 C.3     1  UNL1        0.0609
     25 C           4.0974   -0.8821   32.9636 C.3     1  UNL1        0.0758
     26 C           4.9696   -0.2126   35.7552 C.3     1  UNL1        0.0173
     27 C           4.1220    0.7536   34.9820 C.3     1  UNL1        0.0576
     28 C           3.7268    2.0634   35.5970 C.3     1  UNL1        0.0173
@<TRIPOS>BOND
     1    26    27    1
     2    27    28    1
     3    27    20    1
     4    20    21    1
     5    21    22    1
     6    22    23    1
     7    23    19    1
     8    19     1    1
     9     1     2   ar
    10     2     3   ar
    11     3     4   ar
    12     4     7    1
    13     7     8    2
    14     7     9   am
    15     9    11    1
    16    11    12    1
    17    12    13    1
    18    13    14    1
    19    14    16    1
    20    16    17    1
    21    16    18    1
    22    14    15    1
    23     4     5   ar
    24     5     6   ar
    25    23    24    1
    26    24    25    1
    27    25    20    1
    28     6     1   ar
    29    15    11    1
    30     9    10    1
