@<TRIPOS>MOLECULE
*****
 27 29 0 0 0
SMALL
GASTEIGER

@<TRIPOS>ATOM
      1 N         -11.5951  -18.9617   22.2065 N.3     1  UNL1       -0.2972
      2 H         -12.3134  -18.5490   21.6114 H       1  UNL1        0.1233
      3 C         -10.1654  -18.8348   23.7684 C.3     1  UNL1        0.0161
      4 C         -11.0418  -17.8519   23.0503 C.3     1  UNL1        0.0462
      5 C         -11.9181  -16.8688   22.3322 C.3     1  UNL1        0.0161
      6 C         -10.4883  -16.7420   23.8942 C.3     1  UNL1        0.0424
      7 C          -9.0660  -16.3008   23.7143 C.2     1  UNL1       -0.0006
      8 C          -8.3682  -16.0872   22.4038 C.2     1  UNL1        0.0942
      9 N          -6.9628  -15.6500   22.6930 N.2     1  UNL1       -0.2482
     10 C          -6.7920  -15.5934   24.1821 C.2     1  UNL1        0.0631
     11 C          -5.6207  -15.2277   25.0449 C.3     1  UNL1        0.0717
     12 C          -5.7494  -15.2641   26.5389 C.2     1  UNL1       -0.0198
     13 C          -7.0493  -15.6663   27.1701 C.2     1  UNL1       -0.0042
     14 C          -8.2205  -16.0320   26.3074 C.2     1  UNL1        0.0006
     15 C          -8.0919  -15.9956   24.8134 C.2     1  UNL1        0.0114
     16 C         -10.6855  -19.7453   21.3073 C.3     1  UNL1        0.1020
     17 C          -9.8132  -19.0321   20.3171 C.3     1  UNL1        0.1697
     18 O         -10.3951  -17.9673   19.4352 O.3     1  UNL1       -0.3793
     19 H         -11.3394  -17.8651   19.6318 H       1  UNL1        0.2106
     20 C          -8.3590  -19.3837   20.2088 C.3     1  UNL1        0.2358
     21 O          -7.5536  -19.6343   21.4492 O.3     1  UNL1       -0.4728
     22 C          -6.0558  -19.6725   21.3759 C.ar    1  UNL1        0.1387
     23 C          -5.3774  -20.4887   20.3160 C.ar    1  UNL1        0.0369
     24 C          -3.8797  -20.5269   20.2427 C.ar    1  UNL1        0.0031
     25 C          -3.0604  -19.7490   21.2294 C.ar    1  UNL1        0.0002
     26 C          -3.7389  -18.9328   22.2894 C.ar    1  UNL1        0.0031
     27 C          -5.2366  -18.8945   22.3626 C.ar    1  UNL1        0.0369
@<TRIPOS>BOND
     1     3     4    1
     2     4     5    1
     3     4     6    1
     4     6     7    1
     5     7     8    2
     6     8     9    1
     7     9    10    2
     8    10    11    1
     9    11    12    1
    10    12    13    2
    11    13    14    1
    12    14    15    2
    13     4     1    1
    14     1    16    1
    15    16    17    1
    16    17    18    1
    17    17    20    1
    18    20    21    1
    19    21    22    1
    20    22    23   ar
    21    23    24   ar
    22    24    25   ar
    23    25    26   ar
    24    26    27   ar
    25    15     7    1
    26    27    22   ar
    27    15    10    1
    28     1     2    1
    29    18    19    1
@<TRIPOS>MOLECULE
*****
 27 29 0 0 0
SMALL
GASTEIGER

@<TRIPOS>ATOM
      1 N          -6.6217  -14.8530   24.8909 N.3     1  UNL1       -0.2972
      2 H          -6.5578  -14.4941   25.8436 H       1  UNL1        0.1233
      3 C          -8.2058  -15.4131   26.1858 C.3     1  UNL1        0.0161
      4 C          -8.0336  -15.3216   24.6986 C.3     1  UNL1        0.0462
      5 C          -7.8615  -15.2301   23.2113 C.3     1  UNL1        0.0161
      6 C          -9.4456  -15.7902   24.5064 C.3     1  UNL1        0.0424
      7 C          -9.7293  -17.2470   24.2888 C.2     1  UNL1       -0.0006
      8 C          -9.6384  -18.3273   25.3254 C.2     1  UNL1        0.0942
      9 N         -10.0066  -19.6271   24.6737 N.2     1  UNL1       -0.2482
     10 C         -10.3251  -19.3502   23.2343 C.2     1  UNL1        0.0631
     11 C         -10.7489  -20.2474   22.1094 C.3     1  UNL1        0.0717
     12 C         -11.0014  -19.6736   20.7468 C.2     1  UNL1       -0.0198
     13 C         -10.8300  -18.2025   20.5089 C.2     1  UNL1       -0.0042
     14 C         -10.4061  -17.3053   21.6337 C.2     1  UNL1        0.0006
     15 C         -10.1536  -17.8791   22.9964 C.2     1  UNL1        0.0114
     16 C          -5.4823  -15.8119   24.7120 C.3     1  UNL1        0.1020
     17 C          -4.5822  -15.6928   23.5181 C.3     1  UNL1        0.1697
     18 O          -4.5879  -14.4376   22.6968 O.3     1  UNL1       -0.3793
     19 H          -5.2248  -13.8091   23.0713 H       1  UNL1        0.2106
     20 C          -3.6764  -16.8288   23.1453 C.3     1  UNL1        0.2358
     21 O          -4.1245  -18.2450   23.3542 O.3     1  UNL1       -0.4728
     22 C          -4.9253  -18.9423   22.2948 C.ar    1  UNL1        0.1387
     23 C          -6.4123  -18.7546   22.2335 C.ar    1  UNL1        0.0369
     24 C          -7.2131  -19.4520   21.1741 C.ar    1  UNL1        0.0031
     25 C          -6.5271  -20.3370   20.1761 C.ar    1  UNL1        0.0002
     26 C          -5.0401  -20.5246   20.2374 C.ar    1  UNL1        0.0031
     27 C          -4.2393  -19.8273   21.2968 C.ar    1  UNL1        0.0369
@<TRIPOS>BOND
     1     3     4    1
     2     4     5    1
     3     4     6    1
     4     6     7    1
     5     7     8    2
     6     8     9    1
     7     9    10    2
     8    10    11    1
     9    11    12    1
    10    12    13    2
    11    13    14    1
    12    14    15    2
    13     4     1    1
    14     1    16    1
    15    16    17    1
    16    17    18    1
    17    17    20    1
    18    20    21    1
    19    21    22    1
    20    22    23   ar
    21    23    24   ar
    22    24    25   ar
    23    25    26   ar
    24    26    27   ar
    25    15     7    1
    26    27    22   ar
    27    15    10    1
    28     1     2    1
    29    18    19    1
@<TRIPOS>MOLECULE
*****
 27 29 0 0 0
SMALL
GASTEIGER

@<TRIPOS>ATOM
      1 N          -8.3812  -19.2229   22.1849 N.3     1  UNL1       -0.2972
      2 H          -8.9978  -19.2759   21.3741 H       1  UNL1        0.1233
      3 C          -6.9743  -20.7424   22.6451 C.3     1  UNL1        0.0161
      4 C          -7.0040  -19.5739   21.7051 C.3     1  UNL1        0.0462
      5 C          -7.0336  -18.4054   20.7650 C.3     1  UNL1        0.0161
      6 C          -5.6267  -19.9250   21.2253 C.3     1  UNL1        0.0424
      7 C          -4.4514  -19.0931   21.6456 C.2     1  UNL1       -0.0006
      8 C          -4.1749  -18.5951   23.0332 C.2     1  UNL1        0.0942
      9 N          -2.8989  -17.8074   22.9972 N.2     1  UNL1       -0.2482
     10 C          -2.3867  -17.8187   21.5874 C.2     1  UNL1        0.0631
     11 C          -1.1707  -17.2080   20.9563 C.3     1  UNL1        0.0717
     12 C          -0.9142  -17.3920   19.4900 C.2     1  UNL1       -0.0198
     13 C          -1.8737  -18.1866   18.6546 C.2     1  UNL1       -0.0042
     14 C          -3.0898  -18.7973   19.2857 C.2     1  UNL1        0.0006
     15 C          -3.3463  -18.6133   20.7520 C.2     1  UNL1        0.0114
     16 C          -9.0252  -20.0309   23.2723 C.3     1  UNL1        0.1020
     17 C          -9.8040  -19.3449   24.3553 C.3     1  UNL1        0.1697
     18 O         -10.2165  -20.1066   25.5799 O.3     1  UNL1       -0.3793
     19 H          -9.9024  -21.0218   25.5124 H       1  UNL1        0.2106
     20 C         -10.1701  -17.8972   24.2137 C.3     1  UNL1        0.2358
     21 O          -9.1913  -16.9310   23.6151 O.3     1  UNL1       -0.4728
     22 C          -8.0870  -16.3637   24.4570 C.ar    1  UNL1        0.1387
     23 C          -8.3168  -16.0973   25.9151 C.ar    1  UNL1        0.0369
     24 C          -7.2125  -15.5300   26.7570 C.ar    1  UNL1        0.0031
     25 C          -5.8784  -15.2292   26.1407 C.ar    1  UNL1        0.0002
     26 C          -5.6487  -15.4957   24.6826 C.ar    1  UNL1        0.0031
     27 C          -6.7529  -16.0630   23.8407 C.ar    1  UNL1        0.0369
@<TRIPOS>BOND
     1     3     4    1
     2     4     5    1
     3     4     6    1
     4     6     7    1
     5     7     8    2
     6     8     9    1
     7     9    10    2
     8    10    11    1
     9    11    12    1
    10    12    13    2
    11    13    14    1
    12    14    15    2
    13     4     1    1
    14     1    16    1
    15    16    17    1
    16    17    18    1
    17    17    20    1
    18    20    21    1
    19    21    22    1
    20    22    23   ar
    21    23    24   ar
    22    24    25   ar
    23    25    26   ar
    24    26    27   ar
    25    15     7    1
    26    27    22   ar
    27    15    10    1
    28     1     2    1
    29    18    19    1
@<TRIPOS>MOLECULE
*****
 27 29 0 0 0
SMALL
GASTEIGER

@<TRIPOS>ATOM
      1 N          -6.5658  -14.7505   25.0480 N.3     1  UNL1       -0.2972
      2 H          -6.5623  -14.2013   25.9075 H       1  UNL1        0.1233
      3 C          -8.1509  -15.3216   26.3368 C.3     1  UNL1        0.0161
      4 C          -7.9710  -15.2362   24.8501 C.3     1  UNL1        0.0462
      5 C          -7.7913  -15.1508   23.3634 C.3     1  UNL1        0.0161
      6 C          -9.3764  -15.7219   24.6523 C.3     1  UNL1        0.0424
      7 C          -9.6471  -17.1882   24.4885 C.2     1  UNL1       -0.0006
      8 C          -9.5104  -18.2345   25.5547 C.2     1  UNL1        0.0942
      9 N          -9.8808  -19.5585   24.9549 N.2     1  UNL1       -0.2482
     10 C         -10.2465  -19.3305   23.5181 C.2     1  UNL1        0.0631
     11 C         -10.6923  -20.2676   22.4350 C.3     1  UNL1        0.0717
     12 C         -10.9937  -19.7397   21.0638 C.2     1  UNL1       -0.0198
     13 C         -10.8493  -18.2748   20.7755 C.2     1  UNL1       -0.0042
     14 C         -10.4035  -17.3377   21.8586 C.2     1  UNL1        0.0006
     15 C         -10.1021  -17.8656   23.2299 C.2     1  UNL1        0.0114
     16 C          -5.4403  -15.7358   25.1593 C.3     1  UNL1        0.1020
     17 C          -4.6797  -16.1472   23.9337 C.3     1  UNL1        0.1697
     18 O          -4.3469  -15.1314   22.8814 O.3     1  UNL1       -0.3793
     19 H          -4.6934  -14.2652   23.1470 H       1  UNL1        0.2106
     20 C          -4.2519  -17.5744   23.7603 C.3     1  UNL1        0.2358
     21 O          -2.8880  -17.8884   23.2208 O.3     1  UNL1       -0.4728
     22 C          -2.6852  -18.0520   21.7436 C.ar    1  UNL1        0.1387
     23 C          -1.7432  -17.1435   21.0107 C.ar    1  UNL1        0.0369
     24 C          -1.5404  -17.3071   19.5335 C.ar    1  UNL1        0.0031
     25 C          -2.2796  -18.3793   18.7892 C.ar    1  UNL1        0.0002
     26 C          -3.2216  -19.2879   19.5221 C.ar    1  UNL1        0.0031
     27 C          -3.4244  -19.1242   20.9993 C.ar    1  UNL1        0.0369
@<TRIPOS>BOND
     1     3     4    1
     2     4     5    1
     3     4     6    1
     4     6     7    1
     5     7     8    2
     6     8     9    1
     7     9    10    2
     8    10    11    1
     9    11    12    1
    10    12    13    2
    11    13    14    1
    12    14    15    2
    13     4     1    1
    14     1    16    1
    15    16    17    1
    16    17    18    1
    17    17    20    1
    18    20    21    1
    19    21    22    1
    20    22    23   ar
    21    23    24   ar
    22    24    25   ar
    23    25    26   ar
    24    26    27   ar
    25    15     7    1
    26    27    22   ar
    27    15    10    1
    28     1     2    1
    29    18    19    1
@<TRIPOS>MOLECULE
*****
 27 29 0 0 0
SMALL
GASTEIGER

@<TRIPOS>ATOM
      1 N          -6.2805  -14.6368   24.4566 N.3     1  UNL1       -0.2972
      2 H          -6.0354  -13.8234   23.8920 H       1  UNL1        0.1233
      3 C          -4.7515  -14.9774   23.0263 C.3     1  UNL1        0.0161
      4 C          -5.1479  -15.6115   24.3266 C.3     1  UNL1        0.0462
      5 C          -5.5441  -16.2456   25.6268 C.3     1  UNL1        0.0161
      6 C          -4.0151  -16.5862   24.1964 C.3     1  UNL1        0.0424
      7 C          -3.9637  -17.5247   23.0273 C.2     1  UNL1       -0.0006
      8 C          -4.9090  -18.6596   22.7656 C.2     1  UNL1        0.0942
      9 N          -4.4875  -19.3292   21.4913 N.2     1  UNL1       -0.2482
     10 C          -3.2819  -18.6082   20.9654 C.2     1  UNL1        0.0631
     11 C          -2.4370  -18.8232   19.7448 C.3     1  UNL1        0.0717
     12 C          -1.2684  -17.9228   19.4736 C.2     1  UNL1       -0.0198
     13 C          -0.9447  -16.8075   20.4229 C.2     1  UNL1       -0.0042
     14 C          -1.7895  -16.5925   21.6435 C.2     1  UNL1        0.0006
     15 C          -2.9581  -17.4929   21.9148 C.2     1  UNL1        0.0114
     16 C          -7.6679  -15.0410   24.0542 C.3     1  UNL1        0.1020
     17 C          -7.9215  -15.5849   22.6795 C.3     1  UNL1        0.1697
     18 O          -8.0228  -14.6509   21.5102 O.3     1  UNL1       -0.3793
     19 H          -7.9018  -13.7378   21.8144 H       1  UNL1        0.2106
     20 C          -8.0738  -17.0630   22.4741 C.3     1  UNL1        0.2358
     21 O          -8.8387  -17.8837   23.4697 O.3     1  UNL1       -0.4728
     22 C         -10.3386  -17.8838   23.4473 C.ar    1  UNL1        0.1387
     23 C         -11.1045  -18.6039   24.5172 C.ar    1  UNL1        0.0369
     24 C         -12.6044  -18.6040   24.4948 C.ar    1  UNL1        0.0031
     25 C         -13.3382  -17.8840   23.4025 C.ar    1  UNL1        0.0002
     26 C         -12.5722  -17.1639   22.3326 C.ar    1  UNL1        0.0031
     27 C         -11.0724  -17.1638   22.3550 C.ar    1  UNL1        0.0369
@<TRIPOS>BOND
     1     3     4    1
     2     4     5    1
     3     4     6    1
     4     6     7    1
     5     7     8    2
     6     8     9    1
     7     9    10    2
     8    10    11    1
     9    11    12    1
    10    12    13    2
    11    13    14    1
    12    14    15    2
    13     4     1    1
    14     1    16    1
    15    16    17    1
    16    17    18    1
    17    17    20    1
    18    20    21    1
    19    21    22    1
    20    22    23   ar
    21    23    24   ar
    22    24    25   ar
    23    25    26   ar
    24    26    27   ar
    25    15     7    1
    26    27    22   ar
    27    15    10    1
    28     1     2    1
    29    18    19    1
@<TRIPOS>MOLECULE
*****
 27 29 0 0 0
SMALL
GASTEIGER

@<TRIPOS>ATOM
      1 N          -4.8390  -15.1694   23.4424 N.3     1  UNL1       -0.2972
      2 H          -5.0854  -14.9995   22.4673 H       1  UNL1        0.1233
      3 C          -3.2892  -15.9797   22.2419 C.3     1  UNL1        0.0161
      4 C          -4.0242  -16.4285   23.4700 C.3     1  UNL1        0.0462
      5 C          -4.7592  -16.8773   24.6981 C.3     1  UNL1        0.0161
      6 C          -3.2093  -17.6876   23.4975 C.3     1  UNL1        0.0424
      7 C          -3.3717  -18.7100   22.4121 C.2     1  UNL1       -0.0006
      8 C          -2.2629  -19.4529   21.7274 C.2     1  UNL1        0.0942
      9 N          -2.8775  -20.3710   20.7129 N.2     1  UNL1       -0.2482
     10 C          -4.3661  -20.1956   20.7705 C.2     1  UNL1        0.0631
     11 C          -5.4829  -20.8380   20.0024 C.3     1  UNL1        0.0717
     12 C          -6.9051  -20.4539   20.2844 C.2     1  UNL1       -0.0198
     13 C          -7.2106  -19.4273   21.3346 C.2     1  UNL1       -0.0042
     14 C          -6.0938  -18.7849   22.1027 C.2     1  UNL1        0.0006
     15 C          -4.6716  -19.1691   21.8207 C.2     1  UNL1        0.0114
     16 C          -6.1113  -15.0819   24.2320 C.3     1  UNL1        0.1020
     17 C          -7.4325  -15.2798   23.5499 C.3     1  UNL1        0.1697
     18 O          -7.6612  -14.7143   22.1795 O.3     1  UNL1       -0.3793
     19 H          -6.8608  -14.2540   21.8820 H       1  UNL1        0.2106
     20 C          -8.5250  -16.0433   24.2381 C.3     1  UNL1        0.2358
     21 O          -8.9610  -17.3751   23.7033 O.3     1  UNL1       -0.4728
     22 C         -10.2512  -17.4940   22.9475 C.ar    1  UNL1        0.1387
     23 C         -11.5218  -17.8125   23.6783 C.ar    1  UNL1        0.0369
     24 C         -12.8121  -17.9314   22.9226 C.ar    1  UNL1        0.0031
     25 C         -12.8317  -17.7318   21.4360 C.ar    1  UNL1        0.0002
     26 C         -11.5610  -17.4133   20.7053 C.ar    1  UNL1        0.0031
     27 C         -10.2708  -17.2944   21.4610 C.ar    1  UNL1        0.0369
@<TRIPOS>BOND
     1     3     4    1
     2     4     5    1
     3     4     6    1
     4     6     7    1
     5     7     8    2
     6     8     9    1
     7     9    10    2
     8    10    11    1
     9    11    12    1
    10    12    13    2
    11    13    14    1
    12    14    15    2
    13     4     1    1
    14     1    16    1
    15    16    17    1
    16    17    18    1
    17    17    20    1
    18    20    21    1
    19    21    22    1
    20    22    23   ar
    21    23    24   ar
    22    24    25   ar
    23    25    26   ar
    24    26    27   ar
    25    15     7    1
    26    27    22   ar
    27    15    10    1
    28     1     2    1
    29    18    19    1
@<TRIPOS>MOLECULE
*****
 27 29 0 0 0
SMALL
GASTEIGER

@<TRIPOS>ATOM
      1 N          -5.7259  -16.3075   23.5682 N.3     1  UNL1       -0.2972
      2 H          -6.1017  -15.8771   22.7232 H       1  UNL1        0.1233
      3 C          -3.9957  -17.4429   24.0338 C.3     1  UNL1        0.0161
      4 C          -5.2043  -17.6568   23.1716 C.3     1  UNL1        0.0462
      5 C          -6.4130  -17.8707   22.3094 C.3     1  UNL1        0.0161
      6 C          -4.6826  -19.0061   22.7750 C.3     1  UNL1        0.0424
      7 C          -4.0573  -19.2016   21.4256 C.2     1  UNL1       -0.0006
      8 C          -4.4713  -20.2154   20.4006 C.2     1  UNL1        0.0942
      9 N          -3.5781  -20.0578   19.2059 N.2     1  UNL1       -0.2482
     10 C          -2.6121  -18.9467   19.4925 C.2     1  UNL1        0.0631
     11 C          -1.5011  -18.3484   18.6816 C.3     1  UNL1        0.0717
     12 C          -0.6863  -17.2209   19.2426 C.2     1  UNL1       -0.0198
     13 C          -0.9825  -16.6917   20.6145 C.2     1  UNL1       -0.0042
     14 C          -2.0935  -17.2900   21.4255 C.2     1  UNL1        0.0006
     15 C          -2.9083  -18.4174   20.8645 C.2     1  UNL1        0.0114
     16 C          -6.7881  -16.1938   24.6212 C.3     1  UNL1        0.1020
     17 C          -7.9911  -15.3302   24.3827 C.3     1  UNL1        0.1697
     18 O          -7.8180  -13.8770   24.0539 O.3     1  UNL1       -0.3793
     19 H          -6.8727  -13.6601   24.0352 H       1  UNL1        0.2106
     20 C          -9.3674  -15.9199   24.4731 C.3     1  UNL1        0.2358
     21 O          -9.5490  -17.4085   24.4433 O.3     1  UNL1       -0.4728
     22 C         -10.0403  -18.0794   23.1949 C.ar    1  UNL1        0.1387
     23 C         -10.1067  -17.3122   21.9076 C.ar    1  UNL1        0.0369
     24 C         -10.5980  -17.9831   20.6592 C.ar    1  UNL1        0.0031
     25 C         -11.0228  -19.4212   20.6980 C.ar    1  UNL1        0.0002
     26 C         -10.9563  -20.1884   21.9852 C.ar    1  UNL1        0.0031
     27 C         -10.4650  -19.5175   23.2337 C.ar    1  UNL1        0.0369
@<TRIPOS>BOND
     1     3     4    1
     2     4     5    1
     3     4     6    1
     4     6     7    1
     5     7     8    2
     6     8     9    1
     7     9    10    2
     8    10    11    1
     9    11    12    1
    10    12    13    2
    11    13    14    1
    12    14    15    2
    13     4     1    1
    14     1    16    1
    15    16    17    1
    16    17    18    1
    17    17    20    1
    18    20    21    1
    19    21    22    1
    20    22    23   ar
    21    23    24   ar
    22    24    25   ar
    23    25    26   ar
    24    26    27   ar
    25    15     7    1
    26    27    22   ar
    27    15    10    1
    28     1     2    1
    29    18    19    1
@<TRIPOS>MOLECULE
*****
 27 29 0 0 0
SMALL
GASTEIGER

@<TRIPOS>ATOM
      1 N          -5.7247  -15.1747   25.0776 N.3     1  UNL1       -0.2972
      2 H          -6.4255  -15.0870   24.3418 H       1  UNL1        0.1233
      3 C          -4.6770  -15.5125   23.2643 C.3     1  UNL1        0.0161
      4 C          -4.7235  -16.1862   24.6037 C.3     1  UNL1        0.0462
      5 C          -4.7700  -16.8599   25.9430 C.3     1  UNL1        0.0161
      6 C          -3.7223  -17.1977   24.1297 C.3     1  UNL1        0.0424
      7 C          -3.9561  -17.9406   22.8477 C.2     1  UNL1       -0.0006
      8 C          -5.1009  -18.8666   22.5615 C.2     1  UNL1        0.0942
      9 N          -4.9384  -19.3862   21.1638 N.2     1  UNL1       -0.2482
     10 C          -3.6932  -18.7813   20.5861 C.2     1  UNL1        0.0631
     11 C          -3.0338  -18.9287   19.2470 C.3     1  UNL1        0.0717
     12 C          -1.7672  -18.1826   18.9486 C.2     1  UNL1       -0.0198
     13 C          -1.1601  -17.2891   19.9894 C.2     1  UNL1       -0.0042
     14 C          -1.8195  -17.1418   21.3285 C.2     1  UNL1        0.0006
     15 C          -3.0861  -17.8879   21.6269 C.2     1  UNL1        0.0114
     16 C          -6.4692  -15.4003   26.3601 C.3     1  UNL1        0.1020
     17 C          -7.9620  -15.2579   26.3956 C.3     1  UNL1        0.1697
     18 O          -8.6374  -14.7473   27.6338 O.3     1  UNL1       -0.3793
     19 H          -7.9698  -14.5577   28.3115 H       1  UNL1        0.2106
     20 C          -8.7794  -15.6262   25.1930 C.3     1  UNL1        0.2358
     21 O          -8.2372  -16.5970   24.1863 O.3     1  UNL1       -0.4728
     22 C          -9.0626  -17.7746   23.7599 C.ar    1  UNL1        0.1387
     23 C          -9.0940  -18.1856   22.3176 C.ar    1  UNL1        0.0369
     24 C          -9.9194  -19.3632   21.8912 C.ar    1  UNL1        0.0031
     25 C         -10.7134  -20.1299   22.9070 C.ar    1  UNL1        0.0002
     26 C         -10.6820  -19.7189   24.3492 C.ar    1  UNL1        0.0031
     27 C          -9.8566  -18.5413   24.7757 C.ar    1  UNL1        0.0369
@<TRIPOS>BOND
     1     3     4    1
     2     4     5    1
     3     4     6    1
     4     6     7    1
     5     7     8    2
     6     8     9    1
     7     9    10    2
     8    10    11    1
     9    11    12    1
    10    12    13    2
    11    13    14    1
    12    14    15    2
    13     4     1    1
    14     1    16    1
    15    16    17    1
    16    17    18    1
    17    17    20    1
    18    20    21    1
    19    21    22    1
    20    22    23   ar
    21    23    24   ar
    22    24    25   ar
    23    25    26   ar
    24    26    27   ar
    25    15     7    1
    26    27    22   ar
    27    15    10    1
    28     1     2    1
    29    18    19    1
@<TRIPOS>MOLECULE
*****
 27 29 0 0 0
SMALL
GASTEIGER

@<TRIPOS>ATOM
      1 N         -11.1268   -6.7598   18.6487 N.3     1  UNL1       -0.2972
      2 H         -10.7891   -7.7222   18.6334 H       1  UNL1        0.1233
      3 C         -13.0009   -6.1883   19.4618 C.3     1  UNL1        0.0161
      4 C         -12.5465   -6.7914   18.1657 C.3     1  UNL1        0.0462
      5 C         -12.0923   -7.3946   16.8697 C.3     1  UNL1        0.0161
      6 C         -13.9664   -6.8230   17.6828 C.3     1  UNL1        0.0424
      7 C         -14.9148   -7.8591   18.2093 C.2     1  UNL1       -0.0006
      8 C         -14.6770   -9.3399   18.2356 C.2     1  UNL1        0.0942
      9 N         -15.8828   -9.9921   18.8445 N.2     1  UNL1       -0.2482
     10 C         -16.8657   -8.9145   19.1944 C.2     1  UNL1        0.0631
     11 C         -18.2282   -8.9633   19.8198 C.3     1  UNL1        0.0717
     12 C         -18.9925   -7.6938   20.0526 C.2     1  UNL1       -0.0198
     13 C         -18.3942   -6.3755   19.6600 C.2     1  UNL1       -0.0042
     14 C         -17.0317   -6.3266   19.0346 C.2     1  UNL1        0.0006
     15 C         -16.2675   -7.5961   18.8018 C.2     1  UNL1        0.0114
     16 C         -10.1067   -5.9315   17.9254 C.3     1  UNL1        0.1020
     17 C         -10.0608   -4.4469   18.1350 C.3     1  UNL1        0.1697
     18 O          -9.4590   -3.8847   19.3887 O.3     1  UNL1       -0.3793
     19 H          -9.1497   -4.6108   19.9527 H       1  UNL1        0.2106
     20 C         -10.6168   -3.5245   17.0909 C.3     1  UNL1        0.2358
     21 O         -11.5016   -2.3823   17.4936 O.3     1  UNL1       -0.4728
     22 C         -12.7694   -2.6463   18.2507 C.ar    1  UNL1        0.1387
     23 C         -12.7869   -2.5342   19.7464 C.ar    1  UNL1        0.0369
     24 C         -14.0546   -2.7982   20.5034 C.ar    1  UNL1        0.0031
     25 C         -15.3048   -3.1743   19.7648 C.ar    1  UNL1        0.0002
     26 C         -15.2873   -3.2864   18.2691 C.ar    1  UNL1        0.0031
     27 C         -14.0196   -3.0224   17.5120 C.ar    1  UNL1        0.0369
@<TRIPOS>BOND
     1     3     4    1
     2     4     5    1
     3     4     6    1
     4     6     7    1
     5     7     8    2
     6     8     9    1
     7     9    10    2
     8    10    11    1
     9    11    12    1
    10    12    13    2
    11    13    14    1
    12    14    15    2
    13     4     1    1
    14     1    16    1
    15    16    17    1
    16    17    18    1
    17    17    20    1
    18    20    21    1
    19    21    22    1
    20    22    23   ar
    21    23    24   ar
    22    24    25   ar
    23    25    26   ar
    24    26    27   ar
    25    15     7    1
    26    27    22   ar
    27    15    10    1
    28     1     2    1
    29    18    19    1
