@<TRIPOS>MOLECULE
*****
 40 43 0 0 0
SMALL
GASTEIGER

@<TRIPOS>ATOM
      1 N           4.1708   -0.9921   19.8066 N.3     1  UNL1       -0.2664
      2 C           3.1515   -0.9273   18.7081 C.3     1  UNL1        0.0742
      3 C           2.2546    0.2688   18.5868 C.3     1  UNL1        0.0370
      4 C           2.3769    1.4002   19.5640 C.3     1  UNL1        0.0771
      5 C           3.3962    1.3354   20.6626 C.3     1  UNL1        0.0500
      6 C           4.2931    0.1392   20.7839 C.3     1  UNL1        0.0755
      7 N           1.4800    2.5964   19.4427 N.am    1  UNL1       -0.2901
      8 C           0.0661    2.5270   19.9387 C.2     1  UNL1        0.3058
      9 O          -0.4509    1.2613   20.5559 O.2     1  UNL1       -0.2524
     10 N          -0.8308    3.7231   19.8174 N.am    1  UNL1       -0.2485
     11 H           1.8194    3.4270   19.0376 H       1  UNL1        0.1509
     12 H          -0.4915    4.5538   19.4122 H       1  UNL1        0.1583
     13 C          -2.2448    3.6537   20.3133 C.ar    1  UNL1        0.1664
     14 N          -2.6764    3.2563   21.6938 N.ar    1  UNL1       -0.2282
     15 C          -4.1737    3.3265   21.7495 C.ar    1  UNL1        0.0701
     16 C          -5.0274    3.0113   22.9420 C.3     1  UNL1        0.0528
     17 C          -4.6675    3.7672   20.4034 C.ar    1  UNL1        0.0803
     18 S          -3.4754    3.9694   19.5158 S.2     1  UNL1       -0.0488
     19 C          -6.1017    3.9700   20.0134 C.2     1  UNL1        0.1807
     20 C          -6.6553    3.2765   18.8040 C.3     1  UNL1        0.0779
     21 O          -6.9822    4.8663   20.8328 O.2     1  UNL1       -0.2908
     22 C           5.0677   -2.1883   19.9280 C.3     1  UNL1        0.1376
     23 C           4.6714   -4.5010   18.8124 C.3     1  UNL1        0.0738
     24 C           5.2435   -3.1153   18.7619 C.2     1  UNL1        0.1672
     25 O           5.9914   -2.6566   17.5452 O.2     1  UNL1       -0.2946
     26 C           3.5186    2.4668   21.6399 C.3     1  UNL1        0.0751
     27 N           2.3558    2.8314   22.5145 N.3     1  UNL1       -0.2726
     28 C           1.7816    4.2161   22.4600 C.3     1  UNL1        0.0721
     29 C           0.6188    4.5808   23.3346 C.3     1  UNL1        0.0174
     30 C           0.0302    3.5608   24.2637 C.3     1  UNL1        0.0031
     31 C           0.6044    2.1761   24.3182 C.3     1  UNL1        0.0204
     32 C           1.7672    1.8114   23.4436 C.3     1  UNL1        0.0724
     33 C           0.0159    1.1561   25.2472 C.3     1  UNL1        0.0277
     34 C           0.2447    1.2676   26.7255 C.ar    1  UNL1       -0.0220
     35 C           1.4888    1.9257   27.2444 C.ar    1  UNL1       -0.0020
     36 C           1.7176    2.0372   28.7226 C.ar    1  UNL1        0.0293
     37 C           0.7023    1.4907   29.6820 C.ar    1  UNL1        0.1401
     38 F           0.9311    1.6022   31.1603 F       1  UNL1       -0.2042
     39 C          -0.5418    0.8326   29.1631 C.ar    1  UNL1        0.0293
     40 C          -0.7706    0.7211   27.6849 C.ar    1  UNL1       -0.0020
@<TRIPOS>BOND
     1    23    24    1
     2    24    25    2
     3    24    22    1
     4    22     1    1
     5     1     2    1
     6     2     3    1
     7     3     4    1
     8     4     7    1
     9     7     8   am
    10     8     9    2
    11     8    10   am
    12    10    13    1
    13    13    14   ar
    14    14    15   ar
    15    15    16    1
    16    15    17   ar
    17    17    19    1
    18    19    20    1
    19    19    21    2
    20    17    18   ar
    21     4     5    1
    22     5    26    1
    23    26    27    1
    24    27    28    1
    25    28    29    1
    26    29    30    1
    27    30    31    1
    28    31    33    1
    29    33    34    1
    30    34    35   ar
    31    35    36   ar
    32    36    37   ar
    33    37    38    1
    34    37    39   ar
    35    39    40   ar
    36    31    32    1
    37     5     6    1
    38     6     1    1
    39    18    13   ar
    40    32    27    1
    41    40    34   ar
    42     7    11    1
    43    10    12    1
@<TRIPOS>MOLECULE
*****
 40 43 0 0 0
SMALL
GASTEIGER

@<TRIPOS>ATOM
      1 N           4.2054   -1.4801   20.0725 N.3     1  UNL1       -0.2664
      2 C           5.0033   -0.7329   21.0996 C.3     1  UNL1        0.0742
      3 C           4.3389    0.3027   21.9576 C.3     1  UNL1        0.0370
      4 C           2.8767    0.5910   21.7885 C.3     1  UNL1        0.0771
      5 C           2.0788   -0.1562   20.7614 C.3     1  UNL1        0.0500
      6 C           2.7431   -1.1918   19.9034 C.3     1  UNL1        0.0755
      7 N           2.2123    1.6266   22.6465 N.am    1  UNL1       -0.2901
      8 C           1.7878    1.2832   24.0435 C.2     1  UNL1        0.3058
      9 O           2.0277   -0.0960   24.5827 O.2     1  UNL1       -0.2524
     10 N           1.1234    2.3187   24.9016 N.am    1  UNL1       -0.2485
     11 H           2.0548    2.5318   22.2927 H       1  UNL1        0.1509
     12 H           0.9660    3.2239   24.5478 H       1  UNL1        0.1583
     13 C           0.6989    1.9752   26.2987 C.ar    1  UNL1        0.1664
     14 N          -0.5238    1.1955   26.6821 N.ar    1  UNL1       -0.2282
     15 C          -0.5557    1.0895   28.1780 C.ar    1  UNL1        0.0701
     16 C          -1.6062    0.3918   28.9902 C.3     1  UNL1        0.0528
     17 C           0.6473    1.8037   28.7191 C.ar    1  UNL1        0.0803
     18 S           1.4227    2.3511   27.5576 S.2     1  UNL1       -0.0488
     19 C           1.0110    1.9456   30.1674 C.2     1  UNL1        0.1807
     20 C           0.7873    3.2505   30.8725 C.3     1  UNL1        0.0779
     21 O           1.5984    0.7826   30.9106 O.2     1  UNL1       -0.2908
     22 C           4.8698   -2.5157   19.2145 C.3     1  UNL1        0.1376
     23 C           4.6095   -5.0549   18.7298 C.3     1  UNL1        0.0738
     24 C           4.9405   -3.9406   19.6778 C.2     1  UNL1        0.1672
     25 O           5.3422   -4.2512   21.0893 O.2     1  UNL1       -0.2946
     26 C           0.6164    0.1321   20.5923 C.3     1  UNL1        0.0751
     27 N           0.1727    1.4392   20.0053 N.3     1  UNL1       -0.2726
     28 C           0.9013    2.0192   18.8294 C.3     1  UNL1        0.0721
     29 C           0.4576    3.3263   18.2424 C.3     1  UNL1        0.0174
     30 C          -0.7148    4.0535   18.8313 C.3     1  UNL1        0.0031
     31 C          -1.4434    3.4735   20.0072 C.3     1  UNL1        0.0204
     32 C          -0.9997    2.1664   20.5942 C.3     1  UNL1        0.0724
     33 C          -2.6158    4.2006   20.5961 C.3     1  UNL1        0.0277
     34 C          -2.9695    4.0072   22.0410 C.ar    1  UNL1       -0.0220
     35 C          -2.0037    4.4211   23.1115 C.ar    1  UNL1       -0.0020
     36 C          -2.3574    4.2278   24.5563 C.ar    1  UNL1        0.0293
     37 C          -3.6769    3.6205   24.9306 C.ar    1  UNL1        0.1401
     38 F          -4.0306    3.4272   26.3754 F       1  UNL1       -0.2042
     39 C          -4.6427    3.2067   23.8601 C.ar    1  UNL1        0.0293
     40 C          -4.2890    3.4000   22.4153 C.ar    1  UNL1       -0.0020
@<TRIPOS>BOND
     1    23    24    1
     2    24    25    2
     3    24    22    1
     4    22     1    1
     5     1     2    1
     6     2     3    1
     7     3     4    1
     8     4     7    1
     9     7     8   am
    10     8     9    2
    11     8    10   am
    12    10    13    1
    13    13    14   ar
    14    14    15   ar
    15    15    16    1
    16    15    17   ar
    17    17    19    1
    18    19    20    1
    19    19    21    2
    20    17    18   ar
    21     4     5    1
    22     5    26    1
    23    26    27    1
    24    27    28    1
    25    28    29    1
    26    29    30    1
    27    30    31    1
    28    31    33    1
    29    33    34    1
    30    34    35   ar
    31    35    36   ar
    32    36    37   ar
    33    37    38    1
    34    37    39   ar
    35    39    40   ar
    36    31    32    1
    37     5     6    1
    38     6     1    1
    39    18    13   ar
    40    32    27    1
    41    40    34   ar
    42     7    11    1
    43    10    12    1
@<TRIPOS>MOLECULE
*****
 40 43 0 0 0
SMALL
GASTEIGER

@<TRIPOS>ATOM
      1 N           5.0488   -1.5908   18.8619 N.3     1  UNL1       -0.2664
      2 C           4.0754   -1.4256   17.7328 C.3     1  UNL1        0.0742
      3 C           3.3336   -0.1326   17.5652 C.3     1  UNL1        0.0370
      4 C           3.5653    0.9950   18.5267 C.3     1  UNL1        0.0771
      5 C           4.5388    0.8298   19.6559 C.3     1  UNL1        0.0500
      6 C           5.2805   -0.4632   19.8235 C.3     1  UNL1        0.0755
      7 N           2.8236    2.2880   18.3591 N.am    1  UNL1       -0.2901
      8 C           1.3623    2.3626   18.6896 C.2     1  UNL1        0.3058
      9 O           0.6428    1.1443   19.1877 O.2     1  UNL1       -0.2524
     10 N           0.6206    3.6556   18.5220 N.am    1  UNL1       -0.2485
     11 H           3.2958    3.0876   18.0322 H       1  UNL1        0.1509
     12 H           1.0928    4.4552   18.1951 H       1  UNL1        0.1583
     13 C          -0.8407    3.7302   18.8525 C.ar    1  UNL1        0.1664
     14 N          -1.9625    3.8595   17.8651 N.ar    1  UNL1       -0.2282
     15 C          -3.2518    3.8978   18.6308 C.ar    1  UNL1        0.0701
     16 C          -4.6250    4.0202   18.0396 C.3     1  UNL1        0.0528
     17 C          -2.9268    3.7922   20.0914 C.ar    1  UNL1        0.0803
     18 S          -1.4367    3.6886   20.2284 S.2     1  UNL1       -0.0488
     19 C          -3.9180    3.7904   21.2172 C.2     1  UNL1        0.1807
     20 C          -4.1709    5.0474   21.9957 C.3     1  UNL1        0.0779
     21 O          -4.6563    2.5317   21.5646 O.2     1  UNL1       -0.2908
     22 C           5.7906   -2.8838   19.0295 C.3     1  UNL1        0.1376
     23 C           3.9529   -4.7064   19.2548 C.3     1  UNL1        0.0738
     24 C           5.1672   -4.0121   19.7965 C.2     1  UNL1        0.1672
     25 O           5.7582   -4.4462   21.1051 O.2     1  UNL1       -0.2946
     26 C           4.7705    1.9575   20.6175 C.3     1  UNL1        0.0751
     27 N           3.6189    2.5394   21.3825 N.3     1  UNL1       -0.2726
     28 C           3.3865    4.0213   21.3760 C.3     1  UNL1        0.0721
     29 C           2.2349    4.6032   22.1411 C.3     1  UNL1        0.0174
     30 C           1.3157    3.7032   22.9125 C.3     1  UNL1        0.0031
     31 C           1.5481    2.2214   22.9189 C.3     1  UNL1        0.0204
     32 C           2.6996    1.6394   22.1540 C.3     1  UNL1        0.0724
     33 C           0.6289    1.3214   23.6904 C.3     1  UNL1        0.0277
     34 C           0.5436    1.4383   25.1834 C.ar    1  UNL1       -0.0220
     35 C          -0.7566    1.8080   25.8337 C.ar    1  UNL1       -0.0020
     36 C          -0.8419    1.9248   27.3267 C.ar    1  UNL1        0.0293
     37 C           0.3730    1.6719   28.1694 C.ar    1  UNL1        0.1401
     38 F           0.2877    1.7887   29.6624 F       1  UNL1       -0.2042
     39 C           1.6731    1.3022   27.5191 C.ar    1  UNL1        0.0293
     40 C           1.7584    1.1853   26.0261 C.ar    1  UNL1       -0.0020
@<TRIPOS>BOND
     1    23    24    1
     2    24    25    2
     3    24    22    1
     4    22     1    1
     5     1     2    1
     6     2     3    1
     7     3     4    1
     8     4     7    1
     9     7     8   am
    10     8     9    2
    11     8    10   am
    12    10    13    1
    13    13    14   ar
    14    14    15   ar
    15    15    16    1
    16    15    17   ar
    17    17    19    1
    18    19    20    1
    19    19    21    2
    20    17    18   ar
    21     4     5    1
    22     5    26    1
    23    26    27    1
    24    27    28    1
    25    28    29    1
    26    29    30    1
    27    30    31    1
    28    31    33    1
    29    33    34    1
    30    34    35   ar
    31    35    36   ar
    32    36    37   ar
    33    37    38    1
    34    37    39   ar
    35    39    40   ar
    36    31    32    1
    37     5     6    1
    38     6     1    1
    39    18    13   ar
    40    32    27    1
    41    40    34   ar
    42     7    11    1
    43    10    12    1
@<TRIPOS>MOLECULE
*****
 40 43 0 0 0
SMALL
GASTEIGER

@<TRIPOS>ATOM
      1 N           3.8457   -1.3524   19.1660 N.3     1  UNL1       -0.2664
      2 C           3.4843   -0.1207   18.3899 C.3     1  UNL1        0.0742
      3 C           2.8427    1.0429   19.0859 C.3     1  UNL1        0.0370
      4 C           2.5623    0.9748   20.5578 C.3     1  UNL1        0.0771
      5 C           2.9236   -0.2569   21.3339 C.3     1  UNL1        0.0500
      6 C           3.5653   -1.4205   20.6379 C.3     1  UNL1        0.0755
      7 N           1.9206    2.1384   21.2537 N.am    1  UNL1       -0.2901
      8 C           0.4272    2.2095   21.3743 C.2     1  UNL1        0.3058
      9 O          -0.4246    1.1170   20.7990 O.2     1  UNL1       -0.2524
     10 N          -0.2145    3.3731   22.0702 N.am    1  UNL1       -0.2485
     11 H           2.4796    2.8554   21.6313 H       1  UNL1        0.1509
     12 H           0.3445    4.0902   22.4478 H       1  UNL1        0.1583
     13 C          -1.7080    3.4442   22.1908 C.ar    1  UNL1        0.1664
     14 N          -2.6937    3.2198   21.0827 N.ar    1  UNL1       -0.2282
     15 C          -4.0729    3.3891   21.6477 C.ar    1  UNL1        0.0701
     16 C          -5.3595    3.2532   20.8886 C.3     1  UNL1        0.0528
     17 C          -3.9395    3.7182   23.1051 C.ar    1  UNL1        0.0803
     18 S          -2.4780    3.7522   23.4407 S.2     1  UNL1       -0.0488
     19 C          -5.0694    3.9691   24.0593 C.2     1  UNL1        0.1807
     20 C          -6.0715    5.0466   23.7682 C.3     1  UNL1        0.0779
     21 O          -5.1971    3.1426   25.3045 O.2     1  UNL1       -0.2908
     22 C           4.4874   -2.5159   18.4701 C.3     1  UNL1        0.1376
     23 C           6.6747   -3.2190   19.6829 C.3     1  UNL1        0.0738
     24 C           5.9801   -2.6627   18.4754 C.2     1  UNL1        0.1672
     25 O           6.7784   -2.2533   17.2732 O.2     1  UNL1       -0.2946
     26 C           2.6433   -0.3250   22.8059 C.3     1  UNL1        0.0751
     27 N           3.3448    0.6088   23.7470 N.3     1  UNL1       -0.2726
     28 C           4.7207    1.1089   23.4205 C.3     1  UNL1        0.0721
     29 C           5.4223    2.0429   24.3617 C.3     1  UNL1        0.0174
     30 C           4.7478    2.4766   25.6293 C.3     1  UNL1        0.0031
     31 C           3.3718    1.9765   25.9558 C.3     1  UNL1        0.0204
     32 C           2.6703    1.0427   25.0147 C.3     1  UNL1        0.0724
     33 C           2.6973    2.4103   27.2234 C.3     1  UNL1        0.0277
     34 C           1.4690    1.6948   27.7022 C.ar    1  UNL1       -0.0220
     35 C           0.1093    2.2127   27.3376 C.ar    1  UNL1       -0.0020
     36 C          -1.1191    1.4973   27.8163 C.ar    1  UNL1        0.0293
     37 C          -0.9877    0.2638   28.6596 C.ar    1  UNL1        0.1401
     38 F          -2.2161   -0.4517   29.1384 F       1  UNL1       -0.2042
     39 C           0.3719   -0.2542   29.0243 C.ar    1  UNL1        0.0293
     40 C           1.6003    0.4613   28.5456 C.ar    1  UNL1       -0.0020
@<TRIPOS>BOND
     1    23    24    1
     2    24    25    2
     3    24    22    1
     4    22     1    1
     5     1     2    1
     6     2     3    1
     7     3     4    1
     8     4     7    1
     9     7     8   am
    10     8     9    2
    11     8    10   am
    12    10    13    1
    13    13    14   ar
    14    14    15   ar
    15    15    16    1
    16    15    17   ar
    17    17    19    1
    18    19    20    1
    19    19    21    2
    20    17    18   ar
    21     4     5    1
    22     5    26    1
    23    26    27    1
    24    27    28    1
    25    28    29    1
    26    29    30    1
    27    30    31    1
    28    31    33    1
    29    33    34    1
    30    34    35   ar
    31    35    36   ar
    32    36    37   ar
    33    37    38    1
    34    37    39   ar
    35    39    40   ar
    36    31    32    1
    37     5     6    1
    38     6     1    1
    39    18    13   ar
    40    32    27    1
    41    40    34   ar
    42     7    11    1
    43    10    12    1
@<TRIPOS>MOLECULE
*****
 40 43 0 0 0
SMALL
GASTEIGER

@<TRIPOS>ATOM
      1 N           4.5257   -1.7727   19.7176 N.3     1  UNL1       -0.2664
      2 C           5.3701   -1.0198   20.7024 C.3     1  UNL1        0.0742
      3 C           4.7408   -0.0004   21.6051 C.3     1  UNL1        0.0370
      4 C           3.2670    0.2661   21.5229 C.3     1  UNL1        0.0771
      5 C           2.4225   -0.4867   20.5380 C.3     1  UNL1        0.0500
      6 C           3.0518   -1.5061   19.6354 C.3     1  UNL1        0.0755
      7 N           2.6377    1.2855   22.4255 N.am    1  UNL1       -0.2901
      8 C           2.2066    0.8980   23.8090 C.2     1  UNL1        0.3058
      9 O           2.4049   -0.5090   24.2898 O.2     1  UNL1       -0.2524
     10 N           1.5773    1.9174   24.7116 N.am    1  UNL1       -0.2485
     11 H           2.5076    2.2090   22.1099 H       1  UNL1        0.1509
     12 H           1.4472    2.8408   24.3961 H       1  UNL1        0.1583
     13 C           1.1462    1.5298   26.0951 C.ar    1  UNL1        0.1664
     14 N          -0.2411    1.1371   26.5088 N.ar    1  UNL1       -0.2282
     15 C          -0.2179    0.8314   27.9772 C.ar    1  UNL1        0.0701
     16 C          -1.3905    0.3981   28.8062 C.3     1  UNL1        0.0528
     17 C           1.1838    1.0353   28.4710 C.ar    1  UNL1        0.0803
     18 S           2.0268    1.4669   27.3078 S.2     1  UNL1       -0.0488
     19 C           1.6589    0.8415   29.8805 C.2     1  UNL1        0.1807
     20 C           2.2888   -0.4575   30.2877 C.3     1  UNL1        0.0779
     21 O           1.5043    1.9468   30.8827 O.2     1  UNL1       -0.2908
     22 C           5.1550   -2.7921   18.8149 C.3     1  UNL1        0.1376
     23 C           4.4586   -5.2932   18.7187 C.3     1  UNL1        0.0738
     24 C           5.3244   -4.2066   19.2842 C.2     1  UNL1        0.1672
     25 O           6.3596   -4.5347   20.3190 O.2     1  UNL1       -0.2946
     26 C           0.9486   -0.2202   20.4558 C.3     1  UNL1        0.0751
     27 N           0.4526    1.1005   19.9462 N.3     1  UNL1       -0.2726
     28 C           0.7846    1.5385   18.5505 C.3     1  UNL1        0.0721
     29 C           0.2884    2.8592   18.0410 C.3     1  UNL1        0.0174
     30 C          -0.5396    3.7419   18.9271 C.3     1  UNL1        0.0031
     31 C          -0.8716    3.3038   20.3228 C.3     1  UNL1        0.0204
     32 C          -0.3755    1.9832   20.8323 C.3     1  UNL1        0.0724
     33 C          -1.6996    4.1865   21.2089 C.3     1  UNL1        0.0277
     34 C          -3.1625    4.3679   20.9308 C.ar    1  UNL1       -0.0220
     35 C          -3.8698    5.6006   21.4104 C.ar    1  UNL1       -0.0020
     36 C          -5.3326    5.7821   21.1324 C.ar    1  UNL1        0.0293
     37 C          -6.0880    4.7307   20.3748 C.ar    1  UNL1        0.1401
     38 F          -7.5509    4.9121   20.0967 F       1  UNL1       -0.2042
     39 C          -5.3807    3.4980   19.8952 C.ar    1  UNL1        0.0293
     40 C          -3.9179    3.3166   20.1732 C.ar    1  UNL1       -0.0020
@<TRIPOS>BOND
     1    23    24    1
     2    24    25    2
     3    24    22    1
     4    22     1    1
     5     1     2    1
     6     2     3    1
     7     3     4    1
     8     4     7    1
     9     7     8   am
    10     8     9    2
    11     8    10   am
    12    10    13    1
    13    13    14   ar
    14    14    15   ar
    15    15    16    1
    16    15    17   ar
    17    17    19    1
    18    19    20    1
    19    19    21    2
    20    17    18   ar
    21     4     5    1
    22     5    26    1
    23    26    27    1
    24    27    28    1
    25    28    29    1
    26    29    30    1
    27    30    31    1
    28    31    33    1
    29    33    34    1
    30    34    35   ar
    31    35    36   ar
    32    36    37   ar
    33    37    38    1
    34    37    39   ar
    35    39    40   ar
    36    31    32    1
    37     5     6    1
    38     6     1    1
    39    18    13   ar
    40    32    27    1
    41    40    34   ar
    42     7    11    1
    43    10    12    1
@<TRIPOS>MOLECULE
*****
 40 43 0 0 0
SMALL
GASTEIGER

@<TRIPOS>ATOM
      1 N           6.1924   -1.2983   29.4178 N.3     1  UNL1       -0.2664
      2 C           6.1608   -2.4378   28.4429 C.3     1  UNL1        0.0742
      3 C           5.2532   -2.3794   27.2501 C.3     1  UNL1        0.0370
      4 C           4.3772   -1.1815   27.0322 C.3     1  UNL1        0.0771
      5 C           4.4087   -0.0420   28.0071 C.3     1  UNL1        0.0500
      6 C           5.3164   -0.1004   29.1999 C.3     1  UNL1        0.0755
      7 N           3.4695   -1.1231   25.8394 N.am    1  UNL1       -0.2901
      8 C           4.0434   -1.2005   24.4557 C.2     1  UNL1        0.3058
      9 O           5.5251   -1.3364   24.2648 O.2     1  UNL1       -0.2524
     10 N           3.1358   -1.1421   23.2629 N.am    1  UNL1       -0.2485
     11 H           2.4971   -1.0339   25.9647 H       1  UNL1        0.1509
     12 H           2.1634   -1.0530   23.3882 H       1  UNL1        0.1583
     13 C           3.7098   -1.2195   21.8792 C.ar    1  UNL1        0.1664
     14 N           3.9370   -0.0619   20.9528 N.ar    1  UNL1       -0.2282
     15 C           4.5250   -0.5951   19.6801 C.ar    1  UNL1        0.0701
     16 C           4.9093    0.2164   18.4785 C.3     1  UNL1        0.0528
     17 C           4.6612   -2.0824   19.8198 C.ar    1  UNL1        0.0803
     18 S           4.1574   -2.4683   21.1790 S.2     1  UNL1       -0.0488
     19 C           5.2057   -3.0193   18.7826 C.2     1  UNL1        0.1807
     20 C           4.6490   -4.4066   18.6590 C.3     1  UNL1        0.0779
     21 O           6.3067   -2.5687   17.8690 O.2     1  UNL1       -0.2908
     22 C           7.1000   -1.3568   30.6106 C.3     1  UNL1        0.1376
     23 C           6.5492   -3.3355   32.2016 C.3     1  UNL1        0.0738
     24 C           6.5808   -1.8617   31.9241 C.2     1  UNL1        0.1672
     25 O           6.0932   -0.8928   32.9603 O.2     1  UNL1       -0.2946
     26 C           3.5327    1.1560   27.7892 C.3     1  UNL1        0.0751
     27 N           2.0407    1.0158   27.8540 N.3     1  UNL1       -0.2726
     28 C           1.4173    0.0875   28.8538 C.3     1  UNL1        0.0721
     29 C          -0.0748   -0.0527   28.9185 C.3     1  UNL1        0.0174
     30 C          -0.9434    0.7354   27.9835 C.3     1  UNL1        0.0031
     31 C          -0.3200    1.6637   26.9837 C.3     1  UNL1        0.0204
     32 C           1.1720    1.8039   26.9189 C.3     1  UNL1        0.0724
     33 C          -1.1886    2.4519   26.0486 C.3     1  UNL1        0.0277
     34 C          -1.9719    3.6241   26.5611 C.ar    1  UNL1       -0.0220
     35 C          -3.4697    3.6176   26.4818 C.ar    1  UNL1       -0.0020
     36 C          -4.2530    4.7897   26.9942 C.ar    1  UNL1        0.0293
     37 C          -3.5384    5.9683   27.5859 C.ar    1  UNL1        0.1401
     38 F          -4.3216    7.1405   28.0983 F       1  UNL1       -0.2042
     39 C          -2.0405    5.9748   27.6652 C.ar    1  UNL1        0.0293
     40 C          -1.2572    4.8027   27.1528 C.ar    1  UNL1       -0.0020
@<TRIPOS>BOND
     1    23    24    1
     2    24    25    2
     3    24    22    1
     4    22     1    1
     5     1     2    1
     6     2     3    1
     7     3     4    1
     8     4     7    1
     9     7     8   am
    10     8     9    2
    11     8    10   am
    12    10    13    1
    13    13    14   ar
    14    14    15   ar
    15    15    16    1
    16    15    17   ar
    17    17    19    1
    18    19    20    1
    19    19    21    2
    20    17    18   ar
    21     4     5    1
    22     5    26    1
    23    26    27    1
    24    27    28    1
    25    28    29    1
    26    29    30    1
    27    30    31    1
    28    31    33    1
    29    33    34    1
    30    34    35   ar
    31    35    36   ar
    32    36    37   ar
    33    37    38    1
    34    37    39   ar
    35    39    40   ar
    36    31    32    1
    37     5     6    1
    38     6     1    1
    39    18    13   ar
    40    32    27    1
    41    40    34   ar
    42     7    11    1
    43    10    12    1
@<TRIPOS>MOLECULE
*****
 40 43 0 0 0
SMALL
GASTEIGER

@<TRIPOS>ATOM
      1 N           4.2711   -0.5486   19.5262 N.3     1  UNL1       -0.2664
      2 C           3.2509   -0.2500   18.4680 C.3     1  UNL1        0.0742
      3 C           1.8566    0.1409   18.8594 C.3     1  UNL1        0.0370
      4 C           1.4826    0.2331   20.3090 C.3     1  UNL1        0.0771
      5 C           2.5028   -0.0655   21.3673 C.3     1  UNL1        0.0500
      6 C           3.8971   -0.4564   20.9758 C.3     1  UNL1        0.0755
      7 N           0.0883    0.6240   20.7005 N.am    1  UNL1       -0.2901
      8 C          -0.4014    2.0174   20.4388 C.2     1  UNL1        0.3058
      9 O           0.5032    3.0200   19.7857 O.2     1  UNL1       -0.2524
     10 N          -1.7957    2.4083   20.8302 N.am    1  UNL1       -0.2485
     11 H          -0.5054   -0.0340   21.1291 H       1  UNL1        0.1509
     12 H          -2.3894    1.7502   21.2589 H       1  UNL1        0.1583
     13 C          -2.2854    3.8018   20.5685 C.ar    1  UNL1        0.1664
     14 N          -1.5620    5.0698   20.9131 N.ar    1  UNL1       -0.2282
     15 C          -2.4140    6.2236   20.4738 C.ar    1  UNL1        0.0701
     16 C          -2.0754    7.6771   20.6242 C.3     1  UNL1        0.0528
     17 C          -3.6640    5.6686   19.8577 C.ar    1  UNL1        0.0803
     18 S          -3.5845    4.1718   19.9163 S.2     1  UNL1       -0.0488
     19 C          -4.7949    6.4697   19.2839 C.2     1  UNL1        0.1807
     20 C          -5.7820    7.1345   20.1969 C.3     1  UNL1        0.0779
     21 O          -4.9386    6.6060   17.7970 O.2     1  UNL1       -0.2908
     22 C           5.6654   -0.9395   19.1347 C.3     1  UNL1        0.1376
     23 C           5.0156   -3.4232   18.7364 C.3     1  UNL1        0.0738
     24 C           5.9134   -2.2545   18.4571 C.2     1  UNL1        0.1672
     25 O           7.0592   -2.4008   17.5002 O.2     1  UNL1       -0.2946
     26 C           2.1288    0.0268   22.8170 C.3     1  UNL1        0.0751
     27 N           1.6231    1.3218   23.3802 N.3     1  UNL1       -0.2726
     28 C           2.2314    2.6199   22.9389 C.3     1  UNL1        0.0721
     29 C           1.7257    3.9150   23.5021 C.3     1  UNL1        0.0174
     30 C           0.6117    3.9118   24.5065 C.3     1  UNL1        0.0031
     31 C           0.0034    2.6137   24.9478 C.3     1  UNL1        0.0204
     32 C           0.5091    1.3187   24.3847 C.3     1  UNL1        0.0724
     33 C          -1.1106    2.6105   25.9523 C.3     1  UNL1        0.0277
     34 C          -2.4447    3.1957   25.5946 C.ar    1  UNL1       -0.0220
     35 C          -3.3547    3.7031   26.6737 C.ar    1  UNL1       -0.0020
     36 C          -4.6888    4.2882   26.3160 C.ar    1  UNL1        0.0293
     37 C          -5.1128    4.3659   24.8793 C.ar    1  UNL1        0.1401
     38 F          -6.4469    4.9510   24.5216 F       1  UNL1       -0.2042
     39 C          -4.2027    3.8585   23.8003 C.ar    1  UNL1        0.0293
     40 C          -2.8687    3.2734   24.1579 C.ar    1  UNL1       -0.0020
@<TRIPOS>BOND
     1    23    24    1
     2    24    25    2
     3    24    22    1
     4    22     1    1
     5     1     2    1
     6     2     3    1
     7     3     4    1
     8     4     7    1
     9     7     8   am
    10     8     9    2
    11     8    10   am
    12    10    13    1
    13    13    14   ar
    14    14    15   ar
    15    15    16    1
    16    15    17   ar
    17    17    19    1
    18    19    20    1
    19    19    21    2
    20    17    18   ar
    21     4     5    1
    22     5    26    1
    23    26    27    1
    24    27    28    1
    25    28    29    1
    26    29    30    1
    27    30    31    1
    28    31    33    1
    29    33    34    1
    30    34    35   ar
    31    35    36   ar
    32    36    37   ar
    33    37    38    1
    34    37    39   ar
    35    39    40   ar
    36    31    32    1
    37     5     6    1
    38     6     1    1
    39    18    13   ar
    40    32    27    1
    41    40    34   ar
    42     7    11    1
    43    10    12    1
@<TRIPOS>MOLECULE
*****
 40 43 0 0 0
SMALL
GASTEIGER

@<TRIPOS>ATOM
      1 N           0.1181    2.7298   25.7854 N.3     1  UNL1       -0.2664
      2 C           1.4592    3.4009   25.8206 C.3     1  UNL1        0.0742
      3 C           2.0886    3.8862   24.5485 C.3     1  UNL1        0.0370
      4 C           1.3771    3.7005   23.2412 C.3     1  UNL1        0.0771
      5 C           0.0361    3.0294   23.2059 C.3     1  UNL1        0.0500
      6 C          -0.5934    2.5441   24.4780 C.3     1  UNL1        0.0755
      7 N           2.0066    4.1858   21.9691 N.am    1  UNL1       -0.2901
      8 C           3.0698    3.3673   21.2986 C.2     1  UNL1        0.3058
      9 O           3.5037    2.0635   21.9002 O.2     1  UNL1       -0.2524
     10 N           3.6993    3.8526   20.0265 N.am    1  UNL1       -0.2485
     11 H           1.7219    5.0415   21.5742 H       1  UNL1        0.1509
     12 H           3.4146    4.7084   19.6316 H       1  UNL1        0.1583
     13 C           4.7626    3.0341   19.3560 C.ar    1  UNL1        0.1664
     14 N           4.5616    2.1126   18.1897 N.ar    1  UNL1       -0.2282
     15 C           5.8883    1.5024   17.8470 C.ar    1  UNL1        0.0701
     16 C           6.1484    0.5202   16.7435 C.3     1  UNL1        0.0528
     17 C           6.9094    2.0468   18.8016 C.ar    1  UNL1        0.0803
     18 S           6.2136    2.9935   19.7342 S.2     1  UNL1       -0.0488
     19 C           8.3697    1.7047   18.8203 C.2     1  UNL1        0.1807
     20 C           8.9653    1.0242   20.0171 C.3     1  UNL1        0.0779
     21 O           9.2344    2.0429   17.6422 O.2     1  UNL1       -0.2908
     22 C          -0.5113    2.2445   27.0575 C.3     1  UNL1        0.1376
     23 C          -1.0014    0.0922   28.4276 C.3     1  UNL1        0.0738
     24 C          -0.0342    0.9721   27.6925 C.2     1  UNL1        0.1672
     25 O           1.4101    0.5795   27.5923 O.2     1  UNL1       -0.2946
     26 C          -0.6756    2.8436   21.8986 C.3     1  UNL1        0.0751
     27 N          -0.0077    2.0998   20.7802 N.3     1  UNL1       -0.2726
     28 C           0.1201    2.7357   19.4277 C.3     1  UNL1        0.0721
     29 C           0.7880    1.9918   18.3093 C.3     1  UNL1        0.0174
     30 C           1.3280    0.6122   18.5435 C.3     1  UNL1        0.0031
     31 C           1.2001   -0.0237   19.8960 C.3     1  UNL1        0.0204
     32 C           0.5323    0.7201   21.0144 C.3     1  UNL1        0.0724
     33 C           1.7401   -1.4034   20.1302 C.3     1  UNL1        0.0277
     34 C           3.1827   -1.7021   19.8478 C.ar    1  UNL1       -0.0220
     35 C           3.5509   -2.8649   18.9747 C.ar    1  UNL1       -0.0020
     36 C           4.9934   -3.1636   18.6923 C.ar    1  UNL1        0.0293
     37 C           6.0678   -2.2996   19.2831 C.ar    1  UNL1        0.1401
     38 F           7.5104   -2.5983   19.0007 F       1  UNL1       -0.2042
     39 C           5.6997   -1.1368   20.1562 C.ar    1  UNL1        0.0293
     40 C           4.2571   -0.8380   20.4386 C.ar    1  UNL1       -0.0020
@<TRIPOS>BOND
     1    23    24    1
     2    24    25    2
     3    24    22    1
     4    22     1    1
     5     1     2    1
     6     2     3    1
     7     3     4    1
     8     4     7    1
     9     7     8   am
    10     8     9    2
    11     8    10   am
    12    10    13    1
    13    13    14   ar
    14    14    15   ar
    15    15    16    1
    16    15    17   ar
    17    17    19    1
    18    19    20    1
    19    19    21    2
    20    17    18   ar
    21     4     5    1
    22     5    26    1
    23    26    27    1
    24    27    28    1
    25    28    29    1
    26    29    30    1
    27    30    31    1
    28    31    33    1
    29    33    34    1
    30    34    35   ar
    31    35    36   ar
    32    36    37   ar
    33    37    38    1
    34    37    39   ar
    35    39    40   ar
    36    31    32    1
    37     5     6    1
    38     6     1    1
    39    18    13   ar
    40    32    27    1
    41    40    34   ar
    42     7    11    1
    43    10    12    1
@<TRIPOS>MOLECULE
*****
 40 43 0 0 0
SMALL
GASTEIGER

@<TRIPOS>ATOM
      1 N           3.5214   -1.1480   18.8679 N.3     1  UNL1       -0.2664
      2 C           3.1308   -1.5598   20.2563 C.3     1  UNL1        0.0742
      3 C           1.9578   -0.9107   20.9292 C.3     1  UNL1        0.0370
      4 C           1.1754    0.1503   20.2136 C.3     1  UNL1        0.0771
      5 C           1.5660    0.5621   18.8252 C.3     1  UNL1        0.0500
      6 C           2.7390   -0.0870   18.1523 C.3     1  UNL1        0.0755
      7 N           0.0025    0.7995   20.8865 N.am    1  UNL1       -0.2901
      8 C           0.2256    1.8385   21.9450 C.2     1  UNL1        0.3058
      9 O           1.6218    2.2285   22.3307 O.2     1  UNL1       -0.2524
     10 N          -0.9474    2.4877   22.6179 N.am    1  UNL1       -0.2485
     11 H          -0.9139    0.5435   20.6333 H       1  UNL1        0.1509
     12 H          -1.8637    2.2318   22.3647 H       1  UNL1        0.1583
     13 C          -0.7241    3.5268   23.6764 C.ar    1  UNL1        0.1664
     14 N           0.0125    4.8214   23.4997 N.ar    1  UNL1       -0.2282
     15 C          -0.0065    5.5484   24.8116 C.ar    1  UNL1        0.0701
     16 C           0.6140    6.8859   25.0875 C.3     1  UNL1        0.0528
     17 C          -0.7549    4.7030   25.7992 C.ar    1  UNL1        0.0803
     18 S          -1.1984    3.4536   25.0976 S.2     1  UNL1       -0.0488
     19 C          -1.0142    5.0468   27.2361 C.2     1  UNL1        0.1807
     20 C           0.0485    4.8090   28.2676 C.3     1  UNL1        0.0779
     21 O          -2.3362    5.6282   27.6413 O.2     1  UNL1       -0.2908
     22 C           4.6943   -1.7972   18.1950 C.3     1  UNL1        0.1376
     23 C           4.7368   -4.3535   18.6568 C.3     1  UNL1        0.0738
     24 C           5.3491   -2.9938   18.8190 C.2     1  UNL1        0.1672
     25 O           6.6162   -2.8308   19.6051 O.2     1  UNL1       -0.2946
     26 C           0.7836    1.6232   18.1095 C.3     1  UNL1        0.0751
     27 N           0.5700    2.9607   18.7540 N.3     1  UNL1       -0.2726
     28 C           1.7487    3.7848   19.1799 C.3     1  UNL1        0.0721
     29 C           1.5351    5.1224   19.8244 C.3     1  UNL1        0.0174
     30 C           0.1427    5.6358   20.0430 C.3     1  UNL1        0.0031
     31 C          -1.0360    4.8116   19.6171 C.3     1  UNL1        0.0204
     32 C          -0.8224    3.4741   18.9726 C.3     1  UNL1        0.0724
     33 C          -2.4283    5.3250   19.8357 C.3     1  UNL1        0.0277
     34 C          -3.2077    4.8893   21.0410 C.ar    1  UNL1       -0.0220
     35 C          -3.2725    5.7725   22.2517 C.ar    1  UNL1       -0.0020
     36 C          -4.0519    5.3368   23.4570 C.ar    1  UNL1        0.0293
     37 C          -4.7665    4.0180   23.4516 C.ar    1  UNL1        0.1401
     38 F          -5.5459    3.5824   24.6569 F       1  UNL1       -0.2042
     39 C          -4.7017    3.1349   22.2409 C.ar    1  UNL1        0.0293
     40 C          -3.9223    3.5705   21.0356 C.ar    1  UNL1       -0.0020
@<TRIPOS>BOND
     1    23    24    1
     2    24    25    2
     3    24    22    1
     4    22     1    1
     5     1     2    1
     6     2     3    1
     7     3     4    1
     8     4     7    1
     9     7     8   am
    10     8     9    2
    11     8    10   am
    12    10    13    1
    13    13    14   ar
    14    14    15   ar
    15    15    16    1
    16    15    17   ar
    17    17    19    1
    18    19    20    1
    19    19    21    2
    20    17    18   ar
    21     4     5    1
    22     5    26    1
    23    26    27    1
    24    27    28    1
    25    28    29    1
    26    29    30    1
    27    30    31    1
    28    31    33    1
    29    33    34    1
    30    34    35   ar
    31    35    36   ar
    32    36    37   ar
    33    37    38    1
    34    37    39   ar
    35    39    40   ar
    36    31    32    1
    37     5     6    1
    38     6     1    1
    39    18    13   ar
    40    32    27    1
    41    40    34   ar
    42     7    11    1
    43    10    12    1
