@<TRIPOS>MOLECULE
*****
 27 30 0 0 0
SMALL
GASTEIGER

@<TRIPOS>ATOM
      1 C          -5.9005  -20.4253   20.6929 C.3     1  UNL1        0.0503
      2 C          -5.6849  -19.3095   21.6719 C.ar    1  UNL1        0.0467
      3 C          -6.8621  -18.5903   22.2608 C.ar    1  UNL1        0.0866
      4 C          -8.3401  -18.7580   22.0674 C.ar    1  UNL1        0.2812
      5 O          -9.0038  -19.7617   21.1718 O.2     1  UNL1       -0.2651
      6 N          -9.0378  -17.7458   22.9269 N.ar    1  UNL1       -0.2166
      7 N          -7.9911  -16.9525   23.6515 N.ar    1  UNL1       -0.2886
      8 C          -6.6464  -17.4745   23.2398 C.ar    1  UNL1        0.0829
      9 C          -5.2534  -17.0778   23.6299 C.ar    1  UNL1        0.0793
     10 C          -4.0761  -17.7970   23.0410 C.ar    1  UNL1        0.2625
     11 O          -2.6831  -17.4003   23.4312 O.2     1  UNL1       -0.2669
     12 N          -4.2918  -18.9128   22.0621 N.ar    1  UNL1       -0.2932
     13 H          -8.1574  -16.2183   24.2858 H       1  UNL1        0.1875
     14 C         -10.5218  -17.5596   23.0416 C.ar    1  UNL1        0.0944
     15 C         -11.1924  -16.4229   22.3288 C.ar    1  UNL1        0.0200
     16 C         -12.6764  -16.2367   22.4436 C.ar    1  UNL1        0.0016
     17 C         -13.4898  -17.1872   23.2712 C.ar    1  UNL1        0.0010
     18 C         -12.8192  -18.3240   23.9840 C.ar    1  UNL1        0.0129
     19 C         -11.3352  -18.5101   23.8692 C.ar    1  UNL1        0.0753
     20 CL        -10.6646  -19.6469   24.5820 Cl      1  UNL1       -0.0807
     21 C          -3.1145  -19.6320   21.4732 C.3     1  UNL1        0.1544
     22 C          -2.2236  -18.9326   20.4897 C.ar    1  UNL1        0.0819
     23 C          -2.7714  -18.4875   19.1661 C.ar    1  UNL1        0.0167
     24 C          -1.8806  -17.7882   18.1826 C.ar    1  UNL1        0.0029
     25 C          -0.4419  -17.5339   18.5226 C.ar    1  UNL1        0.0207
     26 C           0.1059  -17.9790   19.8462 C.ar    1  UNL1        0.0985
     27 N          -0.7850  -18.6783   20.8297 N.ar    1  UNL1       -0.2462
@<TRIPOS>BOND
     1     1     2    1
     2     2     3   ar
     3     3     4   ar
     4     4     5    2
     5     4     6   ar
     6     6    14    1
     7    14    15   ar
     8    15    16   ar
     9    16    17   ar
    10    17    18   ar
    11    18    19   ar
    12    19    20    1
    13     6     7   ar
    14     7     8   ar
    15     8     9   ar
    16     9    10   ar
    17    10    11    2
    18    10    12   ar
    19    12    21    1
    20    21    22    1
    21    22    23   ar
    22    23    24   ar
    23    24    25   ar
    24    25    26   ar
    25    26    27   ar
    26    12     2   ar
    27    27    22   ar
    28     8     3   ar
    29    19    14   ar
    30     7    13    1
@<TRIPOS>MOLECULE
*****
 27 30 0 0 0
SMALL
GASTEIGER

@<TRIPOS>ATOM
      1 C          -4.6642  -17.6728   23.2685 C.3     1  UNL1        0.0503
      2 C          -5.2736  -18.6377   22.2950 C.ar    1  UNL1        0.0467
      3 C          -6.7618  -18.6797   22.1124 C.ar    1  UNL1        0.0866
      4 C          -7.8733  -17.8978   22.7473 C.ar    1  UNL1        0.2812
      5 O          -7.7162  -16.8229   23.7817 O.2     1  UNL1       -0.2651
      6 N          -9.1696  -18.3794   22.1662 N.ar    1  UNL1       -0.2166
      7 N          -8.8592  -19.4590   21.1722 N.ar    1  UNL1       -0.2886
      8 C          -7.3711  -19.6446   21.1389 C.ar    1  UNL1        0.0829
      9 C          -6.4922  -20.5676   20.3480 C.ar    1  UNL1        0.0793
     10 C          -5.0039  -20.5256   20.5305 C.ar    1  UNL1        0.2625
     11 O          -4.1250  -21.4486   19.7395 O.2     1  UNL1       -0.2669
     12 N          -4.3946  -19.5607   21.5039 N.ar    1  UNL1       -0.2932
     13 H          -9.5168  -19.9582   20.6358 H       1  UNL1        0.1875
     14 C         -10.5363  -17.8708   22.5175 C.ar    1  UNL1        0.0944
     15 C         -11.0207  -16.5692   21.9509 C.ar    1  UNL1        0.0200
     16 C         -12.3874  -16.0606   22.3022 C.ar    1  UNL1        0.0016
     17 C         -13.2698  -16.8536   23.2201 C.ar    1  UNL1        0.0010
     18 C         -12.7854  -18.1553   23.7867 C.ar    1  UNL1        0.0129
     19 C         -11.4187  -18.6638   23.4354 C.ar    1  UNL1        0.0753
     20 CL        -10.9343  -19.9655   24.0020 Cl      1  UNL1       -0.0807
     21 C          -2.9063  -19.5188   21.6865 C.3     1  UNL1        0.1544
     22 C          -2.0493  -18.7899   20.6944 C.ar    1  UNL1        0.0819
     23 C          -2.6153  -18.3924   19.3634 C.ar    1  UNL1        0.0167
     24 C          -1.7583  -17.6635   18.3713 C.ar    1  UNL1        0.0029
     25 C          -0.3352  -17.3321   18.7102 C.ar    1  UNL1        0.0207
     26 C           0.2309  -17.7296   20.0412 C.ar    1  UNL1        0.0985
     27 N          -0.6261  -18.4585   21.0333 N.ar    1  UNL1       -0.2462
@<TRIPOS>BOND
     1     1     2    1
     2     2     3   ar
     3     3     4   ar
     4     4     5    2
     5     4     6   ar
     6     6    14    1
     7    14    15   ar
     8    15    16   ar
     9    16    17   ar
    10    17    18   ar
    11    18    19   ar
    12    19    20    1
    13     6     7   ar
    14     7     8   ar
    15     8     9   ar
    16     9    10   ar
    17    10    11    2
    18    10    12   ar
    19    12    21    1
    20    21    22    1
    21    22    23   ar
    22    23    24   ar
    23    24    25   ar
    24    25    26   ar
    25    26    27   ar
    26    12     2   ar
    27    27    22   ar
    28     8     3   ar
    29    19    14   ar
    30     7    13    1
@<TRIPOS>MOLECULE
*****
 27 30 0 0 0
SMALL
GASTEIGER

@<TRIPOS>ATOM
      1 C         -14.2906   -4.5263   19.6680 C.3     1  UNL1        0.0503
      2 C         -13.6363   -5.6359   18.8994 C.ar    1  UNL1        0.0467
      3 C         -14.4696   -6.7423   18.3235 C.ar    1  UNL1        0.0866
      4 C         -15.9461   -7.0051   18.3507 C.ar    1  UNL1        0.2812
      5 O         -16.9824   -6.1467   19.0133 O.2     1  UNL1       -0.2651
      6 N         -16.2043   -8.2772   17.5988 N.ar    1  UNL1       -0.2166
      7 N         -14.8874   -8.8005   17.1070 N.ar    1  UNL1       -0.2886
      8 C         -13.8152   -7.8518   17.5549 C.ar    1  UNL1        0.0829
      9 C         -12.3277   -7.8550   17.3622 C.ar    1  UNL1        0.0793
     10 C         -11.4944   -6.7486   17.9380 C.ar    1  UNL1        0.2625
     11 O         -10.0068   -6.7518   17.7453 O.2     1  UNL1       -0.2669
     12 N         -12.1487   -5.6391   18.7066 N.ar    1  UNL1       -0.2932
     13 H         -14.7507   -9.6222   16.5824 H       1  UNL1        0.1875
     14 C         -17.5442   -8.9141   17.3776 C.ar    1  UNL1        0.0944
     15 C         -18.4418   -8.4128   16.2853 C.ar    1  UNL1        0.0200
     16 C         -19.7817   -9.0499   16.0642 C.ar    1  UNL1        0.0016
     17 C         -20.2240  -10.1881   16.9352 C.ar    1  UNL1        0.0010
     18 C         -19.3265  -10.6894   18.0275 C.ar    1  UNL1        0.0129
     19 C         -17.9865  -10.0524   18.2486 C.ar    1  UNL1        0.0753
     20 CL        -17.0889  -10.5536   19.3409 Cl      1  UNL1       -0.0807
     21 C         -11.3154   -4.5327   19.2825 C.3     1  UNL1        0.1544
     22 C         -11.1016   -3.2702   18.5012 C.ar    1  UNL1        0.0819
     23 C         -11.6975   -1.9804   18.9823 C.ar    1  UNL1        0.0167
     24 C         -11.4837   -0.7180   18.2009 C.ar    1  UNL1        0.0029
     25 C         -10.6740   -0.7453   16.9385 C.ar    1  UNL1        0.0207
     26 C         -10.0781   -2.0350   16.4575 C.ar    1  UNL1        0.0985
     27 N         -10.2919   -3.2975   17.2388 N.ar    1  UNL1       -0.2462
@<TRIPOS>BOND
     1     1     2    1
     2     2     3   ar
     3     3     4   ar
     4     4     5    2
     5     4     6   ar
     6     6    14    1
     7    14    15   ar
     8    15    16   ar
     9    16    17   ar
    10    17    18   ar
    11    18    19   ar
    12    19    20    1
    13     6     7   ar
    14     7     8   ar
    15     8     9   ar
    16     9    10   ar
    17    10    11    2
    18    10    12   ar
    19    12    21    1
    20    21    22    1
    21    22    23   ar
    22    23    24   ar
    23    24    25   ar
    24    25    26   ar
    25    26    27   ar
    26    12     2   ar
    27    27    22   ar
    28     8     3   ar
    29    19    14   ar
    30     7    13    1
@<TRIPOS>MOLECULE
*****
 27 30 0 0 0
SMALL
GASTEIGER

@<TRIPOS>ATOM
      1 C         -14.9362   -2.7782   19.7788 C.3     1  UNL1        0.0503
      2 C         -14.1704   -4.0488   19.5571 C.ar    1  UNL1        0.0467
      3 C         -14.9024   -5.3497   19.4091 C.ar    1  UNL1        0.0866
      4 C         -16.3635   -5.6879   19.4368 C.ar    1  UNL1        0.2812
      5 O         -17.4897   -4.7170   19.6345 O.2     1  UNL1       -0.2651
      6 N         -16.5007   -7.1675   19.2322 N.ar    1  UNL1       -0.2166
      7 N         -15.1243   -7.7438   19.0780 N.ar    1  UNL1       -0.2886
      8 C         -14.1366   -6.6202   19.1873 C.ar    1  UNL1        0.0829
      9 C         -12.6387   -6.5900   19.1136 C.ar    1  UNL1        0.0793
     10 C         -11.9067   -5.2891   19.2616 C.ar    1  UNL1        0.2625
     11 O         -10.4087   -5.2589   19.1879 O.2     1  UNL1       -0.2669
     12 N         -12.6724   -4.0186   19.4833 N.ar    1  UNL1       -0.2932
     13 H         -14.9074   -8.6927   18.9309 H       1  UNL1        0.1875
     14 C         -17.7881   -7.9361   19.1894 C.ar    1  UNL1        0.0944
     15 C         -18.5344   -8.2206   20.4591 C.ar    1  UNL1        0.0200
     16 C         -19.8218   -8.9892   20.4161 C.ar    1  UNL1        0.0016
     17 C         -20.3630   -9.4732   19.1035 C.ar    1  UNL1        0.0010
     18 C         -19.6168   -9.1887   17.8338 C.ar    1  UNL1        0.0129
     19 C         -18.3293   -8.4201   17.8768 C.ar    1  UNL1        0.0753
     20 CL        -17.5830   -8.1355   16.6071 Cl      1  UNL1       -0.0807
     21 C         -11.9403   -2.7177   19.6313 C.3     1  UNL1        0.1544
     22 C         -11.6706   -1.8675   18.4254 C.ar    1  UNL1        0.0819
     23 C         -12.2500   -0.4868   18.3363 C.ar    1  UNL1        0.0167
     24 C         -11.9803    0.3634   17.1303 C.ar    1  UNL1        0.0029
     25 C         -11.1310   -0.1671   16.0134 C.ar    1  UNL1        0.0207
     26 C         -10.5516   -1.5477   16.1025 C.ar    1  UNL1        0.0985
     27 N         -10.8214   -2.3980   17.3085 N.ar    1  UNL1       -0.2462
@<TRIPOS>BOND
     1     1     2    1
     2     2     3   ar
     3     3     4   ar
     4     4     5    2
     5     4     6   ar
     6     6    14    1
     7    14    15   ar
     8    15    16   ar
     9    16    17   ar
    10    17    18   ar
    11    18    19   ar
    12    19    20    1
    13     6     7   ar
    14     7     8   ar
    15     8     9   ar
    16     9    10   ar
    17    10    11    2
    18    10    12   ar
    19    12    21    1
    20    21    22    1
    21    22    23   ar
    22    23    24   ar
    23    24    25   ar
    24    25    26   ar
    25    26    27   ar
    26    12     2   ar
    27    27    22   ar
    28     8     3   ar
    29    19    14   ar
    30     7    13    1
@<TRIPOS>MOLECULE
*****
 27 30 0 0 0
SMALL
GASTEIGER

@<TRIPOS>ATOM
      1 C           1.6726    3.6609   34.6635 C.3     1  UNL1        0.0503
      2 C           2.4502    2.4273   34.3120 C.ar    1  UNL1        0.0467
      3 C           2.3224    1.8243   32.9445 C.ar    1  UNL1        0.0866
      4 C           1.5147    2.2207   31.7443 C.ar    1  UNL1        0.2812
      5 O           0.5908    3.3989   31.6533 O.2     1  UNL1       -0.2651
      6 N           1.7932    1.2321   30.6511 N.ar    1  UNL1       -0.2166
      7 N           2.7729    0.2247   31.1757 N.ar    1  UNL1       -0.2886
      8 C           3.1000    0.5907   32.5931 C.ar    1  UNL1        0.0829
      9 C           4.0054   -0.0400   33.6092 C.ar    1  UNL1        0.0793
     10 C           4.1333    0.5630   34.9767 C.ar    1  UNL1        0.2625
     11 O           5.0388   -0.0677   35.9928 O.2     1  UNL1       -0.2669
     12 N           3.3557    1.7965   35.3281 N.ar    1  UNL1       -0.2932
     13 H           3.1373   -0.5421   30.6772 H       1  UNL1        0.1875
     14 C           1.1966    1.2481   29.2750 C.ar    1  UNL1        0.0944
     15 C          -0.2401    0.8657   29.0758 C.ar    1  UNL1        0.0200
     16 C          -0.8366    0.8817   27.6996 C.ar    1  UNL1        0.0016
     17 C           0.0036    1.2800   26.5225 C.ar    1  UNL1        0.0010
     18 C           1.4403    1.6624   26.7216 C.ar    1  UNL1        0.0129
     19 C           2.0368    1.6464   28.0979 C.ar    1  UNL1        0.0753
     20 CL          3.4735    2.0287   28.2970 Cl      1  UNL1       -0.0807
     21 C           3.4835    2.3996   36.6957 C.3     1  UNL1        0.1544
     22 C           2.5148    2.0201   37.7762 C.ar    1  UNL1        0.0819
     23 C           2.6723    0.7161   38.5006 C.ar    1  UNL1        0.0167
     24 C           1.7036    0.3366   39.5811 C.ar    1  UNL1        0.0029
     25 C           0.5774    1.2611   39.9373 C.ar    1  UNL1        0.0207
     26 C           0.4199    2.5651   39.2129 C.ar    1  UNL1        0.0985
     27 N           1.3886    2.9446   38.1324 N.ar    1  UNL1       -0.2462
@<TRIPOS>BOND
     1     1     2    1
     2     2     3   ar
     3     3     4   ar
     4     4     5    2
     5     4     6   ar
     6     6    14    1
     7    14    15   ar
     8    15    16   ar
     9    16    17   ar
    10    17    18   ar
    11    18    19   ar
    12    19    20    1
    13     6     7   ar
    14     7     8   ar
    15     8     9   ar
    16     9    10   ar
    17    10    11    2
    18    10    12   ar
    19    12    21    1
    20    21    22    1
    21    22    23   ar
    22    23    24   ar
    23    24    25   ar
    24    25    26   ar
    25    26    27   ar
    26    12     2   ar
    27    27    22   ar
    28     8     3   ar
    29    19    14   ar
    30     7    13    1
@<TRIPOS>MOLECULE
*****
 27 30 0 0 0
SMALL
GASTEIGER

@<TRIPOS>ATOM
      1 C          -8.3192  -18.6498   22.2210 C.3     1  UNL1        0.0503
      2 C          -7.6270  -17.6611   23.1118 C.ar    1  UNL1        0.0467
      3 C          -6.1670  -17.3745   22.9222 C.ar    1  UNL1        0.0866
      4 C          -5.1574  -17.9081   21.9496 C.ar    1  UNL1        0.2812
      5 O          -5.4181  -18.9225   20.8758 O.2     1  UNL1       -0.2651
      6 N          -3.8414  -17.2492   22.2393 N.ar    1  UNL1       -0.2166
      7 N          -4.0376  -16.3083   23.3910 N.ar    1  UNL1       -0.2886
      8 C          -5.4749  -16.3858   23.8130 C.ar    1  UNL1        0.0829
      9 C          -6.2429  -15.6837   24.8934 C.ar    1  UNL1        0.0793
     10 C          -7.7030  -15.9704   25.0830 C.ar    1  UNL1        0.2625
     11 O          -8.4710  -15.2683   26.1635 O.2     1  UNL1       -0.2669
     12 N          -8.3951  -16.9590   24.1922 N.ar    1  UNL1       -0.2932
     13 H          -3.3447  -15.7398   23.7983 H       1  UNL1        0.1875
     14 C          -2.5550  -17.4890   21.5061 C.ar    1  UNL1        0.0944
     15 C          -1.7610  -16.3279   20.9849 C.ar    1  UNL1        0.0200
     16 C          -0.4746  -16.5678   20.2517 C.ar    1  UNL1        0.0016
     17 C           0.0179  -17.9687   20.0396 C.ar    1  UNL1        0.0010
     18 C          -0.7760  -19.1298   20.5607 C.ar    1  UNL1        0.0129
     19 C          -2.0625  -18.8899   21.2940 C.ar    1  UNL1        0.0753
     20 CL         -2.8564  -20.0509   21.8151 Cl      1  UNL1       -0.0807
     21 C          -9.8552  -17.2457   24.3818 C.3     1  UNL1        0.1544
     22 C         -10.8007  -17.1202   23.2241 C.ar    1  UNL1        0.0819
     23 C         -12.0193  -17.9919   23.1530 C.ar    1  UNL1        0.0167
     24 C         -12.9648  -17.8664   21.9953 C.ar    1  UNL1        0.0029
     25 C         -12.6916  -16.8692   20.9086 C.ar    1  UNL1        0.0207
     26 C         -11.4730  -15.9975   20.9796 C.ar    1  UNL1        0.0985
     27 N         -10.5275  -16.1230   22.1374 N.ar    1  UNL1       -0.2462
@<TRIPOS>BOND
     1     1     2    1
     2     2     3   ar
     3     3     4   ar
     4     4     5    2
     5     4     6   ar
     6     6    14    1
     7    14    15   ar
     8    15    16   ar
     9    16    17   ar
    10    17    18   ar
    11    18    19   ar
    12    19    20    1
    13     6     7   ar
    14     7     8   ar
    15     8     9   ar
    16     9    10   ar
    17    10    11    2
    18    10    12   ar
    19    12    21    1
    20    21    22    1
    21    22    23   ar
    22    23    24   ar
    23    24    25   ar
    24    25    26   ar
    25    26    27   ar
    26    12     2   ar
    27    27    22   ar
    28     8     3   ar
    29    19    14   ar
    30     7    13    1
@<TRIPOS>MOLECULE
*****
 27 30 0 0 0
SMALL
GASTEIGER

@<TRIPOS>ATOM
      1 C           3.3521   -2.6977   19.6374 C.3     1  UNL1        0.0503
      2 C           4.7697   -2.3496   19.2920 C.ar    1  UNL1        0.0467
      3 C           5.9007   -2.9419   20.0794 C.ar    1  UNL1        0.0866
      4 C           5.9262   -3.8911   21.2406 C.ar    1  UNL1        0.2812
      5 O           4.7287   -4.4956   21.9118 O.2     1  UNL1       -0.2651
      6 N           7.3596   -4.1296   21.6128 N.ar    1  UNL1       -0.2166
      7 N           8.2199   -3.3278   20.6816 N.ar    1  UNL1       -0.2886
      8 C           7.3183   -2.5938   19.7339 C.ar    1  UNL1        0.0829
      9 C           7.6048   -1.6534   18.6010 C.ar    1  UNL1        0.0793
     10 C           6.4739   -1.0611   17.8136 C.ar    1  UNL1        0.2625
     11 O           6.7605   -0.1206   16.6807 O.2     1  UNL1       -0.2669
     12 N           5.0564   -1.4092   18.1591 N.ar    1  UNL1       -0.2932
     13 H           9.2037   -3.2900   20.6909 H       1  UNL1        0.1875
     14 C           7.8471   -5.0145   22.7215 C.ar    1  UNL1        0.0944
     15 C           8.6409   -6.2469   22.4035 C.ar    1  UNL1        0.0200
     16 C           9.1284   -7.1318   23.5123 C.ar    1  UNL1        0.0016
     17 C           8.8222   -6.7843   24.9390 C.ar    1  UNL1        0.0010
     18 C           8.0284   -5.5520   25.2570 C.ar    1  UNL1        0.0129
     19 C           7.5409   -4.6671   24.1482 C.ar    1  UNL1        0.0753
     20 CL          6.7471   -3.4347   24.4662 Cl      1  UNL1       -0.0807
     21 C           3.9253   -0.8168   17.3716 C.3     1  UNL1        0.1544
     22 C           3.1794    0.3695   17.9066 C.ar    1  UNL1        0.0819
     23 C           3.9137    1.6407   18.2146 C.ar    1  UNL1        0.0167
     24 C           3.1678    2.8270   18.7497 C.ar    1  UNL1        0.0029
     25 C           1.6875    2.7421   18.9767 C.ar    1  UNL1        0.0207
     26 C           0.9532    1.4709   18.6687 C.ar    1  UNL1        0.0985
     27 N           1.6991    0.2846   18.1337 N.ar    1  UNL1       -0.2462
@<TRIPOS>BOND
     1     1     2    1
     2     2     3   ar
     3     3     4   ar
     4     4     5    2
     5     4     6   ar
     6     6    14    1
     7    14    15   ar
     8    15    16   ar
     9    16    17   ar
    10    17    18   ar
    11    18    19   ar
    12    19    20    1
    13     6     7   ar
    14     7     8   ar
    15     8     9   ar
    16     9    10   ar
    17    10    11    2
    18    10    12   ar
    19    12    21    1
    20    21    22    1
    21    22    23   ar
    22    23    24   ar
    23    24    25   ar
    24    25    26   ar
    25    26    27   ar
    26    12     2   ar
    27    27    22   ar
    28     8     3   ar
    29    19    14   ar
    30     7    13    1
@<TRIPOS>MOLECULE
*****
 27 30 0 0 0
SMALL
GASTEIGER

@<TRIPOS>ATOM
      1 C           0.4235    2.5514   18.2067 C.3     1  UNL1        0.0503
      2 C           0.4771    2.1701   19.6565 C.ar    1  UNL1        0.0467
      3 C           1.3227    1.0120   20.0967 C.ar    1  UNL1        0.0866
      4 C           2.2054    0.0675   19.3360 C.ar    1  UNL1        0.2812
      5 O           2.4467    0.0849   17.8556 O.2     1  UNL1       -0.2651
      6 N           2.8045   -0.8976   20.3157 N.ar    1  UNL1       -0.2166
      7 N           2.2920   -0.5495   21.6818 N.ar    1  UNL1       -0.2886
      8 C           1.3762    0.6307   21.5464 C.ar    1  UNL1        0.0829
      9 C           0.5841    1.4075   22.5560 C.ar    1  UNL1        0.0793
     10 C          -0.2615    2.5655   22.1158 C.ar    1  UNL1        0.2625
     11 O          -1.0536    3.3423   23.1254 O.2     1  UNL1       -0.2669
     12 N          -0.3151    2.9468   20.6661 N.ar    1  UNL1       -0.2932
     13 H           2.5172   -1.0141   22.5200 H       1  UNL1        0.1875
     14 C           3.7500   -2.0147   19.9869 C.ar    1  UNL1        0.0944
     15 C           3.2287   -3.2862   19.3857 C.ar    1  UNL1        0.0200
     16 C           4.1743   -4.4032   19.0570 C.ar    1  UNL1        0.0016
     17 C           5.6413   -4.2488   19.3295 C.ar    1  UNL1        0.0010
     18 C           6.1626   -2.9773   19.9307 C.ar    1  UNL1        0.0129
     19 C           5.2170   -1.8603   20.2594 C.ar    1  UNL1        0.0753
     20 CL          5.7383   -0.5888   20.8606 Cl      1  UNL1       -0.0807
     21 C          -1.1607    4.1050   20.2259 C.3     1  UNL1        0.1544
     22 C          -2.5933    3.8837   19.8401 C.ar    1  UNL1        0.0819
     23 C          -3.0244    4.0732   18.4160 C.ar    1  UNL1        0.0167
     24 C          -4.4569    3.8520   18.0302 C.ar    1  UNL1        0.0029
     25 C          -5.4584    3.4411   19.0685 C.ar    1  UNL1        0.0207
     26 C          -5.0273    3.2515   20.4927 C.ar    1  UNL1        0.0985
     27 N          -3.5948    3.4728   20.8785 N.ar    1  UNL1       -0.2462
@<TRIPOS>BOND
     1     1     2    1
     2     2     3   ar
     3     3     4   ar
     4     4     5    2
     5     4     6   ar
     6     6    14    1
     7    14    15   ar
     8    15    16   ar
     9    16    17   ar
    10    17    18   ar
    11    18    19   ar
    12    19    20    1
    13     6     7   ar
    14     7     8   ar
    15     8     9   ar
    16     9    10   ar
    17    10    11    2
    18    10    12   ar
    19    12    21    1
    20    21    22    1
    21    22    23   ar
    22    23    24   ar
    23    24    25   ar
    24    25    26   ar
    25    26    27   ar
    26    12     2   ar
    27    27    22   ar
    28     8     3   ar
    29    19    14   ar
    30     7    13    1
@<TRIPOS>MOLECULE
*****
 27 30 0 0 0
SMALL
GASTEIGER

@<TRIPOS>ATOM
      1 C           0.7159    2.2051   22.6855 C.3     1  UNL1        0.0503
      2 C           0.5419    2.3238   21.2003 C.ar    1  UNL1        0.0467
      3 C           1.2587    1.3778   20.2831 C.ar    1  UNL1        0.0866
      4 C           2.1953    0.2371   20.5503 C.ar    1  UNL1        0.2812
      5 O           2.6477   -0.2346   21.9005 O.2     1  UNL1       -0.2651
      6 N           2.6001   -0.3492   19.2303 N.ar    1  UNL1       -0.2166
      7 N           1.9137    0.4292   18.1473 N.ar    1  UNL1       -0.2886
      8 C           1.0846    1.4966   18.7980 C.ar    1  UNL1        0.0829
      9 C           0.1937    2.5613   18.2300 C.ar    1  UNL1        0.0793
     10 C          -0.5232    3.5073   19.1472 C.ar    1  UNL1        0.2625
     11 O          -1.4141    4.5721   18.5792 O.2     1  UNL1       -0.2669
     12 N          -0.3491    3.3886   20.6323 N.ar    1  UNL1       -0.2932
     13 H           1.9933    0.2679   17.1794 H       1  UNL1        0.1875
     14 C           3.5284   -1.5100   19.0287 C.ar    1  UNL1        0.0944
     15 C           3.1218   -2.8823   19.4776 C.ar    1  UNL1        0.0200
     16 C           4.0501   -4.0431   19.2759 C.ar    1  UNL1        0.0016
     17 C           5.3850   -3.8318   18.6253 C.ar    1  UNL1        0.0010
     18 C           5.7917   -2.4595   18.1764 C.ar    1  UNL1        0.0129
     19 C           4.8633   -1.2987   18.3781 C.ar    1  UNL1        0.0753
     20 CL          5.2700    0.0736   17.9291 Cl      1  UNL1       -0.0807
     21 C          -1.0660    4.3346   21.5495 C.3     1  UNL1        0.1544
     22 C          -2.3554    3.9210   22.1949 C.ar    1  UNL1        0.0819
     23 C          -3.5074    3.4693   21.3471 C.ar    1  UNL1        0.0167
     24 C          -4.7967    3.0557   21.9925 C.ar    1  UNL1        0.0029
     25 C          -4.9340    3.0938   23.4857 C.ar    1  UNL1        0.0207
     26 C          -3.7820    3.5454   24.3335 C.ar    1  UNL1        0.0985
     27 N          -2.4927    3.9590   23.6881 N.ar    1  UNL1       -0.2462
@<TRIPOS>BOND
     1     1     2    1
     2     2     3   ar
     3     3     4   ar
     4     4     5    2
     5     4     6   ar
     6     6    14    1
     7    14    15   ar
     8    15    16   ar
     9    16    17   ar
    10    17    18   ar
    11    18    19   ar
    12    19    20    1
    13     6     7   ar
    14     7     8   ar
    15     8     9   ar
    16     9    10   ar
    17    10    11    2
    18    10    12   ar
    19    12    21    1
    20    21    22    1
    21    22    23   ar
    22    23    24   ar
    23    24    25   ar
    24    25    26   ar
    25    26    27   ar
    26    12     2   ar
    27    27    22   ar
    28     8     3   ar
    29    19    14   ar
    30     7    13    1
