@<TRIPOS>MOLECULE
*****
 20 22 0 0 0
SMALL
GASTEIGER

@<TRIPOS>ATOM
      1 C          -9.8317  -16.7761   22.1551 C.ar    1  UNL1        0.0281
      2 C         -11.1780  -16.1332   22.0000 C.ar    1  UNL1        0.0994
      3 N         -12.1341  -16.6367   20.9597 N.ar    1  UNL1       -0.2423
      4 C         -11.7439  -17.7831   20.0745 C.ar    1  UNL1        0.0990
      5 C         -10.3976  -18.4260   20.2297 C.ar    1  UNL1        0.0237
      6 C          -9.4415  -17.9225   21.2700 C.ar    1  UNL1        0.0381
      7 C          -7.8119  -15.8290   25.3315 C.ar    1  UNL1        0.0230
      8 C          -6.9963  -15.1664   24.2611 C.ar    1  UNL1        0.0040
      9 C          -7.6536  -15.4405   22.9410 C.ar    1  UNL1        0.0067
     10 C          -8.8755  -16.2725   23.1955 C.ar    1  UNL1        0.0308
     11 S          -8.9733  -16.5126   24.6729 S.2     1  UNL1       -0.0899
     12 N          -6.6360  -14.7428   27.3779 N.3     1  UNL1       -0.3170
     13 C          -7.5178  -15.8111   26.8023 C.3     1  UNL1        0.0987
     14 H          -6.5448  -14.8829   28.3841 H       1  UNL1        0.1192
     15 H          -7.0490  -13.8277   27.1980 H       1  UNL1        0.1192
     16 C          -8.0951  -18.5653   21.4252 C.ar    1  UNL1        0.1456
     17 C          -7.7698  -19.7258   22.3182 C.ar    1  UNL1        0.0407
     18 C          -6.3113  -20.0382   22.1595 C.ar    1  UNL1        0.0438
     19 C          -5.7352  -19.0709   21.1684 C.ar    1  UNL1        0.1796
     20 O          -6.8376  -18.1606   20.7145 O.2     1  UNL1       -0.4504
@<TRIPOS>BOND
     1    12    13    1
     2    13     7    1
     3     7     8   ar
     4     8     9   ar
     5     9    10   ar
     6    10     1    1
     7     1     2   ar
     8     2     3   ar
     9     3     4   ar
    10     4     5   ar
    11     5     6   ar
    12     6    16    1
    13    16    17   ar
    14    17    18   ar
    15    18    19   ar
    16    19    20   ar
    17    10    11   ar
    18    11     7   ar
    19     6     1   ar
    20    20    16   ar
    21    12    14    1
    22    12    15    1
@<TRIPOS>MOLECULE
*****
 20 22 0 0 0
SMALL
GASTEIGER

@<TRIPOS>ATOM
      1 C          -9.6362  -18.2979   21.5527 C.ar    1  UNL1        0.0281
      2 C          -9.6445  -19.1631   20.3275 C.ar    1  UNL1        0.0994
      3 N          -8.3505  -19.6385   19.7363 N.ar    1  UNL1       -0.2423
      4 C          -7.0482  -19.2486   20.3703 C.ar    1  UNL1        0.0990
      5 C          -7.0399  -18.3833   21.5955 C.ar    1  UNL1        0.0237
      6 C          -8.3339  -17.9080   22.1867 C.ar    1  UNL1        0.0381
      7 C         -13.0204  -17.7609   23.3760 C.ar    1  UNL1        0.0230
      8 C         -12.8225  -16.4208   22.7317 C.ar    1  UNL1        0.0040
      9 C         -11.5307  -16.4589   21.9703 C.ar    1  UNL1        0.0067
     10 C         -10.9302  -17.8225   22.1440 C.ar    1  UNL1        0.0308
     11 S         -11.8509  -18.6271   23.0128 S.2     1  UNL1       -0.0899
     12 N         -13.9631  -18.5390   25.6686 N.3     1  UNL1       -0.3170
     13 C         -14.1836  -18.1640   24.2331 C.3     1  UNL1        0.0987
     14 H         -14.8558  -18.7835   26.0971 H       1  UNL1        0.1192
     15 H         -13.5517  -17.7497   26.1669 H       1  UNL1        0.1192
     16 C          -8.3256  -17.0427   23.4120 C.ar    1  UNL1        0.1456
     17 C          -7.7787  -15.6489   23.5035 C.ar    1  UNL1        0.0407
     18 C          -7.9779  -15.1641   24.9089 C.ar    1  UNL1        0.0438
     19 C          -8.6479  -16.2583   25.6861 C.ar    1  UNL1        0.1796
     20 O          -8.8628  -17.4192   24.7610 O.2     1  UNL1       -0.4504
@<TRIPOS>BOND
     1    12    13    1
     2    13     7    1
     3     7     8   ar
     4     8     9   ar
     5     9    10   ar
     6    10     1    1
     7     1     2   ar
     8     2     3   ar
     9     3     4   ar
    10     4     5   ar
    11     5     6   ar
    12     6    16    1
    13    16    17   ar
    14    17    18   ar
    15    18    19   ar
    16    19    20   ar
    17    10    11   ar
    18    11     7   ar
    19     6     1   ar
    20    20    16   ar
    21    12    14    1
    22    12    15    1
@<TRIPOS>MOLECULE
*****
 20 22 0 0 0
SMALL
GASTEIGER

@<TRIPOS>ATOM
      1 C         -10.0310  -18.0273   21.7555 C.ar    1  UNL1        0.0281
      2 C         -11.1754  -18.5436   20.9347 C.ar    1  UNL1        0.0994
      3 N         -12.4919  -17.8249   20.9478 N.ar    1  UNL1       -0.2423
      4 C         -12.6640  -16.5899   21.7816 C.ar    1  UNL1        0.0990
      5 C         -11.5196  -16.0736   22.6023 C.ar    1  UNL1        0.0237
      6 C         -10.2030  -16.7923   22.5893 C.ar    1  UNL1        0.0381
      7 C          -6.4748  -19.4499   21.1265 C.ar    1  UNL1        0.0230
      8 C          -6.9020  -20.2540   22.3186 C.ar    1  UNL1        0.0040
      9 C          -8.2861  -19.8190   22.6992 C.ar    1  UNL1        0.0067
     10 C          -8.7143  -18.7460   21.7425 C.ar    1  UNL1        0.0308
     11 S          -7.5949  -18.5179   20.7706 S.2     1  UNL1       -0.0899
     12 N          -4.7360  -18.4895   19.4519 N.3     1  UNL1       -0.3170
     13 C          -5.1585  -19.5586   20.4154 C.3     1  UNL1        0.0987
     14 H          -3.8223  -18.7234   19.0637 H       1  UNL1        0.1192
     15 H          -4.6795  -17.5954   19.9395 H       1  UNL1        0.1192
     16 C          -9.0585  -16.2760   23.4101 C.ar    1  UNL1        0.1456
     17 C          -8.8764  -16.4657   24.8868 C.ar    1  UNL1        0.0407
     18 C          -7.6006  -15.7863   25.2876 C.ar    1  UNL1        0.0438
     19 C          -6.9941  -15.1767   24.0584 C.ar    1  UNL1        0.1796
     20 O          -7.8952  -15.4794   22.8981 O.2     1  UNL1       -0.4504
@<TRIPOS>BOND
     1    12    13    1
     2    13     7    1
     3     7     8   ar
     4     8     9   ar
     5     9    10   ar
     6    10     1    1
     7     1     2   ar
     8     2     3   ar
     9     3     4   ar
    10     4     5   ar
    11     5     6   ar
    12     6    16    1
    13    16    17   ar
    14    17    18   ar
    15    18    19   ar
    16    19    20   ar
    17    10    11   ar
    18    11     7   ar
    19     6     1   ar
    20    20    16   ar
    21    12    14    1
    22    12    15    1
@<TRIPOS>MOLECULE
*****
 20 22 0 0 0
SMALL
GASTEIGER

@<TRIPOS>ATOM
      1 C          -9.8393  -16.4789   21.9587 C.ar    1  UNL1        0.0281
      2 C         -10.0954  -15.4486   20.8991 C.ar    1  UNL1        0.0994
      3 N         -10.9763  -15.7777   19.7304 N.ar    1  UNL1       -0.2423
      4 C         -11.6011  -17.1370   19.6214 C.ar    1  UNL1        0.0990
      5 C         -11.3450  -18.1673   20.6811 C.ar    1  UNL1        0.0237
      6 C         -10.4641  -17.8382   21.8497 C.ar    1  UNL1        0.0381
      7 C          -6.9990  -15.6885   24.4833 C.ar    1  UNL1        0.0230
      8 C          -8.2068  -15.5987   25.3684 C.ar    1  UNL1        0.0040
      9 C          -9.4178  -15.8839   24.5304 C.ar    1  UNL1        0.0067
     10 C          -8.9584  -16.1499   23.1274 C.ar    1  UNL1        0.0308
     11 S          -7.4636  -16.0292   23.0983 S.2     1  UNL1       -0.0899
     12 N          -5.2455  -14.4113   25.9129 N.3     1  UNL1       -0.3170
     13 C          -5.5765  -15.4751   24.9086 C.3     1  UNL1        0.0987
     14 H          -4.2399  -14.4060   26.0836 H       1  UNL1        0.1192
     15 H          -5.7375  -14.6028   26.7857 H       1  UNL1        0.1192
     16 C         -10.2080  -18.8686   22.9094 C.ar    1  UNL1        0.1456
     17 C          -9.1524  -19.9334   22.8670 C.ar    1  UNL1        0.0407
     18 C          -9.2545  -20.7378   24.1289 C.ar    1  UNL1        0.0438
     19 C         -10.3732  -20.1701   24.9513 C.ar    1  UNL1        0.1796
     20 O         -10.9625  -19.0148   24.1976 O.2     1  UNL1       -0.4504
@<TRIPOS>BOND
     1    12    13    1
     2    13     7    1
     3     7     8   ar
     4     8     9   ar
     5     9    10   ar
     6    10     1    1
     7     1     2   ar
     8     2     3   ar
     9     3     4   ar
    10     4     5   ar
    11     5     6   ar
    12     6    16    1
    13    16    17   ar
    14    17    18   ar
    15    18    19   ar
    16    19    20   ar
    17    10    11   ar
    18    11     7   ar
    19     6     1   ar
    20    20    16   ar
    21    12    14    1
    22    12    15    1
@<TRIPOS>MOLECULE
*****
 20 22 0 0 0
SMALL
GASTEIGER

@<TRIPOS>ATOM
      1 C          -8.2825  -18.9471   21.5598 C.ar    1  UNL1        0.0281
      2 C          -7.0352  -19.7638   21.3947 C.ar    1  UNL1        0.0994
      3 N          -6.8077  -20.5382   20.1304 N.ar    1  UNL1       -0.2423
      4 C          -7.8275  -20.4959   19.0312 C.ar    1  UNL1        0.0990
      5 C          -9.0748  -19.6792   19.1963 C.ar    1  UNL1        0.0237
      6 C          -9.3023  -18.9048   20.4606 C.ar    1  UNL1        0.0381
      7 C          -8.4051  -16.4395   24.5200 C.ar    1  UNL1        0.0230
      8 C          -9.3151  -17.5224   25.0195 C.ar    1  UNL1        0.0040
      9 C          -9.3799  -18.5934   23.9714 C.ar    1  UNL1        0.0067
     10 C          -8.5100  -18.1726   22.8241 C.ar    1  UNL1        0.0308
     11 S          -7.9075  -16.8415   23.1632 S.2     1  UNL1       -0.0899
     12 N          -6.8445  -14.3878   24.8440 N.3     1  UNL1       -0.3170
     13 C          -8.0543  -15.1765   25.2492 C.3     1  UNL1        0.0987
     14 H          -6.7584  -13.5660   25.4420 H       1  UNL1        0.1192
     15 H          -6.9408  -14.0927   23.8724 H       1  UNL1        0.1192
     16 C         -10.5496  -18.0881   20.6257 C.ar    1  UNL1        0.1456
     17 C         -11.8150  -18.5366   21.2947 C.ar    1  UNL1        0.0407
     18 C         -12.7979  -17.4051   21.2333 C.ar    1  UNL1        0.0438
     19 C         -12.1399  -16.2573   20.5264 C.ar    1  UNL1        0.1796
     20 O         -10.7504  -16.6794   20.1509 O.2     1  UNL1       -0.4504
@<TRIPOS>BOND
     1    12    13    1
     2    13     7    1
     3     7     8   ar
     4     8     9   ar
     5     9    10   ar
     6    10     1    1
     7     1     2   ar
     8     2     3   ar
     9     3     4   ar
    10     4     5   ar
    11     5     6   ar
    12     6    16    1
    13    16    17   ar
    14    17    18   ar
    15    18    19   ar
    16    19    20   ar
    17    10    11   ar
    18    11     7   ar
    19     6     1   ar
    20    20    16   ar
    21    12    14    1
    22    12    15    1
@<TRIPOS>MOLECULE
*****
 20 22 0 0 0
SMALL
GASTEIGER

@<TRIPOS>ATOM
      1 C          -8.4394  -17.8961   21.6430 C.ar    1  UNL1        0.0281
      2 C          -7.2333  -18.4768   20.9661 C.ar    1  UNL1        0.0994
      3 N          -7.3995  -19.3553   19.7618 N.ar    1  UNL1       -0.2423
      4 C          -8.7717  -19.6531   19.2342 C.ar    1  UNL1        0.0990
      5 C          -9.9778  -19.0725   19.9111 C.ar    1  UNL1        0.0237
      6 C          -9.8116  -18.1940   21.1155 C.ar    1  UNL1        0.0381
      7 C          -8.2591  -16.2231   25.1407 C.ar    1  UNL1        0.0230
      8 C          -7.7762  -15.1082   24.2609 C.ar    1  UNL1        0.0040
      9 C          -7.7850  -15.5993   22.8436 C.ar    1  UNL1        0.0067
     10 C          -8.2733  -17.0176   22.8475 C.ar    1  UNL1        0.0308
     11 S          -8.5663  -17.4031   24.2671 S.2     1  UNL1       -0.0899
     12 N          -8.1613  -14.8815   27.3635 N.3     1  UNL1       -0.3170
     13 C          -8.4085  -16.1676   26.6323 C.3     1  UNL1        0.0987
     14 H          -8.3074  -15.0250   28.3627 H       1  UNL1        0.1192
     15 H          -8.8068  -14.1682   27.0245 H       1  UNL1        0.1192
     16 C         -11.0177  -17.6133   21.7924 C.ar    1  UNL1        0.1456
     17 C         -11.9939  -18.3628   22.6499 C.ar    1  UNL1        0.0407
     18 C         -13.0389  -17.3939   23.1181 C.ar    1  UNL1        0.0438
     19 C         -12.7085  -16.0454   22.5500 C.ar    1  UNL1        0.1796
     20 O         -11.4594  -16.1811   21.7307 O.2     1  UNL1       -0.4504
@<TRIPOS>BOND
     1    12    13    1
     2    13     7    1
     3     7     8   ar
     4     8     9   ar
     5     9    10   ar
     6    10     1    1
     7     1     2   ar
     8     2     3   ar
     9     3     4   ar
    10     4     5   ar
    11     5     6   ar
    12     6    16    1
    13    16    17   ar
    14    17    18   ar
    15    18    19   ar
    16    19    20   ar
    17    10    11   ar
    18    11     7   ar
    19     6     1   ar
    20    20    16   ar
    21    12    14    1
    22    12    15    1
@<TRIPOS>MOLECULE
*****
 20 22 0 0 0
SMALL
GASTEIGER

@<TRIPOS>ATOM
      1 C          -9.5537  -19.1818   22.6284 C.ar    1  UNL1        0.0281
      2 C          -9.4189  -20.1664   23.7519 C.ar    1  UNL1        0.0994
      3 N         -10.3700  -20.1168   24.9107 N.ar    1  UNL1       -0.2423
      4 C         -11.4558  -19.0825   24.9460 C.ar    1  UNL1        0.0990
      5 C         -11.5905  -18.0979   23.8225 C.ar    1  UNL1        0.0237
      6 C         -10.6395  -18.1476   22.6637 C.ar    1  UNL1        0.0381
      7 C          -6.5659  -19.1731   20.1507 C.ar    1  UNL1        0.0230
      8 C          -7.7122  -19.4427   19.2215 C.ar    1  UNL1        0.0040
      9 C          -8.9709  -19.4788   20.0365 C.ar    1  UNL1        0.0067
     10 C          -8.6026  -19.2315   21.4694 C.ar    1  UNL1        0.0308
     11 S          -7.1162  -19.0425   21.5399 S.2     1  UNL1       -0.0899
     12 N          -4.1313  -18.4658   20.7185 N.3     1  UNL1       -0.3170
     13 C          -5.1227  -19.0548   19.7592 C.3     1  UNL1        0.0987
     14 H          -3.2052  -18.4627   20.2911 H       1  UNL1        0.1192
     15 H          -4.1102  -19.0247   21.5715 H       1  UNL1        0.1192
     16 C         -10.7742  -17.1629   21.5401 C.ar    1  UNL1        0.1456
     17 C         -11.8405  -17.1694   20.4852 C.ar    1  UNL1        0.0407
     18 C         -11.5916  -16.0095   19.5673 C.ar    1  UNL1        0.0438
     19 C         -10.3713  -15.2861   20.0549 C.ar    1  UNL1        0.1796
     20 O          -9.8662  -15.9990   21.2741 O.2     1  UNL1       -0.4504
@<TRIPOS>BOND
     1    12    13    1
     2    13     7    1
     3     7     8   ar
     4     8     9   ar
     5     9    10   ar
     6    10     1    1
     7     1     2   ar
     8     2     3   ar
     9     3     4   ar
    10     4     5   ar
    11     5     6   ar
    12     6    16    1
    13    16    17   ar
    14    17    18   ar
    15    18    19   ar
    16    19    20   ar
    17    10    11   ar
    18    11     7   ar
    19     6     1   ar
    20    20    16   ar
    21    12    14    1
    22    12    15    1
@<TRIPOS>MOLECULE
*****
 20 22 0 0 0
SMALL
GASTEIGER

@<TRIPOS>ATOM
      1 C         -11.3708   -2.4423   17.7987 C.ar    1  UNL1        0.0281
      2 C         -10.5183   -1.4940   17.0088 C.ar    1  UNL1        0.0994
      3 N         -10.9802   -0.0860   16.7766 N.ar    1  UNL1       -0.2423
      4 C         -12.2945    0.3739   17.3344 C.ar    1  UNL1        0.0990
      5 C         -13.1470   -0.5744   18.1243 C.ar    1  UNL1        0.0237
      6 C         -12.6851   -1.9825   18.3565 C.ar    1  UNL1        0.0381
      7 C         -10.6666   -6.2589   17.8546 C.ar    1  UNL1        0.0230
      8 C          -9.7299   -5.7757   18.9220 C.ar    1  UNL1        0.0040
      9 C          -9.8797   -4.2872   19.0309 C.ar    1  UNL1        0.0067
     10 C         -10.9090   -3.8505   18.0309 C.ar    1  UNL1        0.0308
     11 S         -11.3952   -5.0690   17.3039 S.2     1  UNL1       -0.0899
     12 N          -9.8595   -8.7285   17.8475 N.3     1  UNL1       -0.3170
     13 C         -10.8435   -7.6822   17.4151 C.3     1  UNL1        0.0987
     14 H         -10.1317   -9.6319   17.4601 H       1  UNL1        0.1192
     15 H          -9.8485   -8.7846   18.8659 H       1  UNL1        0.1192
     16 C         -13.5376   -2.9308   19.1465 C.ar    1  UNL1        0.1456
     17 C         -13.4558   -3.1669   20.6255 C.ar    1  UNL1        0.0407
     18 C         -14.4892   -4.1915   20.9892 C.ar    1  UNL1        0.0438
     19 C         -15.2097   -4.5887   19.7348 C.ar    1  UNL1        0.1796
     20 O         -14.6215   -3.8096   18.5960 O.2     1  UNL1       -0.4504
@<TRIPOS>BOND
     1    12    13    1
     2    13     7    1
     3     7     8   ar
     4     8     9   ar
     5     9    10   ar
     6    10     1    1
     7     1     2   ar
     8     2     3   ar
     9     3     4   ar
    10     4     5   ar
    11     5     6   ar
    12     6    16    1
    13    16    17   ar
    14    17    18   ar
    15    18    19   ar
    16    19    20   ar
    17    10    11   ar
    18    11     7   ar
    19     6     1   ar
    20    20    16   ar
    21    12    14    1
    22    12    15    1
@<TRIPOS>MOLECULE
*****
 20 22 0 0 0
SMALL
GASTEIGER

@<TRIPOS>ATOM
      1 C         -12.2180   -6.9103   18.0867 C.ar    1  UNL1        0.0281
      2 C         -10.9474   -7.6517   17.7937 C.ar    1  UNL1        0.0994
      3 N          -9.6263   -7.0609   18.1883 N.ar    1  UNL1       -0.2423
      4 C          -9.5759   -5.7288   18.8760 C.ar    1  UNL1        0.0990
      5 C         -10.8464   -4.9874   19.1690 C.ar    1  UNL1        0.0237
      6 C         -12.1675   -5.5781   18.7744 C.ar    1  UNL1        0.0381
      7 C         -15.5948   -8.7907   17.7305 C.ar    1  UNL1        0.0230
      8 C         -15.5495   -8.0292   16.4390 C.ar    1  UNL1        0.0040
      9 C         -14.2790   -7.2321   16.4152 C.ar    1  UNL1        0.0067
     10 C         -13.5391   -7.5010   17.6921 C.ar    1  UNL1        0.0308
     11 S         -14.3523   -8.4643   18.5049 S.2     1  UNL1       -0.0899
     12 N         -16.3730  -11.1388   18.5247 N.3     1  UNL1       -0.3170
     13 C         -16.6902   -9.7162   18.1704 C.3     1  UNL1        0.0987
     14 H         -17.2295  -11.6199   18.7995 H       1  UNL1        0.1192
     15 H         -15.7097  -11.1565   19.2993 H       1  UNL1        0.1192
     16 C         -13.4382   -4.8367   19.0674 C.ar    1  UNL1        0.1456
     17 C         -14.1234   -4.7537   20.3992 C.ar    1  UNL1        0.0407
     18 C         -15.3554   -3.9139   20.2349 C.ar    1  UNL1        0.0438
     19 C         -15.4316   -3.4779   18.8017 C.ar    1  UNL1        0.1796
     20 O         -14.2466   -4.0483   18.0801 O.2     1  UNL1       -0.4504
@<TRIPOS>BOND
     1    12    13    1
     2    13     7    1
     3     7     8   ar
     4     8     9   ar
     5     9    10   ar
     6    10     1    1
     7     1     2   ar
     8     2     3   ar
     9     3     4   ar
    10     4     5   ar
    11     5     6   ar
    12     6    16    1
    13    16    17   ar
    14    17    18   ar
    15    18    19   ar
    16    19    20   ar
    17    10    11   ar
    18    11     7   ar
    19     6     1   ar
    20    20    16   ar
    21    12    14    1
    22    12    15    1
