@<TRIPOS>MOLECULE
*****
 21 22 0 0 0
SMALL
GASTEIGER

@<TRIPOS>ATOM
      1 N          -8.0994  -18.9089   21.7709 N.pl3   1  UNL1       -0.2877
      2 C          -8.1828  -17.7342   22.7000 C.ar    1  UNL1        0.1320
      3 C          -9.0814  -17.7892   23.8998 C.ar    1  UNL1        0.0343
      4 C          -9.1648  -16.6146   24.8289 C.ar    1  UNL1        0.0045
      5 C          -8.3497  -15.3848   24.5583 C.ar    1  UNL1        0.0208
      6 C          -7.4511  -15.3298   23.3585 C.ar    1  UNL1        0.1003
      7 N          -7.3677  -16.5045   22.4293 N.ar    1  UNL1       -0.2292
      8 C          -7.1132  -20.0072   22.0372 C.3     1  UNL1        0.1189
      9 C          -2.7919  -19.4757   20.8997 C.ar    1  UNL1        0.1387
     10 C          -3.3065  -18.8948   22.1833 C.ar    1  UNL1        0.0366
     11 C          -4.7470  -19.0719   22.5625 C.ar    1  UNL1        0.0005
     12 C          -5.6728  -19.8300   21.6580 C.ar    1  UNL1       -0.0022
     13 C          -5.1582  -20.4110   20.3744 C.ar    1  UNL1        0.0005
     14 C          -3.7178  -20.2338   19.9953 C.ar    1  UNL1        0.0366
     15 C          -0.9224  -18.0848   19.7508 C.3     1  UNL1        0.2525
     16 O          -1.3515  -19.2986   20.5206 O.3     1  UNL1       -0.4714
     17 C          -9.0023  -18.9851   20.5755 C.3     1  UNL1        0.1098
     18 C         -10.4738  -19.2103   20.7601 C.3     1  UNL1        0.0939
     19 N         -11.3995  -18.0389   20.9046 N.3     1  UNL1       -0.2688
     20 C         -12.3640  -17.9822   22.0519 C.3     1  UNL1        0.0897
     21 C         -11.3606  -16.9241   19.9016 C.3     1  UNL1        0.0897
@<TRIPOS>BOND
     1    15    16    1
     2    16     9    1
     3     9    10   ar
     4    10    11   ar
     5    11    12   ar
     6    12     8    1
     7     8     1    1
     8     1    17    1
     9    17    18    1
    10    18    19    1
    11    19    20    1
    12    19    21    1
    13     1     2    1
    14     2     3   ar
    15     3     4   ar
    16     4     5   ar
    17     5     6   ar
    18     6     7   ar
    19    12    13   ar
    20    13    14   ar
    21    14     9   ar
    22     7     2   ar
@<TRIPOS>MOLECULE
*****
 21 22 0 0 0
SMALL
GASTEIGER

@<TRIPOS>ATOM
      1 N          -7.0384  -18.7602   22.1968 N.pl3   1  UNL1       -0.2877
      2 C          -8.4378  -19.0639   21.7501 C.ar    1  UNL1        0.1320
      3 C          -9.3993  -19.7248   22.6928 C.ar    1  UNL1        0.0343
      4 C         -10.7986  -20.0284   22.2461 C.ar    1  UNL1        0.0045
      5 C         -11.2365  -19.6712   20.8566 C.ar    1  UNL1        0.0208
      6 C         -10.2750  -19.0103   19.9138 C.ar    1  UNL1        0.1003
      7 N          -8.8756  -18.7066   20.3606 N.ar    1  UNL1       -0.2292
      8 C          -5.9732  -19.8112   22.0930 C.3     1  UNL1        0.1189
      9 C          -2.0421  -18.8443   20.1280 C.ar    1  UNL1        0.1387
     10 C          -2.1280  -18.9496   21.6218 C.ar    1  UNL1        0.0366
     11 C          -3.4384  -19.2719   22.2768 C.ar    1  UNL1        0.0005
     12 C          -4.6629  -19.4889   21.4380 C.ar    1  UNL1       -0.0022
     13 C          -4.5769  -19.3836   19.9442 C.ar    1  UNL1        0.0005
     14 C          -3.2665  -19.0613   19.2892 C.ar    1  UNL1        0.0366
     15 C           0.1452  -17.4450   20.0397 C.3     1  UNL1        0.2525
     16 O          -0.7317  -18.5220   19.4730 O.3     1  UNL1       -0.4714
     17 C          -6.7042  -17.4055   22.7475 C.3     1  UNL1        0.1098
     18 C          -7.7589  -16.5983   23.4447 C.3     1  UNL1        0.0939
     19 N          -7.4121  -15.8154   24.6763 N.3     1  UNL1       -0.2688
     20 C          -5.9965  -15.3804   24.9147 C.3     1  UNL1        0.0897
     21 C          -8.4810  -15.4675   25.6696 C.3     1  UNL1        0.0897
@<TRIPOS>BOND
     1    15    16    1
     2    16     9    1
     3     9    10   ar
     4    10    11   ar
     5    11    12   ar
     6    12     8    1
     7     8     1    1
     8     1    17    1
     9    17    18    1
    10    18    19    1
    11    19    20    1
    12    19    21    1
    13     1     2    1
    14     2     3   ar
    15     3     4   ar
    16     4     5   ar
    17     5     6   ar
    18     6     7   ar
    19    12    13   ar
    20    13    14   ar
    21    14     9   ar
    22     7     2   ar
@<TRIPOS>MOLECULE
*****
 21 22 0 0 0
SMALL
GASTEIGER

@<TRIPOS>ATOM
      1 N          -7.7026  -17.8261   22.3990 N.pl3   1  UNL1       -0.2877
      2 C          -9.0647  -17.7228   21.7791 C.ar    1  UNL1        0.1320
      3 C          -9.8865  -18.9591   21.5641 C.ar    1  UNL1        0.0343
      4 C         -11.2485  -18.8560   20.9443 C.ar    1  UNL1        0.0045
      5 C         -11.7887  -17.5165   20.5393 C.ar    1  UNL1        0.0208
      6 C         -10.9669  -16.2802   20.7543 C.ar    1  UNL1        0.1003
      7 N          -9.6049  -16.3834   21.3742 N.ar    1  UNL1       -0.2292
      8 C          -6.9296  -19.1078   22.3020 C.3     1  UNL1        0.1189
      9 C          -2.7009  -19.0742   20.7635 C.ar    1  UNL1        0.1387
     10 C          -3.8421  -19.2972   19.8158 C.ar    1  UNL1        0.0366
     11 C          -5.2516  -19.3084   20.3287 C.ar    1  UNL1        0.0005
     12 C          -5.5201  -19.0966   21.7892 C.ar    1  UNL1       -0.0022
     13 C          -4.3789  -18.8737   22.7368 C.ar    1  UNL1        0.0005
     14 C          -2.9694  -18.8624   22.2240 C.ar    1  UNL1        0.0366
     15 C          -0.6469  -17.7671   19.8566 C.3     1  UNL1        0.2525
     16 O          -1.2914  -19.0630   20.2506 O.3     1  UNL1       -0.4714
     17 C          -7.1137  -16.6474   23.1159 C.3     1  UNL1        0.1098
     18 C          -7.8020  -16.0836   24.3236 C.3     1  UNL1        0.0939
     19 N          -6.9992  -15.6832   25.5258 N.3     1  UNL1       -0.2688
     20 C          -7.6554  -15.5997   26.8720 C.3     1  UNL1        0.0897
     21 C          -5.5400  -15.3664   25.3817 C.3     1  UNL1        0.0897
@<TRIPOS>BOND
     1    15    16    1
     2    16     9    1
     3     9    10   ar
     4    10    11   ar
     5    11    12   ar
     6    12     8    1
     7     8     1    1
     8     1    17    1
     9    17    18    1
    10    18    19    1
    11    19    20    1
    12    19    21    1
    13     1     2    1
    14     2     3   ar
    15     3     4   ar
    16     4     5   ar
    17     5     6   ar
    18     6     7   ar
    19    12    13   ar
    20    13    14   ar
    21    14     9   ar
    22     7     2   ar
@<TRIPOS>MOLECULE
*****
 21 22 0 0 0
SMALL
GASTEIGER

@<TRIPOS>ATOM
      1 N          -7.9479  -16.9633   22.9214 N.pl3   1  UNL1       -0.2877
      2 C          -7.5958  -16.4158   24.2729 C.ar    1  UNL1        0.1320
      3 C          -6.2681  -15.7528   24.4908 C.ar    1  UNL1        0.0343
      4 C          -5.9160  -15.2053   25.8421 C.ar    1  UNL1        0.0045
      5 C          -6.8917  -15.3207   26.9757 C.ar    1  UNL1        0.0208
      6 C          -8.2194  -15.9837   26.7577 C.ar    1  UNL1        0.1003
      7 N          -8.5715  -16.5312   25.4063 N.ar    1  UNL1       -0.2292
      8 C          -7.5379  -18.3567   22.5467 C.3     1  UNL1        0.1189
      9 C          -3.4748  -19.1033   20.7625 C.ar    1  UNL1        0.1387
     10 C          -3.5979  -18.6777   22.1955 C.ar    1  UNL1        0.0366
     11 C          -4.9523  -18.4288   22.7902 C.ar    1  UNL1        0.0005
     12 C          -6.1835  -18.6055   21.9519 C.ar    1  UNL1       -0.0022
     13 C          -6.0604  -19.0311   20.5189 C.ar    1  UNL1        0.0005
     14 C          -4.7060  -19.2800   19.9242 C.ar    1  UNL1        0.0366
     15 C          -1.3076  -18.2042   19.6467 C.3     1  UNL1        0.2525
     16 O          -2.1204  -19.3522   20.1677 O.3     1  UNL1       -0.4714
     17 C          -8.7100  -16.1175   21.9449 C.3     1  UNL1        0.1098
     18 C         -10.1880  -16.3120   21.7778 C.3     1  UNL1        0.0939
     19 N         -10.7391  -16.7805   20.4637 N.3     1  UNL1       -0.2688
     20 C         -10.5903  -18.2167   20.0573 C.3     1  UNL1        0.0897
     21 C         -11.4389  -15.8128   19.5560 C.3     1  UNL1        0.0897
@<TRIPOS>BOND
     1    15    16    1
     2    16     9    1
     3     9    10   ar
     4    10    11   ar
     5    11    12   ar
     6    12     8    1
     7     8     1    1
     8     1    17    1
     9    17    18    1
    10    18    19    1
    11    19    20    1
    12    19    21    1
    13     1     2    1
    14     2     3   ar
    15     3     4   ar
    16     4     5   ar
    17     5     6   ar
    18     6     7   ar
    19    12    13   ar
    20    13    14   ar
    21    14     9   ar
    22     7     2   ar
@<TRIPOS>MOLECULE
*****
 21 22 0 0 0
SMALL
GASTEIGER

@<TRIPOS>ATOM
      1 N          -8.3064  -19.0924   21.8230 N.pl3   1  UNL1       -0.2877
      2 C          -8.4691  -17.9954   22.8331 C.ar    1  UNL1        0.1320
      3 C          -7.7942  -16.6729   22.6194 C.ar    1  UNL1        0.0343
      4 C          -7.9568  -15.5760   23.6294 C.ar    1  UNL1        0.0045
      5 C          -8.7944  -15.8014   24.8532 C.ar    1  UNL1        0.0208
      6 C          -9.4694  -17.1238   25.0670 C.ar    1  UNL1        0.1003
      7 N          -9.3067  -18.2208   24.0569 N.ar    1  UNL1       -0.2292
      8 C          -7.1550  -20.0475   21.9320 C.3     1  UNL1        0.1189
      9 C          -3.0470  -18.7804   20.6019 C.ar    1  UNL1        0.1387
     10 C          -4.1431  -18.9503   19.5921 C.ar    1  UNL1        0.0366
     11 C          -5.5124  -19.3727   20.0355 C.ar    1  UNL1        0.0005
     12 C          -5.7857  -19.6251   21.4886 C.ar    1  UNL1       -0.0022
     13 C          -4.6895  -19.4552   22.4983 C.ar    1  UNL1        0.0005
     14 C          -3.3202  -19.0329   22.0550 C.ar    1  UNL1        0.0366
     15 C          -1.4754  -17.7935   18.7836 C.3     1  UNL1        0.2525
     16 O          -1.6777  -18.3581   20.1585 O.3     1  UNL1       -0.4714
     17 C          -9.2952  -19.2342   20.7040 C.3     1  UNL1        0.1098
     18 C         -10.7646  -19.2777   21.0026 C.3     1  UNL1        0.0939
     19 N         -11.5835  -18.0235   20.9234 N.3     1  UNL1       -0.2688
     20 C         -11.2454  -16.9697   19.9109 C.3     1  UNL1        0.0897
     21 C         -12.7406  -17.8230   21.8568 C.3     1  UNL1        0.0897
@<TRIPOS>BOND
     1    15    16    1
     2    16     9    1
     3     9    10   ar
     4    10    11   ar
     5    11    12   ar
     6    12     8    1
     7     8     1    1
     8     1    17    1
     9    17    18    1
    10    18    19    1
    11    19    20    1
    12    19    21    1
    13     1     2    1
    14     2     3   ar
    15     3     4   ar
    16     4     5   ar
    17     5     6   ar
    18     6     7   ar
    19    12    13   ar
    20    13    14   ar
    21    14     9   ar
    22     7     2   ar
@<TRIPOS>MOLECULE
*****
 21 22 0 0 0
SMALL
GASTEIGER

@<TRIPOS>ATOM
      1 N          -6.3468  -17.2823   23.0530 N.pl3   1  UNL1       -0.2877
      2 C          -6.5518  -18.3577   22.0275 C.ar    1  UNL1        0.1320
      3 C          -6.0092  -19.7355   22.2668 C.ar    1  UNL1        0.0343
      4 C          -6.2141  -20.8108   21.2414 C.ar    1  UNL1        0.0045
      5 C          -6.9616  -20.5084   19.9765 C.ar    1  UNL1        0.0208
      6 C          -7.5042  -19.1306   19.7372 C.ar    1  UNL1        0.1003
      7 N          -7.2993  -18.0552   20.7627 N.ar    1  UNL1       -0.2292
      8 C          -7.4716  -16.3524   23.3997 C.3     1  UNL1        0.1189
      9 C         -11.7198  -17.8348   23.3292 C.ar    1  UNL1        0.1387
     10 C         -11.2360  -16.8939   22.2659 C.ar    1  UNL1        0.0366
     11 C          -9.8200  -16.3998   22.2894 C.ar    1  UNL1        0.0005
     12 C          -8.8876  -16.8465   23.3762 C.ar    1  UNL1       -0.0022
     13 C          -9.3714  -17.7874   24.4395 C.ar    1  UNL1        0.0005
     14 C         -10.7874  -18.2816   24.4160 C.ar    1  UNL1        0.0366
     15 C         -13.9700  -18.2744   24.5512 C.3     1  UNL1        0.2525
     16 O         -13.1358  -18.3290   23.3057 O.3     1  UNL1       -0.4714
     17 C          -5.0172  -17.1369   23.7319 C.3     1  UNL1        0.1098
     18 C          -3.9330  -16.3220   23.0910 C.3     1  UNL1        0.0939
     19 N          -2.8541  -16.9995   22.2992 N.3     1  UNL1       -0.2688
     20 C          -1.9061  -16.1832   21.4716 C.3     1  UNL1        0.0897
     21 C          -2.7232  -18.4934   22.3350 C.3     1  UNL1        0.0897
@<TRIPOS>BOND
     1    15    16    1
     2    16     9    1
     3     9    10   ar
     4    10    11   ar
     5    11    12   ar
     6    12     8    1
     7     8     1    1
     8     1    17    1
     9    17    18    1
    10    18    19    1
    11    19    20    1
    12    19    21    1
    13     1     2    1
    14     2     3   ar
    15     3     4   ar
    16     4     5   ar
    17     5     6   ar
    18     6     7   ar
    19    12    13   ar
    20    13    14   ar
    21    14     9   ar
    22     7     2   ar
@<TRIPOS>MOLECULE
*****
 21 22 0 0 0
SMALL
GASTEIGER

@<TRIPOS>ATOM
      1 N          -6.9647  -18.8254   21.9162 N.pl3   1  UNL1       -0.2877
      2 C          -8.3754  -19.2230   21.5969 C.ar    1  UNL1        0.1320
      3 C          -8.8445  -19.2441   20.1723 C.ar    1  UNL1        0.0343
      4 C         -10.2551  -19.6417   19.8530 C.ar    1  UNL1        0.0045
      5 C         -11.1967  -20.0182   20.9583 C.ar    1  UNL1        0.0208
      6 C         -10.7276  -19.9971   22.3829 C.ar    1  UNL1        0.1003
      7 N          -9.3169  -19.5995   22.7022 N.ar    1  UNL1       -0.2292
      8 C          -6.6151  -17.3773   22.0921 C.3     1  UNL1        0.1189
      9 C          -7.0744  -15.4251   26.1205 C.ar    1  UNL1        0.1387
     10 C          -5.7130  -15.5680   25.5071 C.ar    1  UNL1        0.0366
     11 C          -5.5599  -16.2187   24.1644 C.ar    1  UNL1        0.0005
     12 C          -6.7682  -16.7266   23.4349 C.ar    1  UNL1       -0.0022
     13 C          -8.1295  -16.5837   24.0483 C.ar    1  UNL1        0.0005
     14 C          -8.2826  -15.9330   25.3911 C.ar    1  UNL1        0.0366
     15 C          -8.5907  -14.6144   28.0682 C.3     1  UNL1        0.2525
     16 O          -7.2275  -14.7744   27.4633 O.3     1  UNL1       -0.4714
     17 C          -5.9036  -19.8759   22.0596 C.3     1  UNL1        0.1098
     18 C          -4.4746  -19.4739   22.2753 C.3     1  UNL1        0.0939
     19 N          -3.4953  -19.5478   21.1415 N.3     1  UNL1       -0.2688
     20 C          -2.1668  -18.8602   21.2519 C.3     1  UNL1        0.0897
     21 C          -3.8446  -20.3093   19.8972 C.3     1  UNL1        0.0897
@<TRIPOS>BOND
     1    15    16    1
     2    16     9    1
     3     9    10   ar
     4    10    11   ar
     5    11    12   ar
     6    12     8    1
     7     8     1    1
     8     1    17    1
     9    17    18    1
    10    18    19    1
    11    19    20    1
    12    19    21    1
    13     1     2    1
    14     2     3   ar
    15     3     4   ar
    16     4     5   ar
    17     5     6   ar
    18     6     7   ar
    19    12    13   ar
    20    13    14   ar
    21    14     9   ar
    22     7     2   ar
@<TRIPOS>MOLECULE
*****
 21 22 0 0 0
SMALL
GASTEIGER

@<TRIPOS>ATOM
      1 N          -6.0082  -16.0204   23.7878 N.pl3   1  UNL1       -0.2877
      2 C          -6.7996  -15.7588   25.0350 C.ar    1  UNL1        0.1320
      3 C          -6.1065  -15.6967   26.3638 C.ar    1  UNL1        0.0343
      4 C          -6.8977  -15.4351   27.6110 C.ar    1  UNL1        0.0045
      5 C          -8.3822  -15.2356   27.5294 C.ar    1  UNL1        0.0208
      6 C          -9.0753  -15.2976   26.2006 C.ar    1  UNL1        0.1003
      7 N          -8.2840  -15.5593   24.9534 N.ar    1  UNL1       -0.2292
      8 C          -4.5374  -15.7278   23.7576 C.3     1  UNL1        0.1189
      9 C          -1.7949  -18.2406   21.2250 C.ar    1  UNL1        0.1387
     10 C          -1.7220  -16.7442   21.1518 C.ar    1  UNL1        0.0366
     11 C          -2.6362  -15.9066   21.9960 C.ar    1  UNL1        0.0005
     12 C          -3.6232  -16.5654   22.9134 C.ar    1  UNL1       -0.0022
     13 C          -3.6961  -18.0618   22.9866 C.ar    1  UNL1        0.0005
     14 C          -2.7819  -18.8994   22.1424 C.ar    1  UNL1        0.0366
     15 C           0.0787  -18.4200   19.4340 C.3     1  UNL1        0.2525
     16 O          -0.8807  -19.0782   20.3808 O.3     1  UNL1       -0.4714
     17 C          -6.6878  -16.5747   22.5709 C.3     1  UNL1        0.1098
     18 C          -7.3981  -17.8939   22.6439 C.3     1  UNL1        0.0939
     19 N          -7.6235  -18.6944   21.3955 N.3     1  UNL1       -0.2688
     20 C          -6.4655  -19.0405   20.5072 C.3     1  UNL1        0.0897
     21 C          -9.0070  -19.1488   21.0355 C.3     1  UNL1        0.0897
@<TRIPOS>BOND
     1    15    16    1
     2    16     9    1
     3     9    10   ar
     4    10    11   ar
     5    11    12   ar
     6    12     8    1
     7     8     1    1
     8     1    17    1
     9    17    18    1
    10    18    19    1
    11    19    20    1
    12    19    21    1
    13     1     2    1
    14     2     3   ar
    15     3     4   ar
    16     4     5   ar
    17     5     6   ar
    18     6     7   ar
    19    12    13   ar
    20    13    14   ar
    21    14     9   ar
    22     7     2   ar
@<TRIPOS>MOLECULE
*****
 21 22 0 0 0
SMALL
GASTEIGER

@<TRIPOS>ATOM
      1 N          -8.3467  -16.8788   22.3459 N.pl3   1  UNL1       -0.2877
      2 C          -9.8253  -17.1236   22.2822 C.ar    1  UNL1        0.1320
      3 C         -10.6789  -16.3200   21.3464 C.ar    1  UNL1        0.0343
      4 C         -12.1574  -16.5647   21.2828 C.ar    1  UNL1        0.0045
      5 C         -12.7824  -17.6130   22.1549 C.ar    1  UNL1        0.0208
      6 C         -11.9287  -18.4165   23.0907 C.ar    1  UNL1        0.1003
      7 N         -10.4502  -18.1718   23.1543 N.ar    1  UNL1       -0.2292
      8 C          -7.3891  -17.9665   21.9589 C.3     1  UNL1        0.1189
      9 C          -8.4991  -20.8977   18.7299 C.ar    1  UNL1        0.1387
     10 C          -7.1400  -20.9571   19.3619 C.ar    1  UNL1        0.0366
     11 C          -6.7700  -19.9801   20.4382 C.ar    1  UNL1        0.0005
     12 C          -7.7591  -18.9436   20.8825 C.ar    1  UNL1       -0.0022
     13 C          -9.1181  -18.8842   20.2505 C.ar    1  UNL1        0.0005
     14 C          -9.4881  -19.8612   19.1742 C.ar    1  UNL1        0.0366
     15 C          -9.3162  -21.3777   16.3109 C.3     1  UNL1        0.2525
     16 O          -8.8690  -21.8748   17.6536 O.3     1  UNL1       -0.4714
     17 C          -7.8258  -15.5463   22.7965 C.3     1  UNL1        0.1098
     18 C          -7.3998  -15.3504   24.2214 C.3     1  UNL1        0.0939
     19 N          -5.9414  -15.2851   24.5660 N.3     1  UNL1       -0.2688
     20 C          -4.9085  -15.4634   23.4930 C.3     1  UNL1        0.0897
     21 C          -5.5159  -15.0415   25.9837 C.3     1  UNL1        0.0897
@<TRIPOS>BOND
     1    15    16    1
     2    16     9    1
     3     9    10   ar
     4    10    11   ar
     5    11    12   ar
     6    12     8    1
     7     8     1    1
     8     1    17    1
     9    17    18    1
    10    18    19    1
    11    19    20    1
    12    19    21    1
    13     1     2    1
    14     2     3   ar
    15     3     4   ar
    16     4     5   ar
    17     5     6   ar
    18     6     7   ar
    19    12    13   ar
    20    13    14   ar
    21    14     9   ar
    22     7     2   ar
