@<TRIPOS>MOLECULE
*****
 25 27 0 0 0
SMALL
GASTEIGER

@<TRIPOS>ATOM
      1 N          -5.6511  -15.8351   24.6809 N.pl3   1  UNL1       -0.3063
      2 C          -5.3275  -15.6575   26.1347 C.3     1  UNL1        0.0912
      3 C          -6.4340  -15.5195   27.1380 C.3     1  UNL1        0.0261
      4 C          -7.8642  -15.5592   26.6874 C.3     1  UNL1        0.0295
      5 C          -8.1878  -15.7367   25.2335 C.ar    1  UNL1       -0.0054
      6 C          -9.6180  -15.7764   24.7829 C.ar    1  UNL1        0.0371
      7 C          -9.9416  -15.9539   23.3290 C.ar    1  UNL1        0.1354
      8 C          -8.8350  -16.0919   22.3258 C.ar    1  UNL1        0.0414
      9 C          -7.4049  -16.0523   22.7764 C.ar    1  UNL1        0.0177
     10 C          -7.0812  -15.8747   24.2303 C.ar    1  UNL1        0.0440
     11 N         -11.3718  -15.9936   22.8784 N.pl3   1  UNL1       -0.1990
     12 H         -11.8841  -15.1573   22.7923 H       1  UNL1        0.2985
     13 C         -12.0213  -17.3073   22.5589 C.2     1  UNL1        0.3224
     14 N         -13.2717  -17.7202   23.2773 N.2     1  UNL1       -0.0985
     15 H         -13.6660  -17.1289   23.9586 H       1  UNL1        0.3633
     16 C         -11.4205  -18.2082   21.5209 C.ar    1  UNL1        0.1114
     17 C         -10.9245  -19.6057   21.7468 C.ar    1  UNL1        0.0144
     18 C         -10.4076  -20.1310   20.4404 C.ar    1  UNL1        0.0077
     19 C         -10.5843  -19.0581   19.4070 C.ar    1  UNL1        0.0357
     20 S         -11.2103  -17.8698   20.0748 S.2     1  UNL1       -0.0792
     21 C          -4.5445  -15.9730   23.6776 C.3     1  UNL1        0.1081
     22 C          -4.0047  -17.3307   23.3383 C.3     1  UNL1        0.0938
     23 C          -2.1732  -16.2332   21.8581 C.3     1  UNL1        0.0897
     24 N          -2.8313  -17.4616   22.4132 N.3     1  UNL1       -0.2688
     25 C          -2.3159  -18.8208   22.0431 C.3     1  UNL1        0.0897
@<TRIPOS>BOND
     1    23    24    1
     2    24    25    1
     3    24    22    1
     4    22    21    1
     5    21     1    1
     6     1     2    1
     7     2     3    1
     8     3     4    1
     9     4     5    1
    10     5     6   ar
    11     6     7   ar
    12     7    11    1
    13    11    13    1
    14    13    14    2
    15    13    16    1
    16    16    17   ar
    17    17    18   ar
    18    18    19   ar
    19    19    20   ar
    20     7     8   ar
    21     8     9   ar
    22     9    10   ar
    23    10     1    1
    24    10     5   ar
    25    20    16   ar
    26    11    12    1
    27    14    15    1
@<TRIPOS>MOLECULE
*****
 25 27 0 0 0
SMALL
GASTEIGER

@<TRIPOS>ATOM
      1 N          -4.0209  -19.7437   21.4094 N.pl3   1  UNL1       -0.3063
      2 C          -4.2746  -20.8262   20.4026 C.3     1  UNL1        0.0912
      3 C          -5.6601  -21.0473   19.8721 C.3     1  UNL1        0.0261
      4 C          -6.7919  -20.1859   20.3483 C.3     1  UNL1        0.0295
      5 C          -6.5382  -19.1033   21.3552 C.ar    1  UNL1       -0.0054
      6 C          -7.6700  -18.2418   21.8315 C.ar    1  UNL1        0.0371
      7 C          -7.4163  -17.1593   22.8383 C.ar    1  UNL1        0.1354
      8 C          -6.0308  -16.9382   23.3688 C.ar    1  UNL1        0.0414
      9 C          -4.8990  -17.7997   22.8926 C.ar    1  UNL1        0.0177
     10 C          -5.1527  -18.8823   21.8857 C.ar    1  UNL1        0.0440
     11 N          -8.5482  -16.2978   23.3146 N.pl3   1  UNL1       -0.1990
     12 H          -8.4430  -15.7516   24.1270 H       1  UNL1        0.2985
     13 C          -9.8402  -16.2684   22.5532 C.2     1  UNL1        0.3224
     14 N          -9.9471  -15.4701   21.2878 N.2     1  UNL1       -0.0985
     15 H          -9.1692  -14.9654   20.9570 H       1  UNL1        0.3633
     16 C         -11.0253  -17.0374   23.0573 C.ar    1  UNL1        0.1114
     17 C         -12.4585  -16.7889   22.6905 C.ar    1  UNL1        0.0144
     18 C         -13.3043  -17.7878   23.4232 C.ar    1  UNL1        0.0077
     19 C         -12.3939  -18.6536   24.2428 C.ar    1  UNL1        0.0357
     20 S         -10.9855  -18.1898   24.0166 S.2     1  UNL1       -0.0792
     21 C          -2.6353  -19.5226   21.9400 C.3     1  UNL1        0.1081
     22 C          -1.6056  -18.8422   21.0877 C.3     1  UNL1        0.0938
     23 C          -2.1802  -17.3438   19.0444 C.3     1  UNL1        0.0897
     24 N          -1.8875  -17.4875   20.5086 N.3     1  UNL1       -0.2688
     25 C          -1.8768  -16.2765   21.3937 C.3     1  UNL1        0.0897
@<TRIPOS>BOND
     1    23    24    1
     2    24    25    1
     3    24    22    1
     4    22    21    1
     5    21     1    1
     6     1     2    1
     7     2     3    1
     8     3     4    1
     9     4     5    1
    10     5     6   ar
    11     6     7   ar
    12     7    11    1
    13    11    13    1
    14    13    14    2
    15    13    16    1
    16    16    17   ar
    17    17    18   ar
    18    18    19   ar
    19    19    20   ar
    20     7     8   ar
    21     8     9   ar
    22     9    10   ar
    23    10     1    1
    24    10     5   ar
    25    20    16   ar
    26    11    12    1
    27    14    15    1
@<TRIPOS>MOLECULE
*****
 25 27 0 0 0
SMALL
GASTEIGER

@<TRIPOS>ATOM
      1 N         -10.2862  -17.4838   21.1729 N.pl3   1  UNL1       -0.3063
      2 C         -11.1301  -18.0797   20.0854 C.3     1  UNL1        0.0912
      3 C         -10.5938  -19.2054   19.2517 C.3     1  UNL1        0.0261
      4 C          -9.2136  -19.7352   19.5054 C.3     1  UNL1        0.0295
      5 C          -8.3698  -19.1392   20.5929 C.ar    1  UNL1       -0.0054
      6 C          -6.9895  -19.6690   20.8467 C.ar    1  UNL1        0.0371
      7 C          -6.1457  -19.0731   21.9342 C.ar    1  UNL1        0.1354
      8 C          -6.6820  -17.9474   22.7680 C.ar    1  UNL1        0.0414
      9 C          -8.0621  -17.4176   22.5142 C.ar    1  UNL1        0.0177
     10 C          -8.9061  -18.0135   21.4267 C.ar    1  UNL1        0.0440
     11 N          -4.7654  -19.6028   22.1880 N.pl3   1  UNL1       -0.1990
     12 H          -4.5365  -19.9785   23.0688 H       1  UNL1        0.2985
     13 C          -3.7339  -19.5603   21.0998 C.2     1  UNL1        0.3224
     14 N          -3.6583  -20.6707   20.0942 N.2     1  UNL1       -0.0985
     15 H          -4.2857  -21.4274   20.1484 H       1  UNL1        0.3633
     16 C          -2.7780  -18.4073   21.0173 C.ar    1  UNL1        0.1114
     17 C          -2.7089  -17.2494   21.9684 C.ar    1  UNL1        0.0144
     18 C          -1.6116  -16.3362   21.5081 C.ar    1  UNL1        0.0077
     19 C          -1.0025  -16.9297   20.2724 C.ar    1  UNL1        0.0357
     20 S          -1.7233  -18.2097   19.9691 S.2     1  UNL1       -0.0792
     21 C         -10.8226  -16.3581   22.0067 C.3     1  UNL1        0.1081
     22 C         -12.1653  -16.4847   22.6632 C.3     1  UNL1        0.0938
     23 C         -13.8670  -18.0344   23.8685 C.3     1  UNL1        0.0897
     24 N         -12.4493  -17.6434   23.5724 N.3     1  UNL1       -0.2688
     25 C         -11.3159  -18.4112   24.1854 C.3     1  UNL1        0.0897
@<TRIPOS>BOND
     1    23    24    1
     2    24    25    1
     3    24    22    1
     4    22    21    1
     5    21     1    1
     6     1     2    1
     7     2     3    1
     8     3     4    1
     9     4     5    1
    10     5     6   ar
    11     6     7   ar
    12     7    11    1
    13    11    13    1
    14    13    14    2
    15    13    16    1
    16    16    17   ar
    17    17    18   ar
    18    18    19   ar
    19    19    20   ar
    20     7     8   ar
    21     8     9   ar
    22     9    10   ar
    23    10     1    1
    24    10     5   ar
    25    20    16   ar
    26    11    12    1
    27    14    15    1
@<TRIPOS>MOLECULE
*****
 25 27 0 0 0
SMALL
GASTEIGER

@<TRIPOS>ATOM
      1 N          -3.9400  -18.8090   22.2088 N.pl3   1  UNL1       -0.3063
      2 C          -3.5325  -17.7611   23.2016 C.3     1  UNL1        0.0912
      3 C          -4.5614  -16.8358   23.7805 C.3     1  UNL1        0.0261
      4 C          -5.9979  -16.9584   23.3665 C.3     1  UNL1        0.0295
      5 C          -6.4054  -18.0063   22.3736 C.ar    1  UNL1       -0.0054
      6 C          -7.8420  -18.1290   21.9596 C.ar    1  UNL1        0.0371
      7 C          -8.2495  -19.1769   20.9668 C.ar    1  UNL1        0.1354
      8 C          -7.2205  -20.1022   20.3879 C.ar    1  UNL1        0.0414
      9 C          -5.7840  -19.9796   20.8019 C.ar    1  UNL1        0.0177
     10 C          -5.3765  -18.9316   21.7948 C.ar    1  UNL1        0.0440
     11 N          -9.6860  -19.2996   20.5527 N.pl3   1  UNL1       -0.1990
     12 H         -10.0019  -20.1192   20.1082 H       1  UNL1        0.2985
     13 C         -10.6412  -18.1734   20.8160 C.2     1  UNL1        0.3224
     14 N         -10.7230  -17.0203   19.8601 N.2     1  UNL1       -0.0985
     15 H         -10.1498  -17.0027   19.0599 H       1  UNL1        0.3633
     16 C         -11.5146  -18.2003   22.0352 C.ar    1  UNL1        0.1114
     17 C         -12.8864  -17.6044   22.1504 C.ar    1  UNL1        0.0144
     18 C         -13.3892  -17.8637   23.5396 C.ar    1  UNL1        0.0077
     19 C         -12.3282  -18.6199   24.2830 C.ar    1  UNL1        0.0357
     20 S         -11.1697  -18.8279   23.3531 S.2     1  UNL1       -0.0792
     21 C          -2.9110  -19.7343   21.6299 C.3     1  UNL1        0.1081
     22 C          -1.7111  -19.1747   20.9249 C.3     1  UNL1        0.0938
     23 C          -2.8136  -17.8480   18.9821 C.3     1  UNL1        0.0897
     24 N          -1.8348  -17.9171   20.1167 N.3     1  UNL1       -0.2688
     25 C          -0.9799  -16.7287   20.4431 C.3     1  UNL1        0.0897
@<TRIPOS>BOND
     1    23    24    1
     2    24    25    1
     3    24    22    1
     4    22    21    1
     5    21     1    1
     6     1     2    1
     7     2     3    1
     8     3     4    1
     9     4     5    1
    10     5     6   ar
    11     6     7   ar
    12     7    11    1
    13    11    13    1
    14    13    14    2
    15    13    16    1
    16    16    17   ar
    17    17    18   ar
    18    18    19   ar
    19    19    20   ar
    20     7     8   ar
    21     8     9   ar
    22     9    10   ar
    23    10     1    1
    24    10     5   ar
    25    20    16   ar
    26    11    12    1
    27    14    15    1
@<TRIPOS>MOLECULE
*****
 25 27 0 0 0
SMALL
GASTEIGER

@<TRIPOS>ATOM
      1 N          -3.7195  -18.7597   21.7859 N.pl3   1  UNL1       -0.3063
      2 C          -3.7493  -19.9386   20.8590 C.3     1  UNL1        0.0912
      3 C          -5.0592  -20.5692   20.4895 C.3     1  UNL1        0.0261
      4 C          -6.3393  -20.0210   21.0469 C.3     1  UNL1        0.0295
      5 C          -6.3095  -18.8420   21.9738 C.ar    1  UNL1       -0.0054
      6 C          -7.5896  -18.2937   22.5312 C.ar    1  UNL1        0.0371
      7 C          -7.5598  -17.1148   23.4581 C.ar    1  UNL1        0.1354
      8 C          -6.2500  -16.4841   23.8277 C.ar    1  UNL1        0.0414
      9 C          -4.9699  -17.0324   23.2703 C.ar    1  UNL1        0.0177
     10 C          -4.9996  -18.2114   22.3433 C.ar    1  UNL1        0.0440
     11 N          -8.8400  -16.5664   24.0156 N.pl3   1  UNL1       -0.1990
     12 H          -8.8773  -15.6381   24.3411 H       1  UNL1        0.2985
     13 C         -10.0631  -17.4325   24.0769 C.2     1  UNL1        0.3224
     14 N         -10.2298  -18.4166   25.1966 N.2     1  UNL1       -0.0985
     15 H          -9.5365  -18.4941   25.8912 H       1  UNL1        0.3633
     16 C         -11.1194  -17.3145   23.0186 C.ar    1  UNL1        0.1114
     17 C         -12.3949  -18.1014   22.9542 C.ar    1  UNL1        0.0144
     18 C         -13.1496  -17.6621   21.7346 C.ar    1  UNL1        0.0077
     19 C         -12.3405  -16.6037   21.0452 C.ar    1  UNL1        0.0357
     20 S         -11.0858  -16.3889   21.8387 S.2     1  UNL1       -0.0792
     21 C          -2.4097  -18.1290   22.1555 C.3     1  UNL1        0.1081
     22 C          -1.8113  -17.0721   21.2752 C.3     1  UNL1        0.0938
     23 C          -2.0127  -17.5469   18.7288 C.3     1  UNL1        0.0897
     24 N          -1.1766  -17.4534   19.9707 N.3     1  UNL1       -0.2688
     25 C           0.2942  -17.7413   19.9082 C.3     1  UNL1        0.0897
@<TRIPOS>BOND
     1    23    24    1
     2    24    25    1
     3    24    22    1
     4    22    21    1
     5    21     1    1
     6     1     2    1
     7     2     3    1
     8     3     4    1
     9     4     5    1
    10     5     6   ar
    11     6     7   ar
    12     7    11    1
    13    11    13    1
    14    13    14    2
    15    13    16    1
    16    16    17   ar
    17    17    18   ar
    18    18    19   ar
    19    19    20   ar
    20     7     8   ar
    21     8     9   ar
    22     9    10   ar
    23    10     1    1
    24    10     5   ar
    25    20    16   ar
    26    11    12    1
    27    14    15    1
@<TRIPOS>MOLECULE
*****
 25 27 0 0 0
SMALL
GASTEIGER

@<TRIPOS>ATOM
      1 N          -4.1193  -18.6709   22.4102 N.pl3   1  UNL1       -0.3063
      2 C          -2.9794  -19.3488   21.7096 C.3     1  UNL1        0.0912
      3 C          -3.2431  -20.2188   20.5165 C.3     1  UNL1        0.0261
      4 C          -4.6469  -20.4110   20.0240 C.3     1  UNL1        0.0295
      5 C          -5.7868  -19.7331   20.7247 C.ar    1  UNL1       -0.0054
      6 C          -7.1907  -19.9253   20.2322 C.ar    1  UNL1        0.0371
      7 C          -8.3306  -19.2474   20.9329 C.ar    1  UNL1        0.1354
      8 C          -8.0669  -18.3774   22.1260 C.ar    1  UNL1        0.0414
      9 C          -6.6631  -18.1852   22.6184 C.ar    1  UNL1        0.0177
     10 C          -5.5231  -18.8631   21.9178 C.ar    1  UNL1        0.0440
     11 N          -9.7345  -19.4396   20.4404 N.pl3   1  UNL1       -0.1990
     12 H          -9.9918  -20.2837   20.0039 H       1  UNL1        0.2985
     13 C         -10.7462  -18.3458   20.6132 C.2     1  UNL1        0.3224
     14 N         -10.9102  -17.3010   19.5494 N.2     1  UNL1       -0.0985
     15 H         -10.3537  -17.3332   18.7379 H       1  UNL1        0.3633
     16 C         -11.5939  -18.2967   21.8496 C.ar    1  UNL1        0.1114
     17 C         -12.9200  -17.6084   21.9827 C.ar    1  UNL1        0.0144
     18 C         -13.4101  -17.8136   23.3855 C.ar    1  UNL1        0.0077
     19 C         -12.3868  -18.6288   24.1193 C.ar    1  UNL1        0.0357
     20 S         -11.2644  -18.9273   23.1701 S.2     1  UNL1       -0.0792
     21 C          -3.8556  -17.8009   23.6033 C.3     1  UNL1        0.1081
     22 C          -4.1645  -16.3343   23.5450 C.3     1  UNL1        0.0938
     23 C          -5.0528  -15.8463   25.9373 C.3     1  UNL1        0.0897
     24 N          -5.2105  -15.7516   24.4486 N.3     1  UNL1       -0.2688
     25 C          -6.4142  -15.0744   23.8635 C.3     1  UNL1        0.0897
@<TRIPOS>BOND
     1    23    24    1
     2    24    25    1
     3    24    22    1
     4    22    21    1
     5    21     1    1
     6     1     2    1
     7     2     3    1
     8     3     4    1
     9     4     5    1
    10     5     6   ar
    11     6     7   ar
    12     7    11    1
    13    11    13    1
    14    13    14    2
    15    13    16    1
    16    16    17   ar
    17    17    18   ar
    18    18    19   ar
    19    19    20   ar
    20     7     8   ar
    21     8     9   ar
    22     9    10   ar
    23    10     1    1
    24    10     5   ar
    25    20    16   ar
    26    11    12    1
    27    14    15    1
@<TRIPOS>MOLECULE
*****
 25 27 0 0 0
SMALL
GASTEIGER

@<TRIPOS>ATOM
      1 N          -9.6922  -17.7609   23.1491 N.pl3   1  UNL1       -0.3063
      2 C          -9.8705  -16.3792   23.7050 C.3     1  UNL1        0.0912
      3 C          -8.6726  -15.5138   23.9620 C.3     1  UNL1        0.0261
      4 C          -7.2963  -16.0301   23.6632 C.3     1  UNL1        0.0295
      5 C          -7.1180  -17.4118   23.1074 C.ar    1  UNL1       -0.0054
      6 C          -5.7417  -17.9282   22.8086 C.ar    1  UNL1        0.0371
      7 C          -5.5634  -19.3099   22.2527 C.ar    1  UNL1        0.1354
      8 C          -6.7613  -20.1753   21.9957 C.ar    1  UNL1        0.0414
      9 C          -8.1375  -19.6590   22.2945 C.ar    1  UNL1        0.0177
     10 C          -8.3159  -18.2772   22.8503 C.ar    1  UNL1        0.0440
     11 N          -4.1871  -19.8263   21.9539 N.pl3   1  UNL1       -0.1990
     12 H          -3.7352  -20.4224   22.5941 H       1  UNL1        0.2985
     13 C          -3.4993  -19.4346   20.6798 C.2     1  UNL1        0.3224
     14 N          -3.8294  -20.1445   19.4004 N.2     1  UNL1       -0.0985
     15 H          -4.4976  -20.8676   19.3969 H       1  UNL1        0.3633
     16 C          -2.4813  -18.3329   20.6852 C.ar    1  UNL1        0.1114
     17 C          -2.4685  -17.1488   21.6058 C.ar    1  UNL1        0.0144
     18 C          -1.2767  -16.3060   21.2605 C.ar    1  UNL1        0.0077
     19 C          -0.5530  -16.9693   20.1263 C.ar    1  UNL1        0.0357
     20 S          -1.2975  -18.2220   19.7708 S.2     1  UNL1       -0.0792
     21 C         -10.8901  -18.6263   22.8920 C.3     1  UNL1        0.1081
     22 C         -11.8354  -18.2868   21.7780 C.3     1  UNL1        0.0938
     23 C         -11.5084  -16.4582   19.9616 C.3     1  UNL1        0.0897
     24 N         -11.2995  -17.8636   20.4424 N.3     1  UNL1       -0.2688
     25 C         -10.5548  -18.8458   19.5877 C.3     1  UNL1        0.0897
@<TRIPOS>BOND
     1    23    24    1
     2    24    25    1
     3    24    22    1
     4    22    21    1
     5    21     1    1
     6     1     2    1
     7     2     3    1
     8     3     4    1
     9     4     5    1
    10     5     6   ar
    11     6     7   ar
    12     7    11    1
    13    11    13    1
    14    13    14    2
    15    13    16    1
    16    16    17   ar
    17    17    18   ar
    18    18    19   ar
    19    19    20   ar
    20     7     8   ar
    21     8     9   ar
    22     9    10   ar
    23    10     1    1
    24    10     5   ar
    25    20    16   ar
    26    11    12    1
    27    14    15    1
@<TRIPOS>MOLECULE
*****
 25 27 0 0 0
SMALL
GASTEIGER

@<TRIPOS>ATOM
      1 N          -9.1924  -17.6466   22.1663 N.pl3   1  UNL1       -0.3063
      2 C          -9.5596  -16.3724   22.8674 C.3     1  UNL1        0.0912
      3 C          -8.5089  -15.5867   23.5945 C.3     1  UNL1        0.0261
      4 C          -7.0909  -16.0752   23.6205 C.3     1  UNL1        0.0295
      5 C          -6.7237  -17.3493   22.9195 C.ar    1  UNL1       -0.0054
      6 C          -5.3057  -17.8379   22.9455 C.ar    1  UNL1        0.0371
      7 C          -4.9384  -19.1121   22.2444 C.ar    1  UNL1        0.1354
      8 C          -5.9891  -19.8978   21.5173 C.ar    1  UNL1        0.0414
      9 C          -7.4071  -19.4093   21.4913 C.ar    1  UNL1        0.0177
     10 C          -7.7744  -18.1350   22.1924 C.ar    1  UNL1        0.0440
     11 N          -3.5204  -19.6006   22.2704 N.pl3   1  UNL1       -0.1990
     12 H          -3.3316  -20.5568   22.4097 H       1  UNL1        0.2985
     13 C          -2.3900  -18.6324   22.0843 C.2     1  UNL1        0.3224
     14 N          -1.7171  -18.0262   23.2801 N.2     1  UNL1       -0.0985
     15 H          -2.0174  -18.2639   24.1870 H       1  UNL1        0.3633
     16 C          -1.9325  -18.2703   20.7025 C.ar    1  UNL1        0.1114
     17 C          -0.5336  -17.9029   20.3048 C.ar    1  UNL1        0.0144
     18 C          -0.5301  -17.6175   18.8322 C.ar    1  UNL1        0.0077
     19 C          -1.9269  -17.8085   18.3198 C.ar    1  UNL1        0.0357
     20 S          -2.7936  -18.2119   19.4757 S.2     1  UNL1       -0.0792
     21 C         -10.2431  -18.4323   21.4392 C.3     1  UNL1        0.1081
     22 C         -11.0184  -19.4946   22.1604 C.3     1  UNL1        0.0938
     23 C          -9.9966  -20.4182   24.3634 C.3     1  UNL1        0.0897
     24 N         -10.9979  -19.5511   23.6592 N.3     1  UNL1       -0.2688
     25 C         -11.9785  -18.7407   24.4538 C.3     1  UNL1        0.0897
@<TRIPOS>BOND
     1    23    24    1
     2    24    25    1
     3    24    22    1
     4    22    21    1
     5    21     1    1
     6     1     2    1
     7     2     3    1
     8     3     4    1
     9     4     5    1
    10     5     6   ar
    11     6     7   ar
    12     7    11    1
    13    11    13    1
    14    13    14    2
    15    13    16    1
    16    16    17   ar
    17    17    18   ar
    18    18    19   ar
    19    19    20   ar
    20     7     8   ar
    21     8     9   ar
    22     9    10   ar
    23    10     1    1
    24    10     5   ar
    25    20    16   ar
    26    11    12    1
    27    14    15    1
@<TRIPOS>MOLECULE
*****
 25 27 0 0 0
SMALL
GASTEIGER

@<TRIPOS>ATOM
      1 N          -9.3063  -18.7087   20.5699 N.pl3   1  UNL1       -0.3063
      2 C          -9.9462  -19.4420   19.4286 C.3     1  UNL1        0.0912
      3 C          -9.1535  -20.4432   18.6417 C.3     1  UNL1        0.0261
      4 C          -7.7209  -20.7111   18.9961 C.3     1  UNL1        0.0295
      5 C          -7.0809  -19.9778   20.1375 C.ar    1  UNL1       -0.0054
      6 C          -5.6482  -20.2457   20.4920 C.ar    1  UNL1        0.0371
      7 C          -5.0082  -19.5124   21.6333 C.ar    1  UNL1        0.1354
      8 C          -5.8009  -18.5112   22.4202 C.ar    1  UNL1        0.0414
      9 C          -7.2336  -18.2433   22.0657 C.ar    1  UNL1        0.0177
     10 C          -7.8736  -18.9766   20.9244 C.ar    1  UNL1        0.0440
     11 N          -3.5755  -19.7803   21.9878 N.pl3   1  UNL1       -0.1990
     12 H          -3.3020  -20.6774   22.2873 H       1  UNL1        0.2985
     13 C          -2.5596  -18.6815   21.8860 C.2     1  UNL1        0.3224
     14 N          -2.0613  -18.0033   23.1277 N.2     1  UNL1       -0.0985
     15 H          -2.4010  -18.2795   24.0095 H       1  UNL1        0.3633
     16 C          -2.0420  -18.2608   20.5425 C.ar    1  UNL1        0.1114
     17 C          -2.8733  -17.9783   19.3263 C.ar    1  UNL1        0.0144
     18 C          -1.9473  -17.5916   18.2114 C.ar    1  UNL1        0.0077
     19 C          -0.5437  -17.6351   18.7386 C.ar    1  UNL1        0.0357
     20 S          -0.6022  -18.0487   20.1793 S.2     1  UNL1       -0.0792
     21 C         -10.0990  -17.7075   21.3568 C.3     1  UNL1        0.1081
     22 C         -10.7538  -18.1137   22.6437 C.3     1  UNL1        0.0938
     23 C         -10.0867  -18.6968   25.0861 C.3     1  UNL1        0.0897
     24 N         -10.1439  -17.7137   23.9545 N.3     1  UNL1       -0.2688
     25 C          -9.5912  -16.3309   24.1336 C.3     1  UNL1        0.0897
@<TRIPOS>BOND
     1    23    24    1
     2    24    25    1
     3    24    22    1
     4    22    21    1
     5    21     1    1
     6     1     2    1
     7     2     3    1
     8     3     4    1
     9     4     5    1
    10     5     6   ar
    11     6     7   ar
    12     7    11    1
    13    11    13    1
    14    13    14    2
    15    13    16    1
    16    16    17   ar
    17    17    18   ar
    18    18    19   ar
    19    19    20   ar
    20     7     8   ar
    21     8     9   ar
    22     9    10   ar
    23    10     1    1
    24    10     5   ar
    25    20    16   ar
    26    11    12    1
    27    14    15    1
