@<TRIPOS>MOLECULE
*****
 31 34 0 0 0
SMALL
GASTEIGER

@<TRIPOS>ATOM
      1 C           5.8707   -2.1768   23.9079 C.3     1  UNL1        0.0723
      2 C           6.5646   -3.4958   24.0783 C.ar    1  UNL1        0.1268
      3 N           6.6754   -4.1145   25.4403 N.ar    1  UNL1       -0.2319
      4 C           7.3693   -5.4334   25.6107 C.ar    1  UNL1        0.0910
      5 C           7.4802   -6.0521   26.9726 C.ar    1  UNL1        0.0892
      6 C           8.1741   -7.3710   27.1429 C.ar    1  UNL1        0.0054
      7 C           8.7570   -8.0712   25.9513 C.ar    1  UNL1        0.0002
      8 C           8.6461   -7.4525   24.5894 C.ar    1  UNL1        0.0063
      9 C           7.9523   -6.1336   24.4191 C.ar    1  UNL1        0.0741
     10 C           7.8413   -5.5149   23.0571 C.ar    1  UNL1        0.2669
     11 O           8.4243   -6.2151   21.8655 O.2     1  UNL1       -0.2665
     12 N           7.1475   -4.1960   22.8868 N.ar    1  UNL1       -0.2626
     13 C           7.0366   -3.5772   21.5248 C.ar    1  UNL1        0.0681
     14 C           5.8483   -3.8764   20.6597 C.ar    1  UNL1        0.0208
     15 C           5.7373   -3.2577   19.2977 C.ar    1  UNL1        0.0384
     16 C           6.8146   -2.3399   18.8009 C.ar    1  UNL1        0.1386
     17 C           8.0030   -2.0407   19.6661 C.ar    1  UNL1        0.0384
     18 C           8.1139   -2.6594   21.0280 C.ar    1  UNL1        0.0208
     19 O           6.7037   -1.7211   17.4390 O.3     1  UNL1       -0.4754
     20 C           6.5449   -0.2360   17.3006 C.3     1  UNL1        0.2068
     21 C           5.1763    0.3774   17.3248 C.3     1  UNL1        0.0646
     22 C           3.9604   -0.4990   17.2651 C.3     1  UNL1        0.0759
     23 N           2.9188   -0.4110   18.3408 N.3     1  UNL1       -0.2726
     24 C           2.8843   -1.2207   19.6031 C.3     1  UNL1        0.0721
     25 C           1.6730   -0.8079   20.3857 C.3     1  UNL1        0.0188
     26 C           0.9588    0.2569   19.6071 C.3     1  UNL1        0.0188
     27 C           1.7288    0.5022   18.3433 C.3     1  UNL1        0.0721
     28 C           6.8973   -5.3519   28.1642 C.3     1  UNL1        0.4200
     29 F           6.3143   -4.6517   29.3558 F       1  UNL1       -0.1658
     30 F           5.5372   -5.8727   27.8049 F       1  UNL1       -0.1658
     31 F           8.2573   -4.8311   28.5235 F       1  UNL1       -0.1658
@<TRIPOS>BOND
     1     1     2    1
     2     2     3   ar
     3     3     4   ar
     4     4     5   ar
     5     5    28    1
     6    28    29    1
     7    28    30    1
     8    28    31    1
     9     5     6   ar
    10     6     7   ar
    11     7     8   ar
    12     8     9   ar
    13     9    10   ar
    14    10    11    2
    15    10    12   ar
    16    12    13    1
    17    13    14   ar
    18    14    15   ar
    19    15    16   ar
    20    16    19    1
    21    19    20    1
    22    20    21    1
    23    21    22    1
    24    22    23    1
    25    23    24    1
    26    24    25    1
    27    25    26    1
    28    26    27    1
    29    16    17   ar
    30    17    18   ar
    31    12     2   ar
    32    18    13   ar
    33     9     4   ar
    34    27    23    1
@<TRIPOS>MOLECULE
*****
 31 34 0 0 0
SMALL
GASTEIGER

@<TRIPOS>ATOM
      1 C          -6.5346  -16.3145   23.9900 C.3     1  UNL1        0.0723
      2 C          -6.0769  -17.3754   23.0334 C.ar    1  UNL1        0.1268
      3 N          -4.6979  -17.3117   22.4466 N.ar    1  UNL1       -0.2319
      4 C          -4.2401  -18.3726   21.4899 C.ar    1  UNL1        0.0910
      5 C          -2.8612  -18.3089   20.9031 C.ar    1  UNL1        0.0892
      6 C          -2.4035  -19.3697   19.9466 C.ar    1  UNL1        0.0054
      7 C          -3.3247  -20.4942   19.5768 C.ar    1  UNL1        0.0002
      8 C          -4.7037  -20.5579   20.1636 C.ar    1  UNL1        0.0063
      9 C          -5.1614  -19.4971   21.1202 C.ar    1  UNL1        0.0741
     10 C          -6.5404  -19.5608   21.7070 C.ar    1  UNL1        0.2669
     11 O          -7.4617  -20.6853   21.3373 O.2     1  UNL1       -0.2665
     12 N          -6.9981  -18.4999   22.6636 N.ar    1  UNL1       -0.2626
     13 C          -8.3771  -18.5636   23.2505 C.ar    1  UNL1        0.0681
     14 C          -8.9319  -19.8752   23.7215 C.ar    1  UNL1        0.0208
     15 C         -10.3109  -19.9389   24.3083 C.ar    1  UNL1        0.0384
     16 C         -11.1350  -18.6910   24.4242 C.ar    1  UNL1        0.1386
     17 C         -10.5802  -17.3794   23.9532 C.ar    1  UNL1        0.0384
     18 C          -9.2012  -17.3157   23.3663 C.ar    1  UNL1        0.0208
     19 O         -12.5140  -18.7546   25.0110 O.3     1  UNL1       -0.4754
     20 C         -13.6791  -18.1932   24.2512 C.3     1  UNL1        0.2068
     21 C         -13.4437  -17.2899   23.0771 C.3     1  UNL1        0.0646
     22 C         -13.4735  -17.8466   21.6846 C.3     1  UNL1        0.0759
     23 N         -12.1935  -18.2270   21.0014 N.3     1  UNL1       -0.2726
     24 C         -11.5627  -19.5880   21.0053 C.3     1  UNL1        0.0721
     25 C         -10.2989  -19.5155   20.2007 C.3     1  UNL1        0.0188
     26 C         -10.1485  -18.1097   19.6993 C.3     1  UNL1        0.0188
     27 C         -11.3196  -17.3134   20.1942 C.3     1  UNL1        0.0721
     28 C          -1.9399  -17.1843   21.2729 C.3     1  UNL1        0.4200
     29 F          -1.0187  -16.0598   21.6427 F       1  UNL1       -0.1658
     30 F          -1.8035  -17.7506   22.6552 F       1  UNL1       -0.1658
     31 F          -2.0764  -16.6180   19.8906 F       1  UNL1       -0.1658
@<TRIPOS>BOND
     1     1     2    1
     2     2     3   ar
     3     3     4   ar
     4     4     5   ar
     5     5    28    1
     6    28    29    1
     7    28    30    1
     8    28    31    1
     9     5     6   ar
    10     6     7   ar
    11     7     8   ar
    12     8     9   ar
    13     9    10   ar
    14    10    11    2
    15    10    12   ar
    16    12    13    1
    17    13    14   ar
    18    14    15   ar
    19    15    16   ar
    20    16    19    1
    21    19    20    1
    22    20    21    1
    23    21    22    1
    24    22    23    1
    25    23    24    1
    26    24    25    1
    27    25    26    1
    28    26    27    1
    29    16    17   ar
    30    17    18   ar
    31    12     2   ar
    32    18    13   ar
    33     9     4   ar
    34    27    23    1
@<TRIPOS>MOLECULE
*****
 31 34 0 0 0
SMALL
GASTEIGER

@<TRIPOS>ATOM
      1 C           6.8921   -4.5986   24.0820 C.3     1  UNL1        0.0723
      2 C           5.9010   -3.6777   23.4343 C.ar    1  UNL1        0.1268
      3 N           5.4019   -3.9671   22.0497 N.ar    1  UNL1       -0.2319
      4 C           4.4107   -3.0461   21.4020 C.ar    1  UNL1        0.0910
      5 C           3.9116   -3.3355   20.0174 C.ar    1  UNL1        0.0892
      6 C           2.9205   -2.4146   19.3697 C.ar    1  UNL1        0.0054
      7 C           2.4284   -1.2043   20.1066 C.ar    1  UNL1        0.0002
      8 C           2.9275   -0.9149   21.4912 C.ar    1  UNL1        0.0063
      9 C           3.9186   -1.8358   22.1389 C.ar    1  UNL1        0.0741
     10 C           4.4178   -1.5464   23.5235 C.ar    1  UNL1        0.2669
     11 O           3.9257   -0.3361   24.2605 O.2     1  UNL1       -0.2665
     12 N           5.4089   -2.4674   24.1712 N.ar    1  UNL1       -0.2626
     13 C           5.9081   -2.1780   25.5559 C.ar    1  UNL1        0.0681
     14 C           7.3168   -1.7056   25.7618 C.ar    1  UNL1        0.0208
     15 C           7.8159   -1.4163   27.1464 C.ar    1  UNL1        0.0384
     16 C           6.9064   -1.5993   28.3250 C.ar    1  UNL1        0.1386
     17 C           5.4977   -2.0716   28.1190 C.ar    1  UNL1        0.0384
     18 C           4.9985   -2.3610   26.7345 C.ar    1  UNL1        0.0208
     19 O           7.4055   -1.3099   29.7096 O.3     1  UNL1       -0.4754
     20 C           6.6493   -1.8186   30.9010 C.3     1  UNL1        0.2068
     21 C           7.2152   -2.9349   31.7279 C.3     1  UNL1        0.0646
     22 C           7.0437   -4.3577   31.2850 C.3     1  UNL1        0.0759
     23 N           7.4317   -4.7621   29.8937 N.3     1  UNL1       -0.2726
     24 C           8.7841   -4.5861   29.2690 C.3     1  UNL1        0.0721
     25 C           8.7236   -5.1287   27.8719 C.3     1  UNL1        0.0188
     26 C           7.3338   -5.6401   27.6330 C.3     1  UNL1        0.0188
     27 C           6.5354   -5.4136   28.8826 C.3     1  UNL1        0.0721
     28 C           4.4036   -4.5458   19.2805 C.3     1  UNL1        0.4200
     29 F           4.8957   -5.7561   18.5435 F       1  UNL1       -0.1658
     30 F           5.4794   -3.7190   18.6408 F       1  UNL1       -0.1658
     31 F           3.3279   -5.3726   19.9201 F       1  UNL1       -0.1658
@<TRIPOS>BOND
     1     1     2    1
     2     2     3   ar
     3     3     4   ar
     4     4     5   ar
     5     5    28    1
     6    28    29    1
     7    28    30    1
     8    28    31    1
     9     5     6   ar
    10     6     7   ar
    11     7     8   ar
    12     8     9   ar
    13     9    10   ar
    14    10    11    2
    15    10    12   ar
    16    12    13    1
    17    13    14   ar
    18    14    15   ar
    19    15    16   ar
    20    16    19    1
    21    19    20    1
    22    20    21    1
    23    21    22    1
    24    22    23    1
    25    23    24    1
    26    24    25    1
    27    25    26    1
    28    26    27    1
    29    16    17   ar
    30    17    18   ar
    31    12     2   ar
    32    18    13   ar
    33     9     4   ar
    34    27    23    1
@<TRIPOS>MOLECULE
*****
 31 34 0 0 0
SMALL
GASTEIGER

@<TRIPOS>ATOM
      1 C           7.6725   -5.3105   23.4913 C.3     1  UNL1        0.0723
      2 C           6.6206   -4.2814   23.2004 C.ar    1  UNL1        0.1268
      3 N           5.8999   -4.2966   21.8850 N.ar    1  UNL1       -0.2319
      4 C           4.8480   -3.2675   21.5942 C.ar    1  UNL1        0.0910
      5 C           4.1273   -3.2827   20.2788 C.ar    1  UNL1        0.0892
      6 C           3.0755   -2.2537   19.9880 C.ar    1  UNL1        0.0054
      7 C           2.7443   -1.2094   21.0126 C.ar    1  UNL1        0.0002
      8 C           3.4650   -1.1942   22.3280 C.ar    1  UNL1        0.0063
      9 C           4.5169   -2.2232   22.6188 C.ar    1  UNL1        0.0741
     10 C           5.2376   -2.2081   23.9342 C.ar    1  UNL1        0.2669
     11 O           4.9065   -1.1638   24.9588 O.2     1  UNL1       -0.2665
     12 N           6.2895   -3.2371   24.2250 N.ar    1  UNL1       -0.2626
     13 C           7.0102   -3.2220   25.5405 C.ar    1  UNL1        0.0681
     14 C           8.2323   -2.3701   25.7163 C.ar    1  UNL1        0.0208
     15 C           8.9530   -2.3549   27.0317 C.ar    1  UNL1        0.0384
     16 C           8.4517   -3.1915   28.1712 C.ar    1  UNL1        0.1386
     17 C           7.2297   -4.0434   27.9954 C.ar    1  UNL1        0.0384
     18 C           6.5089   -4.0586   26.6800 C.ar    1  UNL1        0.0208
     19 O           9.1725   -3.1764   29.4867 O.3     1  UNL1       -0.4754
     20 C           8.7917   -4.1506   30.5618 C.3     1  UNL1        0.2068
     21 C           8.0551   -3.6746   31.7787 C.3     1  UNL1        0.0646
     22 C           6.5747   -3.4416   31.7159 C.3     1  UNL1        0.0759
     23 N           5.9242   -2.4880   32.6738 N.3     1  UNL1       -0.2726
     24 C           6.5304   -1.2240   33.2077 C.3     1  UNL1        0.0721
     25 C           5.5343   -0.5857   34.1299 C.3     1  UNL1        0.0188
     26 C           4.3125   -1.4552   34.1659 C.3     1  UNL1        0.0188
     27 C           4.5535   -2.6309   33.2660 C.3     1  UNL1        0.0721
     28 C           4.4585   -4.3270   19.2542 C.3     1  UNL1        0.4200
     29 F           4.7896   -5.3713   18.2295 F       1  UNL1       -0.1658
     30 F           5.5953   -3.4821   18.7604 F       1  UNL1       -0.1658
     31 F           3.3217   -5.1719   19.7479 F       1  UNL1       -0.1658
@<TRIPOS>BOND
     1     1     2    1
     2     2     3   ar
     3     3     4   ar
     4     4     5   ar
     5     5    28    1
     6    28    29    1
     7    28    30    1
     8    28    31    1
     9     5     6   ar
    10     6     7   ar
    11     7     8   ar
    12     8     9   ar
    13     9    10   ar
    14    10    11    2
    15    10    12   ar
    16    12    13    1
    17    13    14   ar
    18    14    15   ar
    19    15    16   ar
    20    16    19    1
    21    19    20    1
    22    20    21    1
    23    21    22    1
    24    22    23    1
    25    23    24    1
    26    24    25    1
    27    25    26    1
    28    26    27    1
    29    16    17   ar
    30    17    18   ar
    31    12     2   ar
    32    18    13   ar
    33     9     4   ar
    34    27    23    1
@<TRIPOS>MOLECULE
*****
 31 34 0 0 0
SMALL
GASTEIGER

@<TRIPOS>ATOM
      1 C           3.2091   -0.5418   24.0548 C.3     1  UNL1        0.0723
      2 C           2.0467    0.4061   24.0739 C.ar    1  UNL1        0.1268
      3 N           1.3896    0.7609   25.3747 N.ar    1  UNL1       -0.2319
      4 C           0.2271    1.7088   25.3938 C.ar    1  UNL1        0.0910
      5 C          -0.4300    2.0636   26.6947 C.ar    1  UNL1        0.0892
      6 C          -1.5924    3.0114   26.7137 C.ar    1  UNL1        0.0054
      7 C          -2.0977    3.6044   25.4319 C.ar    1  UNL1        0.0002
      8 C          -1.4406    3.2496   24.1310 C.ar    1  UNL1        0.0063
      9 C          -0.2782    2.3018   24.1120 C.ar    1  UNL1        0.0741
     10 C           0.3790    1.9469   22.8111 C.ar    1  UNL1        0.2669
     11 O          -0.1263    2.5399   21.5293 O.2     1  UNL1       -0.2665
     12 N           1.5414    0.9991   22.7921 N.ar    1  UNL1       -0.2626
     13 C           2.1986    0.6442   21.4912 C.ar    1  UNL1        0.0681
     14 C           3.2758    1.5246   20.9304 C.ar    1  UNL1        0.0208
     15 C           3.9330    1.1698   19.6296 C.ar    1  UNL1        0.0384
     16 C           3.5129   -0.0654   18.8895 C.ar    1  UNL1        0.1386
     17 C           2.4357   -0.9458   19.4503 C.ar    1  UNL1        0.0384
     18 C           1.7785   -0.5910   20.7511 C.ar    1  UNL1        0.0208
     19 O           4.1701   -0.4202   17.5886 O.3     1  UNL1       -0.4754
     20 C           5.6041   -0.0520   17.3478 C.3     1  UNL1        0.2068
     21 C           6.6975   -0.7836   18.0683 C.3     1  UNL1        0.0646
     22 C           6.6793   -2.2819   18.1359 C.3     1  UNL1        0.0759
     23 N           5.7276   -2.9794   19.0620 N.3     1  UNL1       -0.2726
     24 C           4.7663   -4.0669   18.6831 C.3     1  UNL1        0.0721
     25 C           4.0146   -4.4715   19.9165 C.3     1  UNL1        0.0188
     26 C           4.5112   -3.6341   21.0577 C.3     1  UNL1        0.0188
     27 C           5.5699   -2.7120   20.5295 C.3     1  UNL1        0.0721
     28 C           0.0753    1.4706   27.9765 C.3     1  UNL1        0.4200
     29 F           0.5806    0.8776   29.2583 F       1  UNL1       -0.1658
     30 F           1.0309    2.6165   28.1299 F       1  UNL1       -0.1658
     31 F          -0.8804    0.3246   27.8230 F       1  UNL1       -0.1658
@<TRIPOS>BOND
     1     1     2    1
     2     2     3   ar
     3     3     4   ar
     4     4     5   ar
     5     5    28    1
     6    28    29    1
     7    28    30    1
     8    28    31    1
     9     5     6   ar
    10     6     7   ar
    11     7     8   ar
    12     8     9   ar
    13     9    10   ar
    14    10    11    2
    15    10    12   ar
    16    12    13    1
    17    13    14   ar
    18    14    15   ar
    19    15    16   ar
    20    16    19    1
    21    19    20    1
    22    20    21    1
    23    21    22    1
    24    22    23    1
    25    23    24    1
    26    24    25    1
    27    25    26    1
    28    26    27    1
    29    16    17   ar
    30    17    18   ar
    31    12     2   ar
    32    18    13   ar
    33     9     4   ar
    34    27    23    1
@<TRIPOS>MOLECULE
*****
 31 34 0 0 0
SMALL
GASTEIGER

@<TRIPOS>ATOM
      1 C           5.6758   -1.4023   26.2796 C.3     1  UNL1        0.0723
      2 C           6.2411   -2.7448   25.9215 C.ar    1  UNL1        0.1268
      3 N           6.7889   -3.6383   26.9946 N.ar    1  UNL1       -0.2319
      4 C           7.3542   -4.9809   26.6365 C.ar    1  UNL1        0.0910
      5 C           7.9020   -5.8744   27.7095 C.ar    1  UNL1        0.0892
      6 C           8.4672   -7.2169   27.3514 C.ar    1  UNL1        0.0054
      7 C           8.4847   -7.6657   25.9202 C.ar    1  UNL1        0.0002
      8 C           7.9370   -6.7721   24.8472 C.ar    1  UNL1        0.0063
      9 C           7.3717   -5.4297   25.2053 C.ar    1  UNL1        0.0741
     10 C           6.8239   -4.5360   24.1322 C.ar    1  UNL1        0.2669
     11 O           6.8415   -4.9849   22.7011 O.2     1  UNL1       -0.2665
     12 N           6.2587   -3.1936   24.4904 N.ar    1  UNL1       -0.2626
     13 C           5.7109   -2.3000   23.4173 C.ar    1  UNL1        0.0681
     14 C           6.6398   -1.4473   22.6048 C.ar    1  UNL1        0.0208
     15 C           6.0921   -0.5537   21.5318 C.ar    1  UNL1        0.0384
     16 C           4.6155   -0.5127   21.2713 C.ar    1  UNL1        0.1386
     17 C           3.6866   -1.3653   22.0838 C.ar    1  UNL1        0.0384
     18 C           4.2343   -2.2590   23.1568 C.ar    1  UNL1        0.0208
     19 O           4.0677    0.3810   20.1982 O.3     1  UNL1       -0.4754
     20 C           4.9296    0.7701   19.0339 C.3     1  UNL1        0.2068
     21 C           4.7997    0.0428   17.7285 C.3     1  UNL1        0.0646
     22 C           3.9344   -1.1787   17.6333 C.3     1  UNL1        0.0759
     23 N           4.2720   -2.4013   18.4341 N.3     1  UNL1       -0.2726
     24 C           5.6485   -2.9495   18.6683 C.3     1  UNL1        0.0721
     25 C           5.5197   -4.1774   19.5202 C.3     1  UNL1        0.0188
     26 C           4.0636   -4.3881   19.8125 C.3     1  UNL1        0.0188
     27 C           3.2925   -3.2904   19.1413 C.3     1  UNL1        0.0721
     28 C           7.8844   -5.4256   29.1406 C.3     1  UNL1        0.4200
     29 F           7.8669   -4.9767   30.5718 F       1  UNL1       -0.1658
     30 F           6.4537   -5.8603   29.2594 F       1  UNL1       -0.1658
     31 F           9.3151   -4.9909   29.0218 F       1  UNL1       -0.1658
@<TRIPOS>BOND
     1     1     2    1
     2     2     3   ar
     3     3     4   ar
     4     4     5   ar
     5     5    28    1
     6    28    29    1
     7    28    30    1
     8    28    31    1
     9     5     6   ar
    10     6     7   ar
    11     7     8   ar
    12     8     9   ar
    13     9    10   ar
    14    10    11    2
    15    10    12   ar
    16    12    13    1
    17    13    14   ar
    18    14    15   ar
    19    15    16   ar
    20    16    19    1
    21    19    20    1
    22    20    21    1
    23    21    22    1
    24    22    23    1
    25    23    24    1
    26    24    25    1
    27    25    26    1
    28    26    27    1
    29    16    17   ar
    30    17    18   ar
    31    12     2   ar
    32    18    13   ar
    33     9     4   ar
    34    27    23    1
@<TRIPOS>MOLECULE
*****
 31 34 0 0 0
SMALL
GASTEIGER

@<TRIPOS>ATOM
      1 C          -7.0013  -19.5852   19.7654 C.3     1  UNL1        0.0723
      2 C          -5.9316  -18.8319   20.4992 C.ar    1  UNL1        0.1268
      3 N          -4.6315  -18.5214   19.8185 N.ar    1  UNL1       -0.2319
      4 C          -3.5618  -17.7682   20.5524 C.ar    1  UNL1        0.0910
      5 C          -2.2617  -17.4577   19.8717 C.ar    1  UNL1        0.0892
      6 C          -1.1921  -16.7045   20.6055 C.ar    1  UNL1        0.0054
      7 C          -1.4226  -16.2618   22.0201 C.ar    1  UNL1        0.0002
      8 C          -2.7226  -16.5723   22.7007 C.ar    1  UNL1        0.0063
      9 C          -3.7923  -17.3255   21.9669 C.ar    1  UNL1        0.0741
     10 C          -5.0924  -17.6360   22.6476 C.ar    1  UNL1        0.2669
     11 O          -5.3229  -17.1933   24.0621 O.2     1  UNL1       -0.2665
     12 N          -6.1620  -18.3892   21.9137 N.ar    1  UNL1       -0.2626
     13 C          -7.4622  -18.6997   22.5944 C.ar    1  UNL1        0.0681
     14 C          -7.8697  -20.1259   22.8182 C.ar    1  UNL1        0.0208
     15 C          -9.1697  -20.4364   23.4989 C.ar    1  UNL1        0.0384
     16 C         -10.0623  -19.3209   23.9557 C.ar    1  UNL1        0.1386
     17 C          -9.6548  -17.8947   23.7319 C.ar    1  UNL1        0.0384
     18 C          -8.3547  -17.5842   23.0513 C.ar    1  UNL1        0.0208
     19 O         -11.3625  -19.6314   24.6364 O.3     1  UNL1       -0.4754
     20 C         -12.3818  -18.5492   24.8358 C.3     1  UNL1        0.2068
     21 C         -13.3486  -18.2179   23.7378 C.3     1  UNL1        0.0646
     22 C         -13.0843  -17.0516   22.8324 C.3     1  UNL1        0.0759
     23 N         -12.2796  -17.2409   21.5808 N.3     1  UNL1       -0.2726
     24 C         -11.7851  -18.5498   21.0400 C.3     1  UNL1        0.0721
     25 C         -11.0280  -18.2725   19.7752 C.3     1  UNL1        0.0188
     26 C         -11.0545  -16.7922   19.5342 C.3     1  UNL1        0.0188
     27 C         -11.8280  -16.1547   20.6501 C.3     1  UNL1        0.0721
     28 C          -2.0313  -17.9004   18.4571 C.3     1  UNL1        0.4200
     29 F          -1.8008  -18.3431   17.0426 F       1  UNL1       -0.1658
     30 F          -2.8579  -16.7505   17.9626 F       1  UNL1       -0.1658
     31 F          -1.2047  -19.0503   18.9517 F       1  UNL1       -0.1658
@<TRIPOS>BOND
     1     1     2    1
     2     2     3   ar
     3     3     4   ar
     4     4     5   ar
     5     5    28    1
     6    28    29    1
     7    28    30    1
     8    28    31    1
     9     5     6   ar
    10     6     7   ar
    11     7     8   ar
    12     8     9   ar
    13     9    10   ar
    14    10    11    2
    15    10    12   ar
    16    12    13    1
    17    13    14   ar
    18    14    15   ar
    19    15    16   ar
    20    16    19    1
    21    19    20    1
    22    20    21    1
    23    21    22    1
    24    22    23    1
    25    23    24    1
    26    24    25    1
    27    25    26    1
    28    26    27    1
    29    16    17   ar
    30    17    18   ar
    31    12     2   ar
    32    18    13   ar
    33     9     4   ar
    34    27    23    1
@<TRIPOS>MOLECULE
*****
 31 34 0 0 0
SMALL
GASTEIGER

@<TRIPOS>ATOM
      1 C           0.3213   -0.2989   20.5866 C.3     1  UNL1        0.0723
      2 C           1.6781   -0.3229   19.9472 C.ar    1  UNL1        0.1268
      3 N           2.4769   -1.5924   19.9303 N.ar    1  UNL1       -0.2319
      4 C           3.8337   -1.6163   19.2910 C.ar    1  UNL1        0.0910
      5 C           4.6325   -2.8858   19.2741 C.ar    1  UNL1        0.0892
      6 C           5.9892   -2.9097   18.6348 C.ar    1  UNL1        0.0054
      7 C           6.5471   -1.6641   18.0124 C.ar    1  UNL1        0.0002
      8 C           5.7483   -0.3947   18.0293 C.ar    1  UNL1        0.0063
      9 C           4.3916   -0.3708   18.6686 C.ar    1  UNL1        0.0741
     10 C           3.5927    0.8987   18.6855 C.ar    1  UNL1        0.2669
     11 O           4.1506    2.1443   18.0631 O.2     1  UNL1       -0.2665
     12 N           2.2360    0.9226   19.3248 N.ar    1  UNL1       -0.2626
     13 C           1.4371    2.1922   19.3418 C.ar    1  UNL1        0.0681
     14 C           1.5266    3.1190   20.5178 C.ar    1  UNL1        0.0208
     15 C           0.7278    4.3884   20.5348 C.ar    1  UNL1        0.0384
     16 C          -0.1605    4.7310   19.3757 C.ar    1  UNL1        0.1386
     17 C          -0.2501    3.8042   18.1997 C.ar    1  UNL1        0.0384
     18 C           0.5488    2.5348   18.1828 C.ar    1  UNL1        0.0208
     19 O          -0.9594    6.0006   19.3927 O.3     1  UNL1       -0.4754
     20 C          -2.3160    6.0245   20.0323 C.3     1  UNL1        0.2068
     21 C          -3.3466    5.0063   19.6436 C.3     1  UNL1        0.0646
     22 C          -3.3573    3.6599   20.3046 C.3     1  UNL1        0.0759
     23 N          -3.6181    3.5496   21.7776 N.3     1  UNL1       -0.2726
     24 C          -2.6270    3.8185   22.8711 C.3     1  UNL1        0.0721
     25 C          -3.3120    3.5861   24.1851 C.3     1  UNL1        0.0188
     26 C          -4.7265    3.1735   23.9038 C.3     1  UNL1        0.0188
     27 C          -4.9157    3.1510   22.4159 C.3     1  UNL1        0.0721
     28 C           4.0746   -4.1313   19.8965 C.3     1  UNL1        0.4200
     29 F           3.5167   -5.3769   20.5189 F       1  UNL1       -0.1658
     30 F           3.5603   -4.5700   18.5575 F       1  UNL1       -0.1658
     31 F           4.5890   -3.6926   21.2355 F       1  UNL1       -0.1658
@<TRIPOS>BOND
     1     1     2    1
     2     2     3   ar
     3     3     4   ar
     4     4     5   ar
     5     5    28    1
     6    28    29    1
     7    28    30    1
     8    28    31    1
     9     5     6   ar
    10     6     7   ar
    11     7     8   ar
    12     8     9   ar
    13     9    10   ar
    14    10    11    2
    15    10    12   ar
    16    12    13    1
    17    13    14   ar
    18    14    15   ar
    19    15    16   ar
    20    16    19    1
    21    19    20    1
    22    20    21    1
    23    21    22    1
    24    22    23    1
    25    23    24    1
    26    24    25    1
    27    25    26    1
    28    26    27    1
    29    16    17   ar
    30    17    18   ar
    31    12     2   ar
    32    18    13   ar
    33     9     4   ar
    34    27    23    1
@<TRIPOS>MOLECULE
*****
 31 34 0 0 0
SMALL
GASTEIGER

@<TRIPOS>ATOM
      1 C           7.5548   -5.4112   23.8536 C.3     1  UNL1        0.0723
      2 C           6.9642   -4.4047   24.7960 C.ar    1  UNL1        0.1268
      3 N           7.2346   -4.5065   26.2679 N.ar    1  UNL1       -0.2319
      4 C           6.6440   -3.4999   27.2103 C.ar    1  UNL1        0.0910
      5 C           6.9144   -3.6017   28.6822 C.ar    1  UNL1        0.0892
      6 C           6.3238   -2.5951   29.6246 C.ar    1  UNL1        0.0054
      7 C           5.4629   -1.4868   29.0950 C.ar    1  UNL1        0.0002
      8 C           5.1925   -1.3850   27.6231 C.ar    1  UNL1        0.0063
      9 C           5.7831   -2.3916   26.6808 C.ar    1  UNL1        0.0741
     10 C           5.5127   -2.2898   25.2088 C.ar    1  UNL1        0.2669
     11 O           4.6518   -1.1815   24.6793 O.2     1  UNL1       -0.2665
     12 N           6.1033   -3.2963   24.2665 N.ar    1  UNL1       -0.2626
     13 C           5.8329   -3.1946   22.7945 C.ar    1  UNL1        0.0681
     14 C           4.6607   -3.9139   22.1958 C.ar    1  UNL1        0.0208
     15 C           4.3904   -3.8122   20.7239 C.ar    1  UNL1        0.0384
     16 C           5.2922   -2.9911   19.8507 C.ar    1  UNL1        0.1386
     17 C           6.4644   -2.2718   20.4494 C.ar    1  UNL1        0.0384
     18 C           6.7348   -2.3735   21.9213 C.ar    1  UNL1        0.0208
     19 O           5.0218   -2.8894   18.3787 O.3     1  UNL1       -0.4754
     20 C           5.1707   -1.5714   17.6782 C.3     1  UNL1        0.2068
     21 C           3.9749   -0.9131   17.0566 C.3     1  UNL1        0.0646
     22 C           3.1395    0.0381   17.8612 C.3     1  UNL1        0.0759
     23 N           3.0985   -0.0796   19.3560 N.3     1  UNL1       -0.2726
     24 C           4.0125    0.6163   20.3206 C.3     1  UNL1        0.0721
     25 C           3.6153    0.2122   21.7094 C.3     1  UNL1        0.0188
     26 C           2.4557   -0.7335   21.6033 C.3     1  UNL1        0.0188
     27 C           2.1363   -0.9138   20.1487 C.3     1  UNL1        0.0721
     28 C           7.7753   -4.7100   29.2118 C.3     1  UNL1        0.4200
     29 F           8.6362   -5.8183   29.7413 F       1  UNL1       -0.1658
     30 F           6.5539   -5.5512   29.4369 F       1  UNL1       -0.1658
     31 F           8.9967   -3.8689   28.9866 F       1  UNL1       -0.1658
@<TRIPOS>BOND
     1     1     2    1
     2     2     3   ar
     3     3     4   ar
     4     4     5   ar
     5     5    28    1
     6    28    29    1
     7    28    30    1
     8    28    31    1
     9     5     6   ar
    10     6     7   ar
    11     7     8   ar
    12     8     9   ar
    13     9    10   ar
    14    10    11    2
    15    10    12   ar
    16    12    13    1
    17    13    14   ar
    18    14    15   ar
    19    15    16   ar
    20    16    19    1
    21    19    20    1
    22    20    21    1
    23    21    22    1
    24    22    23    1
    25    23    24    1
    26    24    25    1
    27    25    26    1
    28    26    27    1
    29    16    17   ar
    30    17    18   ar
    31    12     2   ar
    32    18    13   ar
    33     9     4   ar
    34    27    23    1
