@<TRIPOS>MOLECULE
*****
 28 31 0 0 0
SMALL
GASTEIGER

@<TRIPOS>ATOM
      1 N          -5.9836  -18.1473   22.3729 N.ar    1  UNL1       -0.3048
      2 C          -7.0466  -19.1966   22.2348 C.ar    1  UNL1        0.0833
      3 C          -8.2113  -18.7915   23.0888 C.ar    1  UNL1        0.0580
      4 C          -7.8682  -17.4919   23.7547 C.ar    1  UNL1        0.0207
      5 C          -8.6315  -16.6197   24.7067 C.ar    1  UNL1        0.0016
      6 C          -8.0181  -15.3493   25.2163 C.ar    1  UNL1        0.0001
      7 C          -6.6412  -14.9511   24.7738 C.ar    1  UNL1        0.0015
      8 C          -5.8779  -15.8234   23.8217 C.ar    1  UNL1        0.0175
      9 C          -6.4913  -17.0938   23.3122 C.ar    1  UNL1        0.0641
     10 C          -1.9750  -18.1581   20.3280 C.ar    1  UNL1        0.0141
     11 C          -2.1114  -17.5868   21.7082 C.ar    1  UNL1        0.0026
     12 C          -3.4476  -17.5833   22.3898 C.ar    1  UNL1        0.0176
     13 C          -4.6474  -18.1509   21.6913 C.ar    1  UNL1        0.0640
     14 C          -4.5111  -18.7222   20.3110 C.ar    1  UNL1        0.0176
     15 C          -3.1748  -18.7258   19.6294 C.ar    1  UNL1        0.0026
     16 O          -0.5565  -18.0088   18.1565 O.co2   1  UNL1       -0.5446
     17 C          -0.6388  -18.1617   19.6464 C.2     1  UNL1        0.0729
     18 O           0.6150  -18.3182   20.4547 O.co2   1  UNL1       -0.5446
     19 C          -9.4940  -19.5524   23.2489 C.2     1  UNL1        0.2000
     20 O          -9.4801  -20.9294   23.8434 O.2     1  UNL1       -0.2864
     21 C         -10.7909  -18.9362   22.8144 C.ar    1  UNL1        0.0770
     22 C         -11.8028  -18.5174   23.8394 C.ar    1  UNL1        0.1440
     23 F         -11.5179  -18.7148   25.2989 F       1  UNL1       -0.2040
     24 C         -13.0996  -17.9013   23.4050 C.ar    1  UNL1        0.0298
     25 C         -13.3844  -17.7039   21.9456 C.ar    1  UNL1        0.0032
     26 C         -12.3724  -18.1227   20.9206 C.ar    1  UNL1        0.0116
     27 C         -11.0757  -18.7389   21.3550 C.ar    1  UNL1        0.0629
     28 CL        -10.0638  -19.1577   20.3300 Cl      1  UNL1       -0.0821
@<TRIPOS>UNITY_ATOM_ATTR
16 1
charge -1
@<TRIPOS>BOND
     1    16    17   ar
     2    17    18   ar
     3    17    10    1
     4    10    11   ar
     5    11    12   ar
     6    12    13   ar
     7    13     1    1
     8     1     2   ar
     9     2     3   ar
    10     3    19    1
    11    19    20    2
    12    19    21    1
    13    21    22   ar
    14    22    23    1
    15    22    24   ar
    16    24    25   ar
    17    25    26   ar
    18    26    27   ar
    19    27    28    1
    20     3     4   ar
    21     4     5   ar
    22     5     6   ar
    23     6     7   ar
    24     7     8   ar
    25     8     9   ar
    26    13    14   ar
    27    14    15   ar
    28    15    10   ar
    29     9     1   ar
    30    27    21   ar
    31     9     4   ar
@<TRIPOS>MOLECULE
*****
 28 31 0 0 0
SMALL
GASTEIGER

@<TRIPOS>ATOM
      1 N          -5.9588  -18.1086   22.3450 N.ar    1  UNL1       -0.3048
      2 C          -7.0453  -19.1243   22.1506 C.ar    1  UNL1        0.0833
      3 C          -8.2100  -18.7271   23.0085 C.ar    1  UNL1        0.0580
      4 C          -7.8432  -17.4660   23.7331 C.ar    1  UNL1        0.0207
      5 C          -8.5964  -16.6163   24.7132 C.ar    1  UNL1        0.0016
      6 C          -7.9583  -15.3844   25.2833 C.ar    1  UNL1        0.0001
      7 C          -6.5670  -15.0021   24.8733 C.ar    1  UNL1        0.0015
      8 C          -5.8138  -15.8518   23.8931 C.ar    1  UNL1        0.0175
      9 C          -6.4519  -17.0837   23.3230 C.ar    1  UNL1        0.0641
     10 C          -1.9276  -18.1320   20.3453 C.ar    1  UNL1        0.0141
     11 C          -2.0834  -17.5339   21.7120 C.ar    1  UNL1        0.0026
     12 C          -3.4271  -17.5261   22.3785 C.ar    1  UNL1        0.0176
     13 C          -4.6151  -18.1164   21.6785 C.ar    1  UNL1        0.0640
     14 C          -4.4593  -18.7146   20.3116 C.ar    1  UNL1        0.0176
     15 C          -3.1156  -18.7224   19.6451 C.ar    1  UNL1        0.0026
     16 O           0.6615  -18.2777   20.5033 O.co2   1  UNL1       -0.5446
     17 C          -0.5838  -18.1398   19.6787 C.2     1  UNL1        0.0729
     18 O          -0.4855  -18.0098   18.1876 O.co2   1  UNL1       -0.5446
     19 C          -9.5127  -19.4621   23.1219 C.2     1  UNL1        0.2000
     20 O          -9.5459  -20.8442   23.7036 O.2     1  UNL1       -0.2864
     21 C         -10.7822  -18.8148   22.6535 C.ar    1  UNL1        0.0770
     22 C         -10.9551  -18.4635   21.2055 C.ar    1  UNL1        0.1440
     23 F          -9.8583  -18.7596   20.2259 F       1  UNL1       -0.2040
     24 C         -12.2245  -17.8163   20.7370 C.ar    1  UNL1        0.0298
     25 C         -13.3212  -17.5203   21.7167 C.ar    1  UNL1        0.0032
     26 C         -13.1484  -17.8715   23.1647 C.ar    1  UNL1        0.0116
     27 C         -11.8789  -18.5188   23.6331 C.ar    1  UNL1        0.0629
     28 CL        -11.7061  -18.8701   25.0811 Cl      1  UNL1       -0.0821
@<TRIPOS>UNITY_ATOM_ATTR
16 1
charge -1
@<TRIPOS>BOND
     1    16    17   ar
     2    17    18   ar
     3    17    10    1
     4    10    11   ar
     5    11    12   ar
     6    12    13   ar
     7    13     1    1
     8     1     2   ar
     9     2     3   ar
    10     3    19    1
    11    19    20    2
    12    19    21    1
    13    21    22   ar
    14    22    23    1
    15    22    24   ar
    16    24    25   ar
    17    25    26   ar
    18    26    27   ar
    19    27    28    1
    20     3     4   ar
    21     4     5   ar
    22     5     6   ar
    23     6     7   ar
    24     7     8   ar
    25     8     9   ar
    26    13    14   ar
    27    14    15   ar
    28    15    10   ar
    29     9     1   ar
    30    27    21   ar
    31     9     4   ar
@<TRIPOS>MOLECULE
*****
 28 31 0 0 0
SMALL
GASTEIGER

@<TRIPOS>ATOM
      1 N          -5.9968  -18.1750   21.6480 N.ar    1  UNL1       -0.3048
      2 C          -6.5670  -17.5458   22.8845 C.ar    1  UNL1        0.0833
      3 C          -8.0477  -17.7859   22.8861 C.ar    1  UNL1        0.0580
      4 C          -8.3926  -18.5634   21.6506 C.ar    1  UNL1        0.0207
      5 C          -9.6970  -19.0835   21.1235 C.ar    1  UNL1        0.0016
      6 C          -9.7340  -19.8441   19.8312 C.ar    1  UNL1        0.0001
      7 C          -8.4664  -20.0846   19.0659 C.ar    1  UNL1        0.0015
      8 C          -7.1620  -19.5645   19.5930 C.ar    1  UNL1        0.0175
      9 C          -7.1251  -18.8039   20.8854 C.ar    1  UNL1        0.0641
     10 C          -1.6624  -18.1757   20.4385 C.ar    1  UNL1        0.0141
     11 C          -2.7239  -18.4849   19.4249 C.ar    1  UNL1        0.0026
     12 C          -4.1687  -18.4847   19.8281 C.ar    1  UNL1        0.0176
     13 C          -4.5520  -18.1752   21.2448 C.ar    1  UNL1        0.0640
     14 C          -3.4904  -17.8659   22.2585 C.ar    1  UNL1        0.0176
     15 C          -2.0456  -17.8662   21.8553 C.ar    1  UNL1        0.0026
     16 O           0.5500  -16.8878   19.9953 O.co2   1  UNL1       -0.5446
     17 C          -0.2176  -18.1759   20.0353 C.2     1  UNL1        0.0729
     18 O           0.4596  -19.4641   19.6722 O.co2   1  UNL1       -0.5446
     19 C          -9.0139  -17.3287   23.9385 C.2     1  UNL1        0.2000
     20 O          -8.5047  -16.7070   25.2049 O.2     1  UNL1       -0.2864
     21 C         -10.4895  -17.4933   23.7243 C.ar    1  UNL1        0.0770
     22 C         -11.2233  -16.5587   22.8089 C.ar    1  UNL1        0.1440
     23 F         -10.4816  -15.4595   22.1077 F       1  UNL1       -0.2040
     24 C         -12.6988  -16.7232   22.5948 C.ar    1  UNL1        0.0298
     25 C         -13.4404  -17.8225   23.2960 C.ar    1  UNL1        0.0032
     26 C         -12.7065  -18.7571   24.2113 C.ar    1  UNL1        0.0116
     27 C         -11.2311  -18.5926   24.4255 C.ar    1  UNL1        0.0629
     28 CL        -10.4972  -19.5272   25.3409 Cl      1  UNL1       -0.0821
@<TRIPOS>UNITY_ATOM_ATTR
16 1
charge -1
@<TRIPOS>BOND
     1    16    17   ar
     2    17    18   ar
     3    17    10    1
     4    10    11   ar
     5    11    12   ar
     6    12    13   ar
     7    13     1    1
     8     1     2   ar
     9     2     3   ar
    10     3    19    1
    11    19    20    2
    12    19    21    1
    13    21    22   ar
    14    22    23    1
    15    22    24   ar
    16    24    25   ar
    17    25    26   ar
    18    26    27   ar
    19    27    28    1
    20     3     4   ar
    21     4     5   ar
    22     5     6   ar
    23     6     7   ar
    24     7     8   ar
    25     8     9   ar
    26    13    14   ar
    27    14    15   ar
    28    15    10   ar
    29     9     1   ar
    30    27    21   ar
    31     9     4   ar
@<TRIPOS>MOLECULE
*****
 28 31 0 0 0
SMALL
GASTEIGER

@<TRIPOS>ATOM
      1 N          -6.2859  -18.6794   21.5062 N.ar    1  UNL1       -0.3048
      2 C          -6.9124  -18.3287   22.8232 C.ar    1  UNL1        0.0833
      3 C          -8.3792  -18.6293   22.7334 C.ar    1  UNL1        0.0580
      4 C          -8.6593  -19.1657   21.3608 C.ar    1  UNL1        0.0207
      5 C          -9.9252  -19.6300   20.7037 C.ar    1  UNL1        0.0016
      6 C          -9.8974  -20.1252   19.2881 C.ar    1  UNL1        0.0001
      7 C          -8.6036  -20.1562   18.5297 C.ar    1  UNL1        0.0015
      8 C          -7.3377  -19.6919   19.1868 C.ar    1  UNL1        0.0175
      9 C          -7.3655  -19.1967   20.6024 C.ar    1  UNL1        0.0641
     10 C          -1.9319  -18.2542   20.4514 C.ar    1  UNL1        0.0141
     11 C          -2.4028  -17.9305   21.8383 C.ar    1  UNL1        0.0026
     12 C          -3.8541  -18.0722   22.1899 C.ar    1  UNL1        0.0176
     13 C          -4.8346  -18.5377   21.1546 C.ar    1  UNL1        0.0640
     14 C          -4.3638  -18.8614   19.7676 C.ar    1  UNL1        0.0176
     15 C          -2.9125  -18.7197   19.4161 C.ar    1  UNL1        0.0026
     16 O           0.1842  -16.7707   20.1859 O.co2   1  UNL1       -0.5446
     17 C          -0.4806  -18.1125   20.0999 C.2     1  UNL1        0.0729
     18 O           0.3057  -19.3126   19.6623 O.co2   1  UNL1       -0.5446
     19 C          -9.3888  -18.4286   23.8245 C.2     1  UNL1        0.2000
     20 O          -9.0643  -18.8368   25.2309 O.2     1  UNL1       -0.2864
     21 C         -10.7230  -17.8197   23.5092 C.ar    1  UNL1        0.0770
     22 C         -11.9817  -18.4865   23.9792 C.ar    1  UNL1        0.1440
     23 F         -11.9062  -19.7623   24.7646 F       1  UNL1       -0.2040
     24 C         -13.3158  -17.8777   23.6640 C.ar    1  UNL1        0.0298
     25 C         -13.3911  -16.6020   22.8786 C.ar    1  UNL1        0.0032
     26 C         -12.1324  -15.9351   22.4085 C.ar    1  UNL1        0.0116
     27 C         -10.7983  -16.5439   22.7238 C.ar    1  UNL1        0.0629
     28 CL         -9.5396  -15.8771   22.2537 Cl      1  UNL1       -0.0821
@<TRIPOS>UNITY_ATOM_ATTR
16 1
charge -1
@<TRIPOS>BOND
     1    16    17   ar
     2    17    18   ar
     3    17    10    1
     4    10    11   ar
     5    11    12   ar
     6    12    13   ar
     7    13     1    1
     8     1     2   ar
     9     2     3   ar
    10     3    19    1
    11    19    20    2
    12    19    21    1
    13    21    22   ar
    14    22    23    1
    15    22    24   ar
    16    24    25   ar
    17    25    26   ar
    18    26    27   ar
    19    27    28    1
    20     3     4   ar
    21     4     5   ar
    22     5     6   ar
    23     6     7   ar
    24     7     8   ar
    25     8     9   ar
    26    13    14   ar
    27    14    15   ar
    28    15    10   ar
    29     9     1   ar
    30    27    21   ar
    31     9     4   ar
@<TRIPOS>MOLECULE
*****
 28 31 0 0 0
SMALL
GASTEIGER

@<TRIPOS>ATOM
      1 N          -5.6673  -17.1106   23.0726 N.ar    1  UNL1       -0.3048
      2 C          -6.9950  -17.6183   22.5934 C.ar    1  UNL1        0.0833
      3 C          -8.0373  -17.2006   23.5880 C.ar    1  UNL1        0.0580
      4 C          -7.3538  -16.4349   24.6819 C.ar    1  UNL1        0.0207
      5 C          -7.8759  -15.7810   25.9268 C.ar    1  UNL1        0.0016
      6 C          -6.9334  -15.0716   26.8531 C.ar    1  UNL1        0.0001
      7 C          -5.4686  -15.0160   26.5346 C.ar    1  UNL1        0.0015
      8 C          -4.9465  -15.6698   25.2897 C.ar    1  UNL1        0.0175
      9 C          -5.8891  -16.3792   24.3633 C.ar    1  UNL1        0.0641
     10 C          -1.7131  -17.6814   21.0016 C.ar    1  UNL1        0.0141
     11 C          -2.6982  -18.8110   21.0620 C.ar    1  UNL1        0.0026
     12 C          -4.0162  -18.6207   21.7523 C.ar    1  UNL1        0.0176
     13 C          -4.3493  -17.3009   22.3823 C.ar    1  UNL1        0.0640
     14 C          -3.3642  -16.1712   22.3219 C.ar    1  UNL1        0.0176
     15 C          -2.0462  -16.3615   21.6316 C.ar    1  UNL1        0.0026
     16 O          -0.0335  -19.2113   19.7414 O.co2   1  UNL1       -0.5446
     17 C          -0.3951  -17.8717   20.3113 C.2     1  UNL1        0.0729
     18 O           0.5613  -16.7225   20.1909 O.co2   1  UNL1       -0.5446
     19 C          -9.5053  -17.4967   23.5036 C.2     1  UNL1        0.2000
     20 O         -10.3804  -17.3004   24.7059 O.2     1  UNL1       -0.2864
     21 C         -10.0983  -17.9893   22.2167 C.ar    1  UNL1        0.0770
     22 C         -10.4276  -17.0177   21.1224 C.ar    1  UNL1        0.1440
     23 F         -10.1638  -15.5537   21.3148 F       1  UNL1       -0.2040
     24 C         -11.0205  -17.5102   19.8356 C.ar    1  UNL1        0.0298
     25 C         -11.2843  -18.9742   19.6432 C.ar    1  UNL1        0.0032
     26 C         -10.9550  -19.9457   20.7376 C.ar    1  UNL1        0.0116
     27 C         -10.3621  -19.4533   22.0244 C.ar    1  UNL1        0.0629
     28 CL        -10.0328  -20.4249   23.1188 Cl      1  UNL1       -0.0821
@<TRIPOS>UNITY_ATOM_ATTR
16 1
charge -1
@<TRIPOS>BOND
     1    16    17   ar
     2    17    18   ar
     3    17    10    1
     4    10    11   ar
     5    11    12   ar
     6    12    13   ar
     7    13     1    1
     8     1     2   ar
     9     2     3   ar
    10     3    19    1
    11    19    20    2
    12    19    21    1
    13    21    22   ar
    14    22    23    1
    15    22    24   ar
    16    24    25   ar
    17    25    26   ar
    18    26    27   ar
    19    27    28    1
    20     3     4   ar
    21     4     5   ar
    22     5     6   ar
    23     6     7   ar
    24     7     8   ar
    25     8     9   ar
    26    13    14   ar
    27    14    15   ar
    28    15    10   ar
    29     9     1   ar
    30    27    21   ar
    31     9     4   ar
@<TRIPOS>MOLECULE
*****
 28 31 0 0 0
SMALL
GASTEIGER

@<TRIPOS>ATOM
      1 N          -6.3013  -18.2253   21.3180 N.ar    1  UNL1       -0.3048
      2 C          -6.9554  -17.5095   22.4625 C.ar    1  UNL1        0.0833
      3 C          -8.4320  -17.7615   22.3836 C.ar    1  UNL1        0.0580
      4 C          -8.6905  -18.6330   21.1905 C.ar    1  UNL1        0.0207
      5 C          -9.9548  -19.2026   20.6187 C.ar    1  UNL1        0.0016
      6 C          -9.9023  -20.0589   19.3882 C.ar    1  UNL1        0.0001
      7 C          -8.5854  -20.3455   18.7296 C.ar    1  UNL1        0.0015
      8 C          -7.3211  -19.7759   19.3014 C.ar    1  UNL1        0.0175
      9 C          -7.3736  -18.9197   20.5319 C.ar    1  UNL1        0.0641
     10 C          -1.8955  -18.2799   20.4035 C.ar    1  UNL1        0.0141
     11 C          -2.8905  -18.5635   19.3174 C.ar    1  UNL1        0.0026
     12 C          -4.3591  -18.5453   19.6223 C.ar    1  UNL1        0.0176
     13 C          -4.8327  -18.2435   21.0131 C.ar    1  UNL1        0.0640
     14 C          -3.8377  -17.9599   22.0993 C.ar    1  UNL1        0.0176
     15 C          -2.3691  -17.9782   21.7944 C.ar    1  UNL1        0.0026
     16 O           0.3653  -17.0255   20.1491 O.co2   1  UNL1       -0.5446
     17 C          -0.4269  -18.2982   20.0986 C.2     1  UNL1        0.0729
     18 O           0.2493  -19.5891   19.7433 O.co2   1  UNL1       -0.5446
     19 C          -9.4682  -17.2345   23.3316 C.2     1  UNL1        0.2000
     20 O         -10.8872  -17.0683   22.8749 O.2     1  UNL1       -0.2864
     21 C          -9.0853  -16.8737   24.7364 C.ar    1  UNL1        0.0770
     22 C          -8.3728  -15.5826   25.0115 C.ar    1  UNL1        0.1440
     23 F          -8.0433  -14.6525   23.8817 F       1  UNL1       -0.2040
     24 C          -7.9899  -15.2218   26.4161 C.ar    1  UNL1        0.0298
     25 C          -8.3195  -16.1520   27.5457 C.ar    1  UNL1        0.0032
     26 C          -9.0320  -17.4430   27.2707 C.ar    1  UNL1        0.0116
     27 C          -9.4149  -17.8039   25.8660 C.ar    1  UNL1        0.0629
     28 CL        -10.1273  -19.0949   25.5909 Cl      1  UNL1       -0.0821
@<TRIPOS>UNITY_ATOM_ATTR
16 1
charge -1
@<TRIPOS>BOND
     1    16    17   ar
     2    17    18   ar
     3    17    10    1
     4    10    11   ar
     5    11    12   ar
     6    12    13   ar
     7    13     1    1
     8     1     2   ar
     9     2     3   ar
    10     3    19    1
    11    19    20    2
    12    19    21    1
    13    21    22   ar
    14    22    23    1
    15    22    24   ar
    16    24    25   ar
    17    25    26   ar
    18    26    27   ar
    19    27    28    1
    20     3     4   ar
    21     4     5   ar
    22     5     6   ar
    23     6     7   ar
    24     7     8   ar
    25     8     9   ar
    26    13    14   ar
    27    14    15   ar
    28    15    10   ar
    29     9     1   ar
    30    27    21   ar
    31     9     4   ar
@<TRIPOS>MOLECULE
*****
 28 31 0 0 0
SMALL
GASTEIGER

@<TRIPOS>ATOM
      1 N          -8.2174  -18.4149   22.8663 N.ar    1  UNL1       -0.3048
      2 C          -7.5900  -19.3845   21.9091 C.ar    1  UNL1        0.0833
      3 C          -6.1535  -18.9927   21.7275 C.ar    1  UNL1        0.0580
      4 C          -5.8931  -17.7809   22.5724 C.ar    1  UNL1        0.0207
      5 C          -4.6593  -16.9566   22.7918 C.ar    1  UNL1        0.0016
      6 C          -4.7011  -15.7751   23.7150 C.ar    1  UNL1        0.0001
      7 C          -5.9767  -15.4181   24.4189 C.ar    1  UNL1        0.0015
      8 C          -7.2105  -16.2424   24.1995 C.ar    1  UNL1        0.0175
      9 C          -7.1687  -17.4238   23.2763 C.ar    1  UNL1        0.0641
     10 C         -12.4948  -18.4697   24.2631 C.ar    1  UNL1        0.0141
     11 C         -12.1259  -17.7406   23.0052 C.ar    1  UNL1        0.0026
     12 C         -10.7001  -17.7224   22.5396 C.ar    1  UNL1        0.0176
     13 C          -9.6432  -18.4331   23.3319 C.ar    1  UNL1        0.0640
     14 C         -10.0122  -19.1622   24.5899 C.ar    1  UNL1        0.0176
     15 C         -11.4380  -19.1805   25.0555 C.ar    1  UNL1        0.0026
     16 O         -15.0343  -18.2997   23.7416 O.co2   1  UNL1       -0.5446
     17 C         -13.9206  -18.4879   24.7287 C.2     1  UNL1        0.0729
     18 O         -14.2327  -18.6943   26.1813 O.co2   1  UNL1       -0.5446
     19 C          -5.1530  -19.6901   20.8542 C.2     1  UNL1        0.2000
     20 O          -5.4578  -21.0520   20.3044 O.2     1  UNL1       -0.2864
     21 C          -3.8476  -19.0257   20.5308 C.ar    1  UNL1        0.0770
     22 C          -3.7123  -18.2066   19.2815 C.ar    1  UNL1        0.1440
     23 F          -4.8823  -18.0520   18.3556 F       1  UNL1       -0.2040
     24 C          -2.4070  -17.5421   18.9580 C.ar    1  UNL1        0.0298
     25 C          -1.2370  -17.6968   19.8838 C.ar    1  UNL1        0.0032
     26 C          -1.3724  -18.5158   21.1331 C.ar    1  UNL1        0.0116
     27 C          -2.6777  -19.1803   21.4566 C.ar    1  UNL1        0.0629
     28 CL         -2.8130  -19.9994   22.7059 Cl      1  UNL1       -0.0821
@<TRIPOS>UNITY_ATOM_ATTR
16 1
charge -1
@<TRIPOS>BOND
     1    16    17   ar
     2    17    18   ar
     3    17    10    1
     4    10    11   ar
     5    11    12   ar
     6    12    13   ar
     7    13     1    1
     8     1     2   ar
     9     2     3   ar
    10     3    19    1
    11    19    20    2
    12    19    21    1
    13    21    22   ar
    14    22    23    1
    15    22    24   ar
    16    24    25   ar
    17    25    26   ar
    18    26    27   ar
    19    27    28    1
    20     3     4   ar
    21     4     5   ar
    22     5     6   ar
    23     6     7   ar
    24     7     8   ar
    25     8     9   ar
    26    13    14   ar
    27    14    15   ar
    28    15    10   ar
    29     9     1   ar
    30    27    21   ar
    31     9     4   ar
@<TRIPOS>MOLECULE
*****
 28 31 0 0 0
SMALL
GASTEIGER

@<TRIPOS>ATOM
      1 N          -7.2911  -16.8872   23.0864 N.ar    1  UNL1       -0.3048
      2 C          -6.1006  -17.5414   22.4502 C.ar    1  UNL1        0.0833
      3 C          -4.9131  -17.3037   23.3353 C.ar    1  UNL1        0.0580
      4 C          -5.3697  -16.5026   24.5184 C.ar    1  UNL1        0.0207
      5 C          -4.6371  -15.9743   25.7160 C.ar    1  UNL1        0.0016
      6 C          -5.3742  -15.1886   26.7597 C.ar    1  UNL1        0.0001
      7 C          -6.8439  -14.9312   26.6058 C.ar    1  UNL1        0.0015
      8 C          -7.5765  -15.4595   25.4083 C.ar    1  UNL1        0.0175
      9 C          -6.8394  -16.2452   24.3646 C.ar    1  UNL1        0.0641
     10 C         -11.4821  -16.8562   21.4479 C.ar    1  UNL1        0.0141
     11 C         -10.5029  -15.8023   21.0230 C.ar    1  UNL1        0.0026
     12 C          -9.1059  -15.8127   21.5692 C.ar    1  UNL1        0.0176
     13 C          -8.6881  -16.8769   22.5402 C.ar    1  UNL1        0.0640
     14 C          -9.6674  -17.9308   22.9651 C.ar    1  UNL1        0.0176
     15 C         -11.0644  -17.9204   22.4189 C.ar    1  UNL1        0.0026
     16 O         -13.8892  -17.8330   21.4069 O.co2   1  UNL1       -0.5446
     17 C         -12.8791  -16.8458   20.9017 C.2     1  UNL1        0.0729
     18 O         -13.2660  -15.8484   19.8504 O.co2   1  UNL1       -0.5446
     19 C          -3.5145  -17.7829   23.0818 C.2     1  UNL1        0.2000
     20 O          -2.5873  -18.0340   24.2338 O.2     1  UNL1       -0.2864
     21 C          -3.0430  -18.0110   21.6761 C.ar    1  UNL1        0.0770
     22 C          -3.4909  -19.2284   20.9231 C.ar    1  UNL1        0.1440
     23 F          -4.4103  -20.2178   21.5757 F       1  UNL1       -0.2040
     24 C          -3.0196  -19.4566   19.5175 C.ar    1  UNL1        0.0298
     25 C          -2.1002  -18.4671   18.8649 C.ar    1  UNL1        0.0032
     26 C          -1.6523  -17.2497   19.6180 C.ar    1  UNL1        0.0116
     27 C          -2.1237  -17.0215   21.0236 C.ar    1  UNL1        0.0629
     28 CL         -1.6758  -15.8040   21.7766 Cl      1  UNL1       -0.0821
@<TRIPOS>UNITY_ATOM_ATTR
16 1
charge -1
@<TRIPOS>BOND
     1    16    17   ar
     2    17    18   ar
     3    17    10    1
     4    10    11   ar
     5    11    12   ar
     6    12    13   ar
     7    13     1    1
     8     1     2   ar
     9     2     3   ar
    10     3    19    1
    11    19    20    2
    12    19    21    1
    13    21    22   ar
    14    22    23    1
    15    22    24   ar
    16    24    25   ar
    17    25    26   ar
    18    26    27   ar
    19    27    28    1
    20     3     4   ar
    21     4     5   ar
    22     5     6   ar
    23     6     7   ar
    24     7     8   ar
    25     8     9   ar
    26    13    14   ar
    27    14    15   ar
    28    15    10   ar
    29     9     1   ar
    30    27    21   ar
    31     9     4   ar
@<TRIPOS>MOLECULE
*****
 28 31 0 0 0
SMALL
GASTEIGER

@<TRIPOS>ATOM
      1 N          -7.2042  -16.9228   23.0206 N.ar    1  UNL1       -0.3048
      2 C          -6.0172  -17.5943   22.3961 C.ar    1  UNL1        0.0833
      3 C          -4.8269  -17.3408   23.2730 C.ar    1  UNL1        0.0580
      4 C          -5.2782  -16.5127   24.4394 C.ar    1  UNL1        0.0207
      5 C          -4.5412  -15.9605   25.6233 C.ar    1  UNL1        0.0016
      6 C          -5.2734  -15.1500   26.6513 C.ar    1  UNL1        0.0001
      7 C          -6.7428  -14.8916   26.4954 C.ar    1  UNL1        0.0015
      8 C          -7.4798  -15.4438   25.3114 C.ar    1  UNL1        0.0175
      9 C          -6.7476  -16.2543   24.2834 C.ar    1  UNL1        0.0641
     10 C         -11.3991  -16.9150   21.3917 C.ar    1  UNL1        0.0141
     11 C         -10.9030  -18.0904   22.1805 C.ar    1  UNL1        0.0026
     12 C          -9.5047  -18.0930   22.7235 C.ar    1  UNL1        0.0176
     13 C          -8.6025  -16.9202   22.4777 C.ar    1  UNL1        0.0640
     14 C          -9.0986  -15.7447   21.6889 C.ar    1  UNL1        0.0176
     15 C         -10.4969  -15.7421   21.1459 C.ar    1  UNL1        0.0026
     16 O         -13.1826  -15.9399   19.7736 O.co2   1  UNL1       -0.5446
     17 C         -12.7974  -16.9124   20.8488 C.2     1  UNL1        0.0729
     18 O         -13.8104  -17.8822   21.3810 O.co2   1  UNL1       -0.5446
     19 C          -3.4303  -17.8296   23.0267 C.2     1  UNL1        0.2000
     20 O          -2.5557  -18.2149   24.1827 O.2     1  UNL1       -0.2864
     21 C          -2.9083  -17.9331   21.6242 C.ar    1  UNL1        0.0770
     22 C          -2.0346  -16.8485   21.0672 C.ar    1  UNL1        0.1440
     23 F          -1.6829  -15.6604   21.9127 F       1  UNL1       -0.2040
     24 C          -1.5126  -16.9519   19.6648 C.ar    1  UNL1        0.0298
     25 C          -1.8643  -18.1401   18.8194 C.ar    1  UNL1        0.0032
     26 C          -2.7379  -19.2247   19.3764 C.ar    1  UNL1        0.0116
     27 C          -3.2600  -19.1212   20.7788 C.ar    1  UNL1        0.0629
     28 CL         -4.1336  -20.2059   21.3358 Cl      1  UNL1       -0.0821
@<TRIPOS>UNITY_ATOM_ATTR
16 1
charge -1
@<TRIPOS>BOND
     1    16    17   ar
     2    17    18   ar
     3    17    10    1
     4    10    11   ar
     5    11    12   ar
     6    12    13   ar
     7    13     1    1
     8     1     2   ar
     9     2     3   ar
    10     3    19    1
    11    19    20    2
    12    19    21    1
    13    21    22   ar
    14    22    23    1
    15    22    24   ar
    16    24    25   ar
    17    25    26   ar
    18    26    27   ar
    19    27    28    1
    20     3     4   ar
    21     4     5   ar
    22     5     6   ar
    23     6     7   ar
    24     7     8   ar
    25     8     9   ar
    26    13    14   ar
    27    14    15   ar
    28    15    10   ar
    29     9     1   ar
    30    27    21   ar
    31     9     4   ar
