@<TRIPOS>MOLECULE
*****
 21 23 0 0 0
SMALL
GASTEIGER

@<TRIPOS>ATOM
      1 C          -6.8096  -15.9514   24.1581 C.3     1  UNL1        0.0625
      2 C          -5.3220  -15.7828   24.2503 C.3     1  UNL1        0.0210
      3 C          -4.4132  -16.7354   23.5317 C.3     1  UNL1        0.0274
      4 C          -4.9920  -17.8568   22.7207 C.ar    1  UNL1       -0.0257
      5 C          -4.0832  -18.8094   22.0020 C.ar    1  UNL1       -0.0046
      6 C          -4.6620  -19.9307   21.1911 C.ar    1  UNL1       -0.0003
      7 C          -6.1497  -20.0993   21.0988 C.ar    1  UNL1       -0.0003
      8 C          -7.0585  -19.1467   21.8175 C.ar    1  UNL1       -0.0042
      9 C          -6.4796  -18.0254   22.6284 C.ar    1  UNL1       -0.0211
     10 C          -7.3884  -17.0727   23.3471 C.3     1  UNL1        0.0586
     11 C          -8.8761  -17.2413   23.2548 C.ar    1  UNL1       -0.0162
     12 C          -9.5989  -18.0869   24.2612 C.ar    1  UNL1       -0.0030
     13 C         -11.0865  -18.2555   24.1689 C.ar    1  UNL1        0.0119
     14 C         -11.8513  -17.5786   23.0703 C.ar    1  UNL1        0.0682
     15 CL        -13.3390  -17.7472   22.9780 Cl      1  UNL1       -0.0814
     16 C         -11.1285  -16.7331   22.0640 C.ar    1  UNL1        0.0679
     17 CL        -11.8933  -16.0563   20.9653 Cl      1  UNL1       -0.0814
     18 C          -9.6409  -16.5645   22.1563 C.ar    1  UNL1        0.0083
     19 C          -8.2393  -15.3435   26.2405 C.3     1  UNL1        0.0859
     20 N          -7.7184  -14.9987   24.8768 N.3     1  UNL1       -0.2968
     21 H          -7.2095  -14.1196   24.9695 H       1  UNL1        0.1233
@<TRIPOS>BOND
     1    19    20    1
     2     1    20    1
     3     1     2    1
     4     2     3    1
     5     3     4    1
     6     4     5   ar
     7     5     6   ar
     8     6     7   ar
     9     7     8   ar
    10     8     9   ar
    11     9    10    1
    12    10    11    1
    13    11    12   ar
    14    12    13   ar
    15    13    14   ar
    16    14    15    1
    17    14    16   ar
    18    16    17    1
    19    16    18   ar
    20    10     1    1
    21    18    11   ar
    22     9     4   ar
    23    20    21    1
@<TRIPOS>MOLECULE
*****
 21 23 0 0 0
SMALL
GASTEIGER

@<TRIPOS>ATOM
      1 C         -10.3095  -16.9266   21.6957 C.3     1  UNL1        0.0625
      2 C         -10.8751  -17.5503   20.4543 C.3     1  UNL1        0.0210
      3 C         -10.1085  -18.6217   19.7371 C.3     1  UNL1        0.0274
      4 C          -8.7763  -19.0694   20.2613 C.ar    1  UNL1       -0.0257
      5 C          -8.0097  -20.1409   19.5442 C.ar    1  UNL1       -0.0046
      6 C          -6.6775  -20.5885   20.0684 C.ar    1  UNL1       -0.0003
      7 C          -6.1119  -19.9648   21.3098 C.ar    1  UNL1       -0.0003
      8 C          -6.8785  -18.8934   22.0269 C.ar    1  UNL1       -0.0042
      9 C          -8.2107  -18.4457   21.5027 C.ar    1  UNL1       -0.0211
     10 C          -8.9773  -17.3742   22.2199 C.3     1  UNL1        0.0586
     11 C          -8.4117  -16.7505   23.4613 C.ar    1  UNL1       -0.0162
     12 C          -7.3478  -15.6985   23.3542 C.ar    1  UNL1       -0.0030
     13 C          -6.7822  -15.0748   24.5956 C.ar    1  UNL1        0.0119
     14 C          -7.2805  -15.5030   25.9441 C.ar    1  UNL1        0.0682
     15 CL         -6.7149  -14.8793   27.1855 Cl      1  UNL1       -0.0814
     16 C          -8.3444  -16.5550   26.0511 C.ar    1  UNL1        0.0679
     17 CL         -8.8427  -16.9832   27.3996 Cl      1  UNL1       -0.0814
     18 C          -8.9100  -17.1787   24.8097 C.ar    1  UNL1        0.0083
     19 C         -12.5554  -15.9990   22.6152 C.3     1  UNL1        0.0859
     20 N         -11.0761  -15.8551   22.4129 N.3     1  UNL1       -0.2968
     21 H         -10.6596  -15.7651   23.3396 H       1  UNL1        0.1233
@<TRIPOS>BOND
     1    19    20    1
     2     1    20    1
     3     1     2    1
     4     2     3    1
     5     3     4    1
     6     4     5   ar
     7     5     6   ar
     8     6     7   ar
     9     7     8   ar
    10     8     9   ar
    11     9    10    1
    12    10    11    1
    13    11    12   ar
    14    12    13   ar
    15    13    14   ar
    16    14    15    1
    17    14    16   ar
    18    16    17    1
    19    16    18   ar
    20    10     1    1
    21    18    11   ar
    22     9     4   ar
    23    20    21    1
@<TRIPOS>MOLECULE
*****
 21 23 0 0 0
SMALL
GASTEIGER

@<TRIPOS>ATOM
      1 C          -7.0966  -17.1574   22.7823 C.3     1  UNL1        0.0625
      2 C          -5.6494  -16.8011   22.9518 C.3     1  UNL1        0.0210
      3 C          -5.1883  -16.1111   24.2013 C.3     1  UNL1        0.0274
      4 C          -6.1743  -15.7775   25.2813 C.ar    1  UNL1       -0.0257
      5 C          -5.7132  -15.0875   26.5308 C.ar    1  UNL1       -0.0046
      6 C          -6.6992  -14.7539   27.6108 C.ar    1  UNL1       -0.0003
      7 C          -8.1464  -15.1103   27.4413 C.ar    1  UNL1       -0.0003
      8 C          -8.6075  -15.8002   26.1918 C.ar    1  UNL1       -0.0042
      9 C          -7.6215  -16.1338   25.1118 C.ar    1  UNL1       -0.0211
     10 C          -8.0826  -16.8238   23.8623 C.3     1  UNL1        0.0586
     11 C          -9.5298  -17.1802   23.6928 C.ar    1  UNL1       -0.0162
     12 C         -10.1383  -18.2649   24.5313 C.ar    1  UNL1       -0.0030
     13 C         -11.5854  -18.6213   24.3618 C.ar    1  UNL1        0.0119
     14 C         -12.4241  -17.8929   23.3538 C.ar    1  UNL1        0.0682
     15 CL        -13.8713  -18.2492   23.1842 Cl      1  UNL1       -0.0814
     16 C         -11.8156  -16.8082   22.5152 C.ar    1  UNL1        0.0679
     17 CL        -12.6543  -16.0798   21.5072 Cl      1  UNL1       -0.0814
     18 C         -10.3684  -16.4519   22.6848 C.ar    1  UNL1        0.0083
     19 C          -7.2481  -19.2996   21.3200 C.3     1  UNL1        0.0859
     20 N          -7.5577  -17.8474   21.5327 N.3     1  UNL1       -0.2968
     21 H          -8.5731  -17.7554   21.5032 H       1  UNL1        0.1233
@<TRIPOS>BOND
     1    19    20    1
     2     1    20    1
     3     1     2    1
     4     2     3    1
     5     3     4    1
     6     4     5   ar
     7     5     6   ar
     8     6     7   ar
     9     7     8   ar
    10     8     9   ar
    11     9    10    1
    12    10    11    1
    13    11    12   ar
    14    12    13   ar
    15    13    14   ar
    16    14    15    1
    17    14    16   ar
    18    16    17    1
    19    16    18   ar
    20    10     1    1
    21    18    11   ar
    22     9     4   ar
    23    20    21    1
@<TRIPOS>MOLECULE
*****
 21 23 0 0 0
SMALL
GASTEIGER

@<TRIPOS>ATOM
      1 C          -7.6695  -18.5763   21.7869 C.3     1  UNL1        0.0625
      2 C          -8.1846  -19.2815   20.5673 C.3     1  UNL1        0.0210
      3 C          -9.5696  -18.9983   20.0660 C.3     1  UNL1        0.0274
      4 C         -10.4398  -18.0098   20.7843 C.ar    1  UNL1       -0.0257
      5 C         -11.8248  -17.7266   20.2831 C.ar    1  UNL1       -0.0046
      6 C         -12.6949  -16.7382   21.0014 C.ar    1  UNL1       -0.0003
      7 C         -12.1798  -16.0330   22.2210 C.ar    1  UNL1       -0.0003
      8 C         -10.7948  -16.3162   22.7223 C.ar    1  UNL1       -0.0042
      9 C          -9.9247  -17.3046   22.0040 C.ar    1  UNL1       -0.0211
     10 C          -8.5396  -17.5879   22.5052 C.3     1  UNL1        0.0586
     11 C          -8.0246  -16.8827   23.7248 C.ar    1  UNL1       -0.0162
     12 C          -6.8954  -15.9027   23.6038 C.ar    1  UNL1       -0.0030
     13 C          -6.3803  -15.1975   24.8234 C.ar    1  UNL1        0.0119
     14 C          -6.9945  -15.4723   26.1641 C.ar    1  UNL1        0.0682
     15 CL         -6.4795  -14.7671   27.3837 Cl      1  UNL1       -0.0814
     16 C          -8.1236  -16.4523   26.2851 C.ar    1  UNL1        0.0679
     17 CL         -8.7378  -16.7271   27.6258 Cl      1  UNL1       -0.0814
     18 C          -8.6387  -17.1575   25.0655 C.ar    1  UNL1        0.0083
     19 C          -5.1997  -19.2353   21.3228 C.3     1  UNL1        0.0859
     20 N          -6.2844  -18.8596   22.2882 N.3     1  UNL1       -0.2968
     21 H          -5.9691  -18.0193   22.7729 H       1  UNL1        0.1233
@<TRIPOS>BOND
     1    19    20    1
     2     1    20    1
     3     1     2    1
     4     2     3    1
     5     3     4    1
     6     4     5   ar
     7     5     6   ar
     8     6     7   ar
     9     7     8   ar
    10     8     9   ar
    11     9    10    1
    12    10    11    1
    13    11    12   ar
    14    12    13   ar
    15    13    14   ar
    16    14    15    1
    17    14    16   ar
    18    16    17    1
    19    16    18   ar
    20    10     1    1
    21    18    11   ar
    22     9     4   ar
    23    20    21    1
@<TRIPOS>MOLECULE
*****
 21 23 0 0 0
SMALL
GASTEIGER

@<TRIPOS>ATOM
      1 C          -7.6642  -18.6024   21.8102 C.3     1  UNL1        0.0625
      2 C          -8.1048  -19.2541   20.5330 C.3     1  UNL1        0.0210
      3 C          -9.4540  -18.9405   19.9576 C.3     1  UNL1        0.0274
      4 C         -10.3627  -17.9751   20.6594 C.ar    1  UNL1       -0.0257
      5 C         -11.7120  -17.6615   20.0840 C.ar    1  UNL1       -0.0046
      6 C         -12.6206  -16.6962   20.7858 C.ar    1  UNL1       -0.0003
      7 C         -12.1800  -16.0445   22.0630 C.ar    1  UNL1       -0.0003
      8 C         -10.8307  -16.3582   22.6384 C.ar    1  UNL1       -0.0042
      9 C          -9.9221  -17.3235   21.9366 C.ar    1  UNL1       -0.0211
     10 C          -8.5728  -17.6372   22.5120 C.3     1  UNL1        0.0586
     11 C          -8.1322  -16.9855   23.7892 C.ar    1  UNL1       -0.0162
     12 C          -8.9686  -17.1198   25.0271 C.ar    1  UNL1       -0.0030
     13 C          -8.5280  -16.4681   26.3043 C.ar    1  UNL1        0.0119
     14 C          -7.2509  -15.6822   26.3435 C.ar    1  UNL1        0.0682
     15 CL         -6.8103  -15.0305   27.6207 Cl      1  UNL1       -0.0814
     16 C          -6.4145  -15.5480   25.1057 C.ar    1  UNL1        0.0679
     17 CL         -5.1374  -14.7621   25.1449 Cl      1  UNL1       -0.0814
     18 C          -6.8551  -16.1996   23.8285 C.ar    1  UNL1        0.0083
     19 C          -5.1589  -19.2030   21.4737 C.3     1  UNL1        0.0859
     20 N          -6.3148  -18.9161   22.3856 N.3     1  UNL1       -0.2968
     21 H          -6.0461  -18.1165   22.9590 H       1  UNL1        0.1233
@<TRIPOS>BOND
     1    19    20    1
     2     1    20    1
     3     1     2    1
     4     2     3    1
     5     3     4    1
     6     4     5   ar
     7     5     6   ar
     8     6     7   ar
     9     7     8   ar
    10     8     9   ar
    11     9    10    1
    12    10    11    1
    13    11    12   ar
    14    12    13   ar
    15    13    14   ar
    16    14    15    1
    17    14    16   ar
    18    16    17    1
    19    16    18   ar
    20    10     1    1
    21    18    11   ar
    22     9     4   ar
    23    20    21    1
@<TRIPOS>MOLECULE
*****
 21 23 0 0 0
SMALL
GASTEIGER

@<TRIPOS>ATOM
      1 C          -7.1824  -19.0249   21.6898 C.3     1  UNL1        0.0625
      2 C          -5.6937  -19.0614   21.5103 C.3     1  UNL1        0.0210
      3 C          -4.8211  -18.1220   22.2889 C.3     1  UNL1        0.0274
      4 C          -5.4373  -17.1461   23.2470 C.ar    1  UNL1       -0.0257
      5 C          -4.5647  -16.2068   24.0256 C.ar    1  UNL1       -0.0046
      6 C          -5.1809  -15.2309   24.9836 C.ar    1  UNL1       -0.0003
      7 C          -6.6696  -15.1944   25.1631 C.ar    1  UNL1       -0.0003
      8 C          -7.5422  -16.1337   24.3846 C.ar    1  UNL1       -0.0042
      9 C          -6.9260  -17.1096   23.4265 C.ar    1  UNL1       -0.0211
     10 C          -7.7986  -18.0490   22.6479 C.3     1  UNL1        0.0586
     11 C          -9.2874  -18.0124   22.8274 C.ar    1  UNL1       -0.0162
     12 C          -9.9362  -18.8554   23.8851 C.ar    1  UNL1       -0.0030
     13 C         -11.4250  -18.8188   24.0646 C.ar    1  UNL1        0.0119
     14 C         -12.2649  -17.9394   23.1864 C.ar    1  UNL1        0.0682
     15 CL        -13.7537  -17.9028   23.3659 Cl      1  UNL1       -0.0814
     16 C         -11.6161  -17.0965   22.1288 C.ar    1  UNL1        0.0679
     17 CL        -12.4561  -16.2171   21.2506 Cl      1  UNL1       -0.0814
     18 C         -10.1273  -17.1331   21.9493 C.ar    1  UNL1        0.0083
     19 C          -8.4338  -19.6379   19.4970 C.3     1  UNL1        0.0859
     20 N          -8.0550  -19.9643   20.9112 N.3     1  UNL1       -0.2968
     21 H          -7.5725  -20.8626   20.8870 H       1  UNL1        0.1233
@<TRIPOS>BOND
     1    19    20    1
     2     1    20    1
     3     1     2    1
     4     2     3    1
     5     3     4    1
     6     4     5   ar
     7     5     6   ar
     8     6     7   ar
     9     7     8   ar
    10     8     9   ar
    11     9    10    1
    12    10    11    1
    13    11    12   ar
    14    12    13   ar
    15    13    14   ar
    16    14    15    1
    17    14    16   ar
    18    16    17    1
    19    16    18   ar
    20    10     1    1
    21    18    11   ar
    22     9     4   ar
    23    20    21    1
@<TRIPOS>MOLECULE
*****
 21 23 0 0 0
SMALL
GASTEIGER

@<TRIPOS>ATOM
      1 C          -7.2675  -16.2768   23.4763 C.3     1  UNL1        0.0625
      2 C          -8.2586  -15.5811   24.3616 C.3     1  UNL1        0.0210
      3 C          -9.5624  -16.2441   24.6937 C.3     1  UNL1        0.0274
      4 C          -9.8753  -17.6028   24.1404 C.ar    1  UNL1       -0.0257
      5 C         -11.1792  -18.2658   24.4724 C.ar    1  UNL1       -0.0046
      6 C         -11.4921  -19.6244   23.9191 C.ar    1  UNL1       -0.0003
      7 C         -10.5010  -20.3201   23.0338 C.ar    1  UNL1       -0.0003
      8 C          -9.1971  -19.6571   22.7017 C.ar    1  UNL1       -0.0042
      9 C          -8.8843  -18.2985   23.2550 C.ar    1  UNL1       -0.0211
     10 C          -7.5803  -17.6354   22.9230 C.3     1  UNL1        0.0586
     11 C          -6.5893  -18.3311   22.0376 C.ar    1  UNL1       -0.0162
     12 C          -6.9730  -18.7153   20.6393 C.ar    1  UNL1       -0.0030
     13 C          -5.9820  -19.4110   19.7539 C.ar    1  UNL1        0.0119
     14 C          -4.6072  -19.7225   20.2669 C.ar    1  UNL1        0.0682
     15 CL         -3.6161  -20.4182   19.3816 Cl      1  UNL1       -0.0814
     16 C          -4.2235  -19.3383   21.6652 C.ar    1  UNL1        0.0679
     17 CL         -2.8488  -19.6498   22.1782 Cl      1  UNL1       -0.0814
     18 C          -5.2146  -18.6426   22.5505 C.ar    1  UNL1        0.0083
     19 C          -4.9418  -15.3881   24.2190 C.3     1  UNL1        0.0859
     20 N          -5.9636  -15.6138   23.1442 N.3     1  UNL1       -0.2968
     21 H          -5.5162  -16.1860   22.4282 H       1  UNL1        0.1233
@<TRIPOS>BOND
     1    19    20    1
     2     1    20    1
     3     1     2    1
     4     2     3    1
     5     3     4    1
     6     4     5   ar
     7     5     6   ar
     8     6     7   ar
     9     7     8   ar
    10     8     9   ar
    11     9    10    1
    12    10    11    1
    13    11    12   ar
    14    12    13   ar
    15    13    14   ar
    16    14    15    1
    17    14    16   ar
    18    16    17    1
    19    16    18   ar
    20    10     1    1
    21    18    11   ar
    22     9     4   ar
    23    20    21    1
@<TRIPOS>MOLECULE
*****
 21 23 0 0 0
SMALL
GASTEIGER

@<TRIPOS>ATOM
      1 C          -9.3518  -15.6590   21.6718 C.3     1  UNL1        0.0625
      2 C         -10.8129  -15.4201   21.4311 C.3     1  UNL1        0.0210
      3 C         -11.8358  -16.2785   22.1142 C.3     1  UNL1        0.0274
      4 C         -11.3976  -17.3760   23.0382 C.ar    1  UNL1       -0.0257
      5 C         -12.4205  -18.2344   23.7213 C.ar    1  UNL1       -0.0046
      6 C         -11.9822  -19.3318   24.6452 C.ar    1  UNL1       -0.0003
      7 C         -10.5210  -19.5707   24.8860 C.ar    1  UNL1       -0.0003
      8 C          -9.4982  -18.7122   24.2029 C.ar    1  UNL1       -0.0042
      9 C          -9.9364  -17.6149   23.2790 C.ar    1  UNL1       -0.0211
     10 C          -8.9135  -16.7564   22.5958 C.3     1  UNL1        0.0586
     11 C          -7.4524  -16.9953   22.8365 C.ar    1  UNL1       -0.0162
     12 C          -6.6695  -16.0486   23.6974 C.ar    1  UNL1       -0.0030
     13 C          -5.2084  -16.2875   23.9382 C.ar    1  UNL1        0.0119
     14 C          -4.5301  -17.4731   23.3181 C.ar    1  UNL1        0.0682
     15 CL         -3.0689  -17.7120   23.5589 Cl      1  UNL1       -0.0814
     16 C          -5.3129  -18.4196   22.4573 C.ar    1  UNL1        0.0679
     17 CL         -4.6347  -19.6052   21.8372 Cl      1  UNL1       -0.0814
     18 C          -6.7741  -18.1807   22.2165 C.ar    1  UNL1        0.0083
     19 C          -8.7654  -13.7345   20.0279 C.3     1  UNL1        0.0859
     20 N          -8.3289  -14.8005   20.9886 N.3     1  UNL1       -0.2968
     21 H          -7.7972  -14.3344   21.7238 H       1  UNL1        0.1233
@<TRIPOS>BOND
     1    19    20    1
     2     1    20    1
     3     1     2    1
     4     2     3    1
     5     3     4    1
     6     4     5   ar
     7     5     6   ar
     8     6     7   ar
     9     7     8   ar
    10     8     9   ar
    11     9    10    1
    12    10    11    1
    13    11    12   ar
    14    12    13   ar
    15    13    14   ar
    16    14    15    1
    17    14    16   ar
    18    16    17    1
    19    16    18   ar
    20    10     1    1
    21    18    11   ar
    22     9     4   ar
    23    20    21    1
@<TRIPOS>MOLECULE
*****
 21 23 0 0 0
SMALL
GASTEIGER

@<TRIPOS>ATOM
      1 C          -9.6235  -15.7717   21.1539 C.3     1  UNL1        0.0625
      2 C         -10.5780  -16.2120   20.0837 C.3     1  UNL1        0.0210
      3 C         -11.1942  -17.5782   20.1441 C.3     1  UNL1        0.0274
      4 C         -10.8559  -18.5043   21.2747 C.ar    1  UNL1       -0.0257
      5 C         -11.4720  -19.8705   21.3350 C.ar    1  UNL1       -0.0046
      6 C         -11.1337  -20.7965   22.4655 C.ar    1  UNL1       -0.0003
      7 C         -10.1792  -20.3563   23.5356 C.ar    1  UNL1       -0.0003
      8 C          -9.5631  -18.9900   23.4752 C.ar    1  UNL1       -0.0042
      9 C          -9.9014  -18.0640   22.3448 C.ar    1  UNL1       -0.0211
     10 C          -9.2852  -16.6977   22.2843 C.3     1  UNL1        0.0586
     11 C          -8.3307  -16.2575   23.3544 C.ar    1  UNL1       -0.0162
     12 C          -6.8644  -16.1546   23.0555 C.ar    1  UNL1       -0.0030
     13 C          -5.9099  -15.7143   24.1256 C.ar    1  UNL1        0.0119
     14 C          -6.4217  -15.3770   25.4947 C.ar    1  UNL1        0.0682
     15 CL         -5.4673  -14.9367   26.5648 Cl      1  UNL1       -0.0814
     16 C          -7.8880  -15.4798   25.7935 C.ar    1  UNL1        0.0679
     17 CL         -8.3999  -15.1424   27.1626 Cl      1  UNL1       -0.0814
     18 C          -8.8425  -15.9201   24.7234 C.ar    1  UNL1        0.0083
     19 C          -8.9697  -13.6565   19.7944 C.3     1  UNL1        0.0859
     20 N          -9.0074  -14.4054   21.0934 N.3     1  UNL1       -0.2968
     21 H          -9.5195  -13.8219   21.7550 H       1  UNL1        0.1233
@<TRIPOS>BOND
     1    19    20    1
     2     1    20    1
     3     1     2    1
     4     2     3    1
     5     3     4    1
     6     4     5   ar
     7     5     6   ar
     8     6     7   ar
     9     7     8   ar
    10     8     9   ar
    11     9    10    1
    12    10    11    1
    13    11    12   ar
    14    12    13   ar
    15    13    14   ar
    16    14    15    1
    17    14    16   ar
    18    16    17    1
    19    16    18   ar
    20    10     1    1
    21    18    11   ar
    22     9     4   ar
    23    20    21    1
