@<TRIPOS>MOLECULE
*****
 17 18 0 0 0
SMALL
GASTEIGER

@<TRIPOS>ATOM
      1 C         -10.2508  -19.2840   21.1477 C.ar    1  UNL1        0.1386
      2 C          -9.5211  -19.4155   22.4516 C.ar    1  UNL1        0.0369
      3 C          -8.0298  -19.5767   22.4635 C.ar    1  UNL1        0.0031
      4 C          -7.2683  -19.6066   21.1716 C.ar    1  UNL1        0.0003
      5 C          -7.9981  -19.4752   19.8677 C.ar    1  UNL1        0.0031
      6 C          -9.4893  -19.3139   19.8558 C.ar    1  UNL1        0.0369
      7 C          -5.7770  -19.7679   21.1835 C.ar    1  UNL1        0.0031
      8 C          -5.0962  -20.5296   20.0852 C.ar    1  UNL1        0.0207
      9 C          -3.6050  -20.6909   20.0972 C.ar    1  UNL1        0.0989
     10 N          -2.7945  -20.0904   21.2074 N.ar    1  UNL1       -0.2423
     11 C          -3.4753  -19.3287   22.3056 C.ar    1  UNL1        0.0989
     12 C          -4.9666  -19.1674   22.2937 C.ar    1  UNL1        0.0207
     13 O         -11.7421  -19.1228   21.1358 O.3     1  UNL1       -0.4755
     14 C         -12.3499  -17.7576   21.2653 C.3     1  UNL1        0.2054
     15 C         -12.6754  -17.2071   22.6221 C.3     1  UNL1        0.0473
     16 C         -14.1703  -18.2139   24.4935 C.3     1  UNL1        0.0001
     17 C         -12.8495  -18.1366   23.7866 C.3     1  UNL1        0.0038
@<TRIPOS>BOND
     1    16    17    1
     2    17    15    1
     3    15    14    1
     4    14    13    1
     5    13     1    1
     6     1     2   ar
     7     2     3   ar
     8     3     4   ar
     9     4     7    1
    10     7     8   ar
    11     8     9   ar
    12     9    10   ar
    13    10    11   ar
    14    11    12   ar
    15     4     5   ar
    16     5     6   ar
    17     6     1   ar
    18    12     7   ar
@<TRIPOS>MOLECULE
*****
 17 18 0 0 0
SMALL
GASTEIGER

@<TRIPOS>ATOM
      1 C          -9.8210  -18.2257   23.2458 C.ar    1  UNL1        0.1386
      2 C          -9.4698  -19.6784   23.1177 C.ar    1  UNL1        0.0369
      3 C          -8.1108  -20.0810   22.6268 C.ar    1  UNL1        0.0031
      4 C          -7.1030  -19.0310   22.2639 C.ar    1  UNL1        0.0003
      5 C          -7.4542  -17.5784   22.3921 C.ar    1  UNL1        0.0031
      6 C          -8.8131  -17.1757   22.8830 C.ar    1  UNL1        0.0369
      7 C          -5.7440  -19.4336   21.7730 C.ar    1  UNL1        0.0031
      8 C          -4.5192  -19.0231   22.5353 C.ar    1  UNL1        0.0207
      9 C          -3.1602  -19.4258   22.0444 C.ar    1  UNL1        0.0989
     10 N          -3.0260  -20.2389   20.7911 N.ar    1  UNL1       -0.2423
     11 C          -4.2509  -20.6494   20.0288 C.ar    1  UNL1        0.0989
     12 C          -5.6099  -20.2468   20.5197 C.ar    1  UNL1        0.0207
     13 O         -11.1800  -17.8231   23.7368 O.3     1  UNL1       -0.4755
     14 C         -12.1986  -17.2913   22.7726 C.3     1  UNL1        0.2054
     15 C         -12.4061  -17.9697   21.4509 C.3     1  UNL1        0.0473
     16 C         -10.6137  -18.6277   19.6890 C.3     1  UNL1        0.0001
     17 C         -11.5428  -17.6083   20.2787 C.3     1  UNL1        0.0038
@<TRIPOS>BOND
     1    16    17    1
     2    17    15    1
     3    15    14    1
     4    14    13    1
     5    13     1    1
     6     1     2   ar
     7     2     3   ar
     8     3     4   ar
     9     4     7    1
    10     7     8   ar
    11     8     9   ar
    12     9    10   ar
    13    10    11   ar
    14    11    12   ar
    15     4     5   ar
    16     5     6   ar
    17     6     1   ar
    18    12     7   ar
@<TRIPOS>MOLECULE
*****
 17 18 0 0 0
SMALL
GASTEIGER

@<TRIPOS>ATOM
      1 C          -3.5180  -19.7216   21.1769 C.ar    1  UNL1        0.1386
      2 C          -4.2127  -18.9336   22.2476 C.ar    1  UNL1        0.0369
      3 C          -5.7114  -18.8937   22.2966 C.ar    1  UNL1        0.0031
      4 C          -6.5153  -19.6418   21.2748 C.ar    1  UNL1        0.0003
      5 C          -5.8207  -20.4298   20.2041 C.ar    1  UNL1        0.0031
      6 C          -4.3220  -20.4697   20.1551 C.ar    1  UNL1        0.0369
      7 C          -8.0140  -19.6019   21.3238 C.ar    1  UNL1        0.0031
      8 C          -8.7254  -19.7398   22.6372 C.ar    1  UNL1        0.0207
      9 C         -10.2241  -19.6999   22.6861 C.ar    1  UNL1        0.0989
     10 N         -11.0114  -19.5221   21.4218 N.ar    1  UNL1       -0.2423
     11 C         -10.2999  -19.3843   20.1085 C.ar    1  UNL1        0.0989
     12 C          -8.8013  -19.4242   20.0595 C.ar    1  UNL1        0.0207
     13 O          -2.0193  -19.7615   21.1279 O.3     1  UNL1       -0.4755
     14 C          -1.2829  -18.9959   20.0688 C.3     1  UNL1        0.2054
     15 C          -1.6296  -17.5610   19.8028 C.3     1  UNL1        0.0473
     16 C          -2.1998  -16.1024   21.8758 C.3     1  UNL1        0.0001
     17 C          -1.2435  -16.5005   20.7910 C.3     1  UNL1        0.0038
@<TRIPOS>BOND
     1    16    17    1
     2    17    15    1
     3    15    14    1
     4    14    13    1
     5    13     1    1
     6     1     2   ar
     7     2     3   ar
     8     3     4   ar
     9     4     7    1
    10     7     8   ar
    11     8     9   ar
    12     9    10   ar
    13    10    11   ar
    14    11    12   ar
    15     4     5   ar
    16     5     6   ar
    17     6     1   ar
    18    12     7   ar
@<TRIPOS>MOLECULE
*****
 17 18 0 0 0
SMALL
GASTEIGER

@<TRIPOS>ATOM
      1 C          -9.3644  -19.4145   20.9259 C.ar    1  UNL1        0.1386
      2 C          -8.5841  -19.2731   22.1991 C.ar    1  UNL1        0.0369
      3 C          -7.0857  -19.2175   22.1582 C.ar    1  UNL1        0.0031
      4 C          -6.3676  -19.3034   20.8441 C.ar    1  UNL1        0.0003
      5 C          -7.1479  -19.4448   19.5709 C.ar    1  UNL1        0.0031
      6 C          -8.6463  -19.5003   19.6118 C.ar    1  UNL1        0.0369
      7 C          -4.8692  -19.2478   20.8032 C.ar    1  UNL1        0.0031
      8 C          -4.1653  -18.9291   19.5176 C.ar    1  UNL1        0.0207
      9 C          -2.6669  -18.8736   19.4767 C.ar    1  UNL1        0.0989
     10 N          -1.8724  -19.1367   20.7215 N.ar    1  UNL1       -0.2423
     11 C          -2.5763  -19.4554   22.0071 C.ar    1  UNL1        0.0989
     12 C          -4.0747  -19.5110   22.0480 C.ar    1  UNL1        0.0207
     13 O         -10.8628  -19.4700   20.9667 O.3     1  UNL1       -0.4755
     14 C         -11.6154  -18.6696   21.9879 C.3     1  UNL1        0.2054
     15 C         -12.6601  -17.6866   21.5492 C.3     1  UNL1        0.0473
     16 C         -11.5205  -16.1960   19.7521 C.3     1  UNL1        0.0001
     17 C         -12.2529  -16.3304   21.0542 C.3     1  UNL1        0.0038
@<TRIPOS>BOND
     1    16    17    1
     2    17    15    1
     3    15    14    1
     4    14    13    1
     5    13     1    1
     6     1     2   ar
     7     2     3   ar
     8     3     4   ar
     9     4     7    1
    10     7     8   ar
    11     8     9   ar
    12     9    10   ar
    13    10    11   ar
    14    11    12   ar
    15     4     5   ar
    16     5     6   ar
    17     6     1   ar
    18    12     7   ar
@<TRIPOS>MOLECULE
*****
 17 18 0 0 0
SMALL
GASTEIGER

@<TRIPOS>ATOM
      1 C         -10.0299  -17.6960   21.3798 C.ar    1  UNL1        0.1386
      2 C          -8.9717  -16.9961   22.1800 C.ar    1  UNL1        0.0369
      3 C          -7.5546  -17.4862   22.1404 C.ar    1  UNL1        0.0031
      4 C          -7.1957  -18.6762   21.3008 C.ar    1  UNL1        0.0003
      5 C          -8.2539  -19.3761   20.5006 C.ar    1  UNL1        0.0031
      6 C          -9.6711  -18.8860   20.5401 C.ar    1  UNL1        0.0369
      7 C          -5.7786  -19.1663   21.2612 C.ar    1  UNL1        0.0031
      8 C          -5.3285  -20.0709   20.1526 C.ar    1  UNL1        0.0207
      9 C          -3.9114  -20.5610   20.1131 C.ar    1  UNL1        0.0989
     10 N          -2.9443  -20.1465   21.1822 N.ar    1  UNL1       -0.2423
     11 C          -3.3944  -19.2419   22.2908 C.ar    1  UNL1        0.0989
     12 C          -4.8115  -18.7518   22.3303 C.ar    1  UNL1        0.0207
     13 O         -11.4471  -17.2059   21.4193 O.3     1  UNL1       -0.4755
     14 C         -12.4561  -17.8980   22.2869 C.3     1  UNL1        0.2054
     15 C         -12.1693  -18.1164   23.7430 C.3     1  UNL1        0.0473
     16 C         -10.0578  -18.9865   24.9819 C.3     1  UNL1        0.0001
     17 C         -11.2916  -19.2547   24.1720 C.3     1  UNL1        0.0038
@<TRIPOS>BOND
     1    16    17    1
     2    17    15    1
     3    15    14    1
     4    14    13    1
     5    13     1    1
     6     1     2   ar
     7     2     3   ar
     8     3     4   ar
     9     4     7    1
    10     7     8   ar
    11     8     9   ar
    12     9    10   ar
    13    10    11   ar
    14    11    12   ar
    15     4     5   ar
    16     5     6   ar
    17     6     1   ar
    18    12     7   ar
@<TRIPOS>MOLECULE
*****
 17 18 0 0 0
SMALL
GASTEIGER

@<TRIPOS>ATOM
      1 C          -6.4709  -20.2249   20.6173 C.ar    1  UNL1        0.1386
      2 C          -6.7585  -20.1401   22.0870 C.ar    1  UNL1        0.0369
      3 C          -8.0973  -19.6594   22.5628 C.ar    1  UNL1        0.0031
      4 C          -9.1486  -19.2635   21.5689 C.ar    1  UNL1        0.0003
      5 C          -8.8611  -19.3483   20.0992 C.ar    1  UNL1        0.0031
      6 C          -7.5222  -19.8290   19.6234 C.ar    1  UNL1        0.0369
      7 C         -10.4875  -18.7828   22.0447 C.ar    1  UNL1        0.0031
      8 C         -11.4618  -18.1912   21.0697 C.ar    1  UNL1        0.0207
      9 C         -12.8007  -17.7105   21.5455 C.ar    1  UNL1        0.0989
     10 N         -13.1653  -17.8215   22.9962 N.ar    1  UNL1       -0.2423
     11 C         -12.1909  -18.4132   23.9712 C.ar    1  UNL1        0.0989
     12 C         -10.8521  -18.8939   23.4954 C.ar    1  UNL1        0.0207
     13 O          -5.1320  -20.7056   20.1415 O.3     1  UNL1       -0.4755
     14 C          -3.9008  -19.8970   20.4247 C.3     1  UNL1        0.2054
     15 C          -3.2632  -19.0933   19.3304 C.3     1  UNL1        0.0473
     16 C          -0.8708  -18.1940   19.7974 C.3     1  UNL1        0.0001
     17 C          -2.3465  -17.9560   19.6718 C.3     1  UNL1        0.0038
@<TRIPOS>BOND
     1    16    17    1
     2    17    15    1
     3    15    14    1
     4    14    13    1
     5    13     1    1
     6     1     2   ar
     7     2     3   ar
     8     3     4   ar
     9     4     7    1
    10     7     8   ar
    11     8     9   ar
    12     9    10   ar
    13    10    11   ar
    14    11    12   ar
    15     4     5   ar
    16     5     6   ar
    17     6     1   ar
    18    12     7   ar
@<TRIPOS>MOLECULE
*****
 17 18 0 0 0
SMALL
GASTEIGER

@<TRIPOS>ATOM
      1 C          -4.8182  -19.6854   20.6536 C.ar    1  UNL1        0.1386
      2 C          -4.8256  -18.8171   21.8766 C.ar    1  UNL1        0.0369
      3 C          -6.1064  -18.5800   22.6204 C.ar    1  UNL1        0.0031
      4 C          -7.3799  -19.2114   22.1411 C.ar    1  UNL1        0.0003
      5 C          -7.3725  -20.0797   20.9181 C.ar    1  UNL1        0.0031
      6 C          -6.0916  -20.3168   20.1743 C.ar    1  UNL1        0.0369
      7 C          -8.6608  -18.9743   22.8849 C.ar    1  UNL1        0.0031
      8 C          -9.2847  -20.0849   23.6769 C.ar    1  UNL1        0.0207
      9 C         -10.5655  -19.8479   24.4207 C.ar    1  UNL1        0.0989
     10 N         -11.2225  -18.5003   24.3724 N.ar    1  UNL1       -0.2423
     11 C         -10.5986  -17.3897   23.5804 C.ar    1  UNL1        0.0989
     12 C          -9.3177  -17.6268   22.8366 C.ar    1  UNL1        0.0207
     13 O          -3.5373  -19.9225   19.9098 O.3     1  UNL1       -0.4755
     14 C          -3.0238  -18.8886   18.9521 C.3     1  UNL1        0.2054
     15 C          -2.0419  -17.8554   19.4192 C.3     1  UNL1        0.0473
     16 C           0.4265  -17.3534   20.0561 C.3     1  UNL1        0.0001
     17 C          -0.7528  -18.2804   20.0578 C.3     1  UNL1        0.0038
@<TRIPOS>BOND
     1    16    17    1
     2    17    15    1
     3    15    14    1
     4    14    13    1
     5    13     1    1
     6     1     2   ar
     7     2     3   ar
     8     3     4   ar
     9     4     7    1
    10     7     8   ar
    11     8     9   ar
    12     9    10   ar
    13    10    11   ar
    14    11    12   ar
    15     4     5   ar
    16     5     6   ar
    17     6     1   ar
    18    12     7   ar
@<TRIPOS>MOLECULE
*****
 17 18 0 0 0
SMALL
GASTEIGER

@<TRIPOS>ATOM
      1 C         -12.8625   -4.3169   18.1653 C.ar    1  UNL1        0.1386
      2 C         -13.2101   -5.1597   16.9742 C.ar    1  UNL1        0.0369
      3 C         -13.9952   -6.4251   17.1542 C.ar    1  UNL1        0.0031
      4 C         -14.4328   -6.8476   18.5253 C.ar    1  UNL1        0.0003
      5 C         -14.0852   -6.0048   19.7164 C.ar    1  UNL1        0.0031
      6 C         -13.3001   -4.7394   19.5364 C.ar    1  UNL1        0.0369
      7 C         -15.2179   -8.1130   18.7053 C.ar    1  UNL1        0.0031
      8 C         -16.3533   -8.1583   19.6844 C.ar    1  UNL1        0.0207
      9 C         -17.1385   -9.4237   19.8644 C.ar    1  UNL1        0.0989
     10 N         -16.7882  -10.6438   19.0653 N.ar    1  UNL1       -0.2423
     11 C         -15.6527  -10.5985   18.0862 C.ar    1  UNL1        0.0989
     12 C         -14.8676   -9.3331   17.9062 C.ar    1  UNL1        0.0207
     13 O         -12.0774   -3.0515   17.9854 O.3     1  UNL1       -0.4755
     14 C         -10.6173   -3.0197   18.3274 C.3     1  UNL1        0.2054
     15 C          -9.7595   -4.2222   18.0663 C.3     1  UNL1        0.0473
     16 C         -10.0188   -6.6802   18.8669 C.3     1  UNL1        0.0001
     17 C          -9.5893   -5.2671   19.1290 C.3     1  UNL1        0.0038
@<TRIPOS>BOND
     1    16    17    1
     2    17    15    1
     3    15    14    1
     4    14    13    1
     5    13     1    1
     6     1     2   ar
     7     2     3   ar
     8     3     4   ar
     9     4     7    1
    10     7     8   ar
    11     8     9   ar
    12     9    10   ar
    13    10    11   ar
    14    11    12   ar
    15     4     5   ar
    16     5     6   ar
    17     6     1   ar
    18    12     7   ar
@<TRIPOS>MOLECULE
*****
 17 18 0 0 0
SMALL
GASTEIGER

@<TRIPOS>ATOM
      1 C         -12.4830   -5.1574   19.2581 C.ar    1  UNL1        0.1386
      2 C         -13.7416   -4.4743   19.7045 C.ar    1  UNL1        0.0369
      3 C         -15.0250   -5.2463   19.7879 C.ar    1  UNL1        0.0031
      4 C         -15.0498   -6.7014   19.4249 C.ar    1  UNL1        0.0003
      5 C         -13.7912   -7.3846   18.9784 C.ar    1  UNL1        0.0031
      6 C         -12.5079   -6.6126   18.8951 C.ar    1  UNL1        0.0369
      7 C         -16.3331   -7.4735   19.5082 C.ar    1  UNL1        0.0031
      8 C         -17.6415   -6.7458   19.6013 C.ar    1  UNL1        0.0207
      9 C         -18.9248   -7.5178   19.6847 C.ar    1  UNL1        0.0989
     10 N         -18.8999   -9.0175   19.6750 N.ar    1  UNL1       -0.2423
     11 C         -17.5916   -9.7452   19.5819 C.ar    1  UNL1        0.0989
     12 C         -16.3082   -8.9732   19.4985 C.ar    1  UNL1        0.0207
     13 O         -11.1997   -4.3854   19.1747 O.3     1  UNL1       -0.4755
     14 C          -9.8906   -5.1131   19.0932 C.3     1  UNL1        0.2054
     15 C          -9.3719   -5.5771   17.7644 C.3     1  UNL1        0.0473
     16 C          -8.9936   -3.5541   16.1787 C.3     1  UNL1        0.0001
     17 C          -9.7220   -4.8210   16.5170 C.3     1  UNL1        0.0038
@<TRIPOS>BOND
     1    16    17    1
     2    17    15    1
     3    15    14    1
     4    14    13    1
     5    13     1    1
     6     1     2   ar
     7     2     3   ar
     8     3     4   ar
     9     4     7    1
    10     7     8   ar
    11     8     9   ar
    12     9    10   ar
    13    10    11   ar
    14    11    12   ar
    15     4     5   ar
    16     5     6   ar
    17     6     1   ar
    18    12     7   ar
