@<TRIPOS>MOLECULE
*****
 20 21 0 0 0
SMALL
GASTEIGER

@<TRIPOS>ATOM
      1 C          -7.7245  -15.9251   24.4680 C.2     1  UNL1        0.1535
      2 N          -8.9920  -16.7097   24.6351 N.2     1  UNL1       -0.2470
      3 C          -9.7676  -16.6157   23.3547 C.3     1  UNL1        0.1723
      4 C         -11.0897  -17.1885   22.9377 C.3     1  UNL1        0.1701
      5 C         -11.6237  -16.9187   21.5621 C.3     1  UNL1        0.1691
      6 O         -12.9458  -17.4915   21.1452 O.3     1  UNL1       -0.3794
      7 C         -10.8356  -16.0760   20.6036 C.3     1  UNL1        0.1746
      8 O          -9.5134  -15.5032   21.0206 O.3     1  UNL1       -0.3402
      9 C          -8.9795  -15.7730   22.3961 C.3     1  UNL1        0.1938
     10 S          -7.7168  -15.3463   23.0842 S.3     1  UNL1       -0.0497
     11 H         -13.3203  -18.0065   21.8769 H       1  UNL1        0.2105
     12 C         -11.3696  -15.8062   19.2281 C.3     1  UNL1        0.1693
     13 O         -12.8002  -15.3936   19.0465 O.3     1  UNL1       -0.3794
     14 H         -13.3829  -16.1242   19.3064 H       1  UNL1        0.2105
     15 N          -6.6529  -15.7502   25.5029 N.pl3   1  UNL1       -0.3135
     16 H          -5.7240  -15.5784   25.2255 H       1  UNL1        0.1487
     17 C          -8.2251  -15.1536   27.4833 C.3     1  UNL1        0.0230
     18 C          -6.9965  -15.8370   26.9604 C.3     1  UNL1        0.0887
     19 O         -11.8779  -18.0311   23.8962 O.3     1  UNL1       -0.3489
     20 C         -11.3582  -19.3739   24.3168 C.3     1  UNL1        0.1742
@<TRIPOS>BOND
     1    17    18    1
     2    18    15    1
     3    15     1    1
     4     1     2    2
     5     3     2    1
     6     3     4    1
     7     4    19    1
     8    19    20    1
     9     4     5    1
    10     5     6    1
    11     5     7    1
    12     7    12    1
    13    12    13    1
    14     7     8    1
    15     9     8    1
    16     9    10    1
    17    10     1    1
    18     9     3    1
    19    15    16    1
    20     6    11    1
    21    13    14    1
@<TRIPOS>MOLECULE
*****
 20 21 0 0 0
SMALL
GASTEIGER

@<TRIPOS>ATOM
      1 C          -9.2835  -17.3519   21.5911 C.2     1  UNL1        0.1535
      2 N          -7.8231  -17.0471   21.7469 N.2     1  UNL1       -0.2470
      3 C          -7.6003  -16.5473   23.1436 C.3     1  UNL1        0.1723
      4 C          -6.3639  -16.0954   23.8626 C.3     1  UNL1        0.1701
      5 C          -6.4502  -15.6394   25.2890 C.3     1  UNL1        0.1691
      6 O          -5.2138  -15.1875   26.0080 O.3     1  UNL1       -0.3794
      7 C          -7.7729  -15.6352   25.9964 C.3     1  UNL1        0.1746
      8 O          -9.0094  -16.0871   25.2772 O.3     1  UNL1       -0.3402
      9 C          -8.9231  -16.5431   23.8509 C.3     1  UNL1        0.1938
     10 S          -9.9633  -17.0404   22.8914 S.3     1  UNL1       -0.0497
     11 H          -4.4513  -15.2521   25.4120 H       1  UNL1        0.2105
     12 C          -7.8593  -15.1792   27.4227 C.3     1  UNL1        0.1693
     13 O          -6.8870  -14.1637   27.9456 O.3     1  UNL1       -0.3794
     14 H          -5.9943  -14.5431   27.9503 H       1  UNL1        0.2105
     15 N          -9.9475  -17.8761   20.3524 N.pl3   1  UNL1       -0.3135
     16 H          -9.5082  -18.5757   19.8169 H       1  UNL1        0.1487
     17 C         -11.4163  -15.8907   19.5456 C.3     1  UNL1        0.0230
     18 C         -11.2809  -17.3343   19.9297 C.3     1  UNL1        0.0887
     19 O          -5.0411  -16.0996   23.1552 O.3     1  UNL1       -0.3489
     20 C          -4.1151  -17.2702   23.3034 C.3     1  UNL1        0.1742
@<TRIPOS>BOND
     1    17    18    1
     2    18    15    1
     3    15     1    1
     4     1     2    2
     5     3     2    1
     6     3     4    1
     7     4    19    1
     8    19    20    1
     9     4     5    1
    10     5     6    1
    11     5     7    1
    12     7    12    1
    13    12    13    1
    14     7     8    1
    15     9     8    1
    16     9    10    1
    17    10     1    1
    18     9     3    1
    19    15    16    1
    20     6    11    1
    21    13    14    1
@<TRIPOS>MOLECULE
*****
 20 21 0 0 0
SMALL
GASTEIGER

@<TRIPOS>ATOM
      1 C          -5.3865  -19.1290   22.1677 C.2     1  UNL1        0.1535
      2 N          -5.8548  -17.7377   22.4760 N.2     1  UNL1       -0.2470
      3 C          -7.3442  -17.7005   22.3014 C.3     1  UNL1        0.1723
      4 C          -8.3469  -16.5975   22.4677 C.3     1  UNL1        0.1701
      5 C          -9.8020  -16.8627   22.2177 C.3     1  UNL1        0.1691
      6 O         -10.8048  -15.7596   22.3840 O.3     1  UNL1       -0.3794
      7 C         -10.2543  -18.2309   21.8014 C.3     1  UNL1        0.1746
      8 O          -9.2514  -19.3340   21.6351 O.3     1  UNL1       -0.3402
      9 C          -7.7964  -19.0688   21.8851 C.3     1  UNL1        0.1938
     10 S          -6.5865  -19.9516   21.8024 S.3     1  UNL1       -0.0497
     11 H         -10.3496  -14.9469   22.6544 H       1  UNL1        0.2105
     12 C         -11.7093  -18.4962   21.5514 C.3     1  UNL1        0.1693
     13 O         -12.5242  -17.5186   20.7575 O.3     1  UNL1       -0.3794
     14 H         -12.5931  -16.6834   21.2459 H       1  UNL1        0.2105
     15 N          -3.9675  -19.6127   22.2160 N.pl3   1  UNL1       -0.3135
     16 H          -3.5035  -19.6915   23.0807 H       1  UNL1        0.1487
     17 C          -3.5011  -19.1858   19.6960 C.3     1  UNL1        0.0230
     18 C          -3.2555  -19.9764   20.9469 C.3     1  UNL1        0.0887
     19 O          -7.8947  -15.2292   22.8841 O.3     1  UNL1       -0.3489
     20 C          -7.5168  -14.9663   24.3116 C.3     1  UNL1        0.1742
@<TRIPOS>BOND
     1    17    18    1
     2    18    15    1
     3    15     1    1
     4     1     2    2
     5     3     2    1
     6     3     4    1
     7     4    19    1
     8    19    20    1
     9     4     5    1
    10     5     6    1
    11     5     7    1
    12     7    12    1
    13    12    13    1
    14     7     8    1
    15     9     8    1
    16     9    10    1
    17    10     1    1
    18     9     3    1
    19    15    16    1
    20     6    11    1
    21    13    14    1
@<TRIPOS>MOLECULE
*****
 20 21 0 0 0
SMALL
GASTEIGER

@<TRIPOS>ATOM
      1 C          -6.9149  -18.7211   21.5681 C.2     1  UNL1        0.1535
      2 N          -7.7547  -17.5715   21.0955 N.2     1  UNL1       -0.2470
      3 C          -9.0665  -17.6267   21.8208 C.3     1  UNL1        0.1723
      4 C         -10.2836  -16.7521   21.7617 C.3     1  UNL1        0.1701
      5 C         -11.4718  -17.0611   22.6236 C.3     1  UNL1        0.1691
      6 O         -12.6890  -16.1865   22.5645 O.3     1  UNL1       -0.3794
      7 C         -11.4428  -18.2448   23.5446 C.3     1  UNL1        0.1746
      8 O         -10.2255  -19.1194   23.6036 O.3     1  UNL1       -0.3402
      9 C          -9.0374  -18.8104   22.7418 C.3     1  UNL1        0.1938
     10 S          -7.7077  -19.4867   22.5855 S.3     1  UNL1       -0.0497
     11 H         -12.5433  -15.4725   21.9242 H       1  UNL1        0.2105
     12 C         -12.6309  -18.5538   24.4064 C.3     1  UNL1        0.1693
     13 O         -13.9938  -18.0722   24.0056 O.3     1  UNL1       -0.3794
     14 H         -14.0169  -17.1031   24.0387 H       1  UNL1        0.2105
     15 N          -5.5262  -19.0476   21.1046 N.pl3   1  UNL1       -0.3135
     16 H          -5.3152  -19.0469   20.1429 H       1  UNL1        0.1487
     17 C          -3.9405  -18.3095   23.0257 C.3     1  UNL1        0.0230
     18 C          -4.4588  -19.3753   22.1062 C.3     1  UNL1        0.0887
     19 O         -10.3126  -15.5684   20.8408 O.3     1  UNL1       -0.3489
     20 C         -11.1333  -15.6144   19.5861 C.3     1  UNL1        0.1742
@<TRIPOS>BOND
     1    17    18    1
     2    18    15    1
     3    15     1    1
     4     1     2    2
     5     3     2    1
     6     3     4    1
     7     4    19    1
     8    19    20    1
     9     4     5    1
    10     5     6    1
    11     5     7    1
    12     7    12    1
    13    12    13    1
    14     7     8    1
    15     9     8    1
    16     9    10    1
    17    10     1    1
    18     9     3    1
    19    15    16    1
    20     6    11    1
    21    13    14    1
@<TRIPOS>MOLECULE
*****
 20 21 0 0 0
SMALL
GASTEIGER

@<TRIPOS>ATOM
      1 C          -5.8409  -19.2391   20.6340 C.2     1  UNL1        0.1535
      2 N          -6.9719  -18.2872   20.3794 N.2     1  UNL1       -0.2470
      3 C          -8.0576  -18.5813   21.3717 C.3     1  UNL1        0.1723
      4 C          -9.4056  -17.9633   21.5971 C.3     1  UNL1        0.1701
      5 C         -10.2938  -18.4789   22.6905 C.3     1  UNL1        0.1691
      6 O         -11.6418  -17.8609   22.9159 O.3     1  UNL1       -0.3794
      7 C          -9.8339  -19.6126   23.5584 C.3     1  UNL1        0.1746
      8 O          -8.4858  -20.2306   23.3329 O.3     1  UNL1       -0.3402
      9 C          -7.5977  -19.7150   22.2396 C.3     1  UNL1        0.1938
     10 S          -6.2277  -20.1215   21.7836 S.3     1  UNL1       -0.0497
     11 H         -11.7817  -17.1471   22.2742 H       1  UNL1        0.2105
     12 C         -10.7219  -20.1282   24.6517 C.3     1  UNL1        0.1693
     13 O         -11.8025  -19.2538   25.2154 O.3     1  UNL1       -0.3794
     14 H         -11.4014  -18.4993   25.6744 H       1  UNL1        0.2105
     15 N          -4.5499  -19.2982   19.8726 N.pl3   1  UNL1       -0.3135
     16 H          -4.4410  -18.7733   19.0468 H       1  UNL1        0.1487
     17 C          -2.4658  -19.6202   21.3900 C.3     1  UNL1        0.0230
     18 C          -3.4249  -20.1570   20.3693 C.3     1  UNL1        0.0887
     19 O          -9.8656  -16.8296   20.7292 O.3     1  UNL1       -0.3489
     20 C         -11.0599  -17.0036   19.8386 C.3     1  UNL1        0.1742
@<TRIPOS>BOND
     1    17    18    1
     2    18    15    1
     3    15     1    1
     4     1     2    2
     5     3     2    1
     6     3     4    1
     7     4    19    1
     8    19    20    1
     9     4     5    1
    10     5     6    1
    11     5     7    1
    12     7    12    1
    13    12    13    1
    14     7     8    1
    15     9     8    1
    16     9    10    1
    17    10     1    1
    18     9     3    1
    19    15    16    1
    20     6    11    1
    21    13    14    1
@<TRIPOS>MOLECULE
*****
 20 21 0 0 0
SMALL
GASTEIGER

@<TRIPOS>ATOM
      1 C          -5.1065  -19.5678   21.4700 C.2     1  UNL1        0.1535
      2 N          -5.4411  -18.1608   21.8680 N.2     1  UNL1       -0.2470
      3 C          -6.8710  -18.1345   22.3203 C.3     1  UNL1        0.1723
      4 C          -7.7439  -17.0239   22.8247 C.3     1  UNL1        0.1701
      5 C          -9.1662  -17.3040   23.2107 C.3     1  UNL1        0.1691
      6 O         -10.0391  -16.1934   23.7151 O.3     1  UNL1       -0.3794
      7 C          -9.7154  -18.6948   23.0921 C.3     1  UNL1        0.1746
      8 O          -8.8424  -19.8054   22.5876 O.3     1  UNL1       -0.3402
      9 C          -7.4203  -19.5253   22.2017 C.3     1  UNL1        0.1938
     10 S          -6.3298  -20.4111   21.6762 S.3     1  UNL1       -0.0497
     11 H          -9.5333  -15.3658   23.7297 H       1  UNL1        0.2105
     12 C         -11.1376  -18.9749   23.4780 C.3     1  UNL1        0.1693
     13 O         -11.5905  -18.7470   24.8897 O.3     1  UNL1       -0.3794
     14 H         -11.1367  -19.3694   25.4793 H       1  UNL1        0.2105
     15 N          -3.7814  -20.0473   20.9559 N.pl3   1  UNL1       -0.3135
     16 H          -3.6068  -21.0123   20.8699 H       1  UNL1        0.1487
     17 C          -2.7888  -18.3636   19.2442 C.3     1  UNL1        0.0230
     18 C          -2.7224  -19.0564   20.5730 C.3     1  UNL1        0.0887
     19 O          -7.1947  -15.6331   22.9433 O.3     1  UNL1       -0.3489
     20 C          -6.5143  -15.2007   24.2082 C.3     1  UNL1        0.1742
@<TRIPOS>BOND
     1    17    18    1
     2    18    15    1
     3    15     1    1
     4     1     2    2
     5     3     2    1
     6     3     4    1
     7     4    19    1
     8    19    20    1
     9     4     5    1
    10     5     6    1
    11     5     7    1
    12     7    12    1
    13    12    13    1
    14     7     8    1
    15     9     8    1
    16     9    10    1
    17    10     1    1
    18     9     3    1
    19    15    16    1
    20     6    11    1
    21    13    14    1
@<TRIPOS>MOLECULE
*****
 20 21 0 0 0
SMALL
GASTEIGER

@<TRIPOS>ATOM
      1 C         -15.0358   -8.9807   18.4473 C.2     1  UNL1        0.1535
      2 N         -13.6278   -8.5738   18.1279 N.2     1  UNL1       -0.2470
      3 C         -13.4117   -7.1903   18.6655 C.3     1  UNL1        0.1723
      4 C         -12.2192   -6.2807   18.6459 C.3     1  UNL1        0.1701
      5 C         -12.3010   -4.9228   19.2780 C.3     1  UNL1        0.1691
      6 O         -11.1084   -4.0133   19.2583 O.3     1  UNL1       -0.3794
      7 C         -13.5755   -4.4746   19.9298 C.3     1  UNL1        0.1746
      8 O         -14.7681   -5.3842   19.9495 O.3     1  UNL1       -0.3402
      9 C         -14.6862   -6.7420   19.3173 C.3     1  UNL1        0.1938
     10 S         -15.6899   -7.8485   19.1825 S.3     1  UNL1       -0.0497
     11 H         -10.3739   -4.4530   18.8021 H       1  UNL1        0.2105
     12 C         -13.6573   -3.1168   20.5619 C.3     1  UNL1        0.1693
     13 O         -14.0975   -2.9793   21.9893 O.3     1  UNL1       -0.3794
     14 H         -15.0250   -3.2517   22.0693 H       1  UNL1        0.2105
     15 N         -15.6771  -10.2898   18.0937 N.pl3   1  UNL1       -0.3135
     16 H         -15.2311  -10.9026   17.4654 H       1  UNL1        0.1487
     17 C         -18.2692  -10.3910   17.9500 C.3     1  UNL1        0.0230
     18 C         -16.9979  -10.6652   18.6974 C.3     1  UNL1        0.0887
     19 O         -10.9447   -6.7290   17.9941 O.3     1  UNL1       -0.3489
     20 C          -9.8678   -7.3725   18.8163 C.3     1  UNL1        0.1742
@<TRIPOS>BOND
     1    17    18    1
     2    18    15    1
     3    15     1    1
     4     1     2    2
     5     3     2    1
     6     3     4    1
     7     4    19    1
     8    19    20    1
     9     4     5    1
    10     5     6    1
    11     5     7    1
    12     7    12    1
    13    12    13    1
    14     7     8    1
    15     9     8    1
    16     9    10    1
    17    10     1    1
    18     9     3    1
    19    15    16    1
    20     6    11    1
    21    13    14    1
@<TRIPOS>MOLECULE
*****
 20 21 0 0 0
SMALL
GASTEIGER

@<TRIPOS>ATOM
      1 C          -7.7640  -19.1223   21.3168 C.2     1  UNL1        0.1535
      2 N          -7.0246  -18.4313   22.4240 N.2     1  UNL1       -0.2470
      3 C          -5.5609  -18.4689   22.0979 C.3     1  UNL1        0.1723
      4 C          -4.3572  -17.9451   22.8236 C.3     1  UNL1        0.1701
      5 C          -2.9882  -18.1355   22.2406 C.3     1  UNL1        0.1691
      6 O          -1.7845  -17.6117   22.9663 O.3     1  UNL1       -0.3794
      7 C          -2.8231  -18.8497   20.9320 C.3     1  UNL1        0.1746
      8 O          -4.0269  -19.3735   20.2063 O.3     1  UNL1       -0.3402
      9 C          -5.3957  -19.1831   20.7893 C.3     1  UNL1        0.1938
     10 S          -6.7573  -19.5869   20.3065 S.3     1  UNL1       -0.0497
     11 H          -2.0651  -17.1803   23.7886 H       1  UNL1        0.2105
     12 C          -1.4542  -19.0401   20.3490 C.3     1  UNL1        0.1693
     13 O          -0.3470  -18.0948   20.7103 O.3     1  UNL1       -0.3794
     14 H          -0.5497  -17.2118   20.3636 H       1  UNL1        0.2105
     15 N          -9.2493  -19.3148   21.2344 N.pl3   1  UNL1       -0.3135
     16 H          -9.7562  -19.5820   22.0350 H       1  UNL1        0.1487
     17 C         -11.0231  -18.0453   19.8230 C.3     1  UNL1        0.0230
     18 C          -9.9623  -19.1002   19.9323 C.3     1  UNL1        0.0887
     19 O          -4.5224  -17.2309   24.1323 O.3     1  UNL1       -0.3489
     20 C          -5.1072  -15.8500   24.1645 C.3     1  UNL1        0.1742
@<TRIPOS>BOND
     1    17    18    1
     2    18    15    1
     3    15     1    1
     4     1     2    2
     5     3     2    1
     6     3     4    1
     7     4    19    1
     8    19    20    1
     9     4     5    1
    10     5     6    1
    11     5     7    1
    12     7    12    1
    13    12    13    1
    14     7     8    1
    15     9     8    1
    16     9    10    1
    17    10     1    1
    18     9     3    1
    19    15    16    1
    20     6    11    1
    21    13    14    1
@<TRIPOS>MOLECULE
*****
 20 21 0 0 0
SMALL
GASTEIGER

@<TRIPOS>ATOM
      1 C          -3.6561  -19.2405   21.7793 C.2     1  UNL1        0.1535
      2 N          -5.0499  -19.6746   21.4347 N.2     1  UNL1       -0.2470
      3 C          -6.0068  -18.7152   22.0781 C.3     1  UNL1        0.1723
      4 C          -7.5050  -18.6441   22.0840 C.3     1  UNL1        0.1701
      5 C          -8.2009  -17.5459   22.8322 C.3     1  UNL1        0.1691
      6 O          -9.6992  -17.4749   22.8381 O.3     1  UNL1       -0.3794
      7 C          -7.3984  -16.5188   23.5746 C.3     1  UNL1        0.1746
      8 O          -5.9001  -16.5899   23.5687 O.3     1  UNL1       -0.3402
      9 C          -5.2043  -17.6881   22.8205 C.3     1  UNL1        0.1938
     10 S          -3.7515  -18.0127   22.6358 S.3     1  UNL1       -0.0497
     11 H         -10.0597  -18.2077   22.3147 H       1  UNL1        0.2105
     12 C          -8.0942  -15.4206   24.3228 C.3     1  UNL1        0.1693
     13 O          -7.6127  -14.0056   24.1972 O.3     1  UNL1       -0.3794
     14 H          -6.7267  -13.9299   24.5847 H       1  UNL1        0.2105
     15 N          -2.3893  -19.9155   21.3439 N.pl3   1  UNL1       -0.3135
     16 H          -2.1473  -20.7946   21.7153 H       1  UNL1        0.1487
     17 C          -2.0741  -18.3525   19.2928 C.3     1  UNL1        0.0230
     18 C          -1.4914  -19.2513   20.3427 C.3     1  UNL1        0.0887
     19 O          -8.3075  -19.6713   21.3417 O.3     1  UNL1       -0.3489
     20 C          -8.7481  -19.4042   19.9330 C.3     1  UNL1        0.1742
@<TRIPOS>BOND
     1    17    18    1
     2    18    15    1
     3    15     1    1
     4     1     2    2
     5     3     2    1
     6     3     4    1
     7     4    19    1
     8    19    20    1
     9     4     5    1
    10     5     6    1
    11     5     7    1
    12     7    12    1
    13    12    13    1
    14     7     8    1
    15     9     8    1
    16     9    10    1
    17    10     1    1
    18     9     3    1
    19    15    16    1
    20     6    11    1
    21    13    14    1
