@<TRIPOS>MOLECULE
*****
 40 44 0 0 0
SMALL
GASTEIGER

@<TRIPOS>ATOM
      1 C           0.7821    3.1423   30.4441 C.ar    1  UNL1       -0.0025
      2 C           1.3707    3.9563   29.3301 C.ar    1  UNL1       -0.0014
      3 C           1.7091    3.3042   28.0224 C.ar    1  UNL1        0.0142
      4 C           1.4590    1.8380   27.8286 C.ar    1  UNL1        0.0478
      5 C           0.8704    1.0239   28.9425 C.ar    1  UNL1        0.0142
      6 C           0.5319    1.6761   30.2502 C.ar    1  UNL1       -0.0014
      7 N           1.7974    1.1858   26.5208 N.pl3   1  UNL1       -0.3075
      8 C           2.9689    0.2535   26.4287 C.3     1  UNL1        0.0911
      9 C           3.3073   -0.3986   25.1210 C.3     1  UNL1        0.0258
     10 C           2.4743   -0.1184   23.9054 C.3     1  UNL1        0.0257
     11 C           1.3029    0.8139   23.9975 C.3     1  UNL1        0.0258
     12 C           0.9644    1.4660   25.3053 C.3     1  UNL1        0.0911
     13 C           2.8127   -0.7705   22.5976 C.ar    1  UNL1       -0.0222
     14 C           2.0582   -0.3976   21.3561 C.ar    1  UNL1       -0.0012
     15 C           2.3967   -1.0497   20.0483 C.ar    1  UNL1        0.0369
     16 C           3.4897   -2.0749   19.9822 C.ar    1  UNL1        0.1468
     17 C           4.2442   -2.4478   21.2237 C.ar    1  UNL1        0.0369
     18 C           3.9058   -1.7957   22.5315 C.ar    1  UNL1       -0.0012
     19 O           3.8281   -2.7270   18.6744 O.3     1  UNL1       -0.4045
     20 C           4.2879   -4.1545   18.6450 C.3     1  UNL1        0.5753
     21 F           4.7477   -5.5819   18.6156 F       1  UNL1       -0.1328
     22 F           5.6662   -3.7027   18.2626 F       1  UNL1       -0.1328
     23 F           2.9097   -4.6063   19.0275 F       1  UNL1       -0.1328
     24 C           0.4436    3.7944   31.7518 C.3     1  UNL1        0.1166
     25 C           1.9335    3.8543   33.8794 C.2     1  UNL1        0.2635
     26 O           2.5206    5.1601   33.4315 O.2     1  UNL1       -0.2685
     27 N           0.8951    3.1716   33.0395 N.am    1  UNL1       -0.2957
     28 H           0.5099    2.3146   33.3335 H       1  UNL1        0.1501
     29 C           2.0718    3.7320   36.5460 C.ar    1  UNL1        0.0811
     30 N           2.7222    2.8086   37.5331 N.ar    1  UNL1       -0.2306
     31 C           3.4374    1.7374   36.7642 C.ar    1  UNL1        0.1475
     32 C           4.2514    0.5578   37.2067 C.ar    1  UNL1        0.0383
     33 C           4.8570   -0.3605   36.1869 C.ar    1  UNL1        0.0160
     34 C           4.6486   -0.0991   34.7246 C.ar    1  UNL1        0.0753
     35 CL          5.2542   -1.0174   33.7048 Cl      1  UNL1       -0.0807
     36 C           3.8345    1.0805   34.2821 C.ar    1  UNL1        0.0929
     37 N           3.2289    1.9987   35.3019 N.ar    1  UNL1       -0.2845
     38 C           2.3850    3.2315   35.1671 C.ar    1  UNL1        0.1326
     39 C           1.8352    6.3143   36.7056 C.3     1  UNL1        0.0067
     40 C           1.2522    4.9432   36.8793 C.3     1  UNL1        0.0475
@<TRIPOS>BOND
     1    39    40    1
     2    40    29    1
     3    29    30   ar
     4    30    31   ar
     5    31    32   ar
     6    32    33   ar
     7    33    34   ar
     8    34    35    1
     9    34    36   ar
    10    36    37   ar
    11    37    38   ar
    12    38    25    1
    13    25    26    2
    14    25    27   am
    15    27    24    1
    16    24     1    1
    17     1     2   ar
    18     2     3   ar
    19     3     4   ar
    20     4     7    1
    21     7     8    1
    22     8     9    1
    23     9    10    1
    24    10    13    1
    25    13    14   ar
    26    14    15   ar
    27    15    16   ar
    28    16    19    1
    29    19    20    1
    30    20    21    1
    31    20    22    1
    32    20    23    1
    33    16    17   ar
    34    17    18   ar
    35    10    11    1
    36    11    12    1
    37     4     5   ar
    38     5     6   ar
    39    38    29   ar
    40     6     1   ar
    41    37    31   ar
    42    12     7    1
    43    18    13   ar
    44    27    28    1
@<TRIPOS>MOLECULE
*****
 40 44 0 0 0
SMALL
GASTEIGER

@<TRIPOS>ATOM
      1 C           2.0285    1.9717   32.3114 C.ar    1  UNL1       -0.0025
      2 C           2.9329    0.7823   32.1804 C.ar    1  UNL1       -0.0014
      3 C           3.2377    0.2175   30.8247 C.ar    1  UNL1        0.0142
      4 C           2.6380    0.8421   29.5998 C.ar    1  UNL1        0.0478
      5 C           1.7336    2.0316   29.7308 C.ar    1  UNL1        0.0142
      6 C           1.4288    2.5964   31.0865 C.ar    1  UNL1       -0.0014
      7 N           2.9428    0.2773   28.2440 N.pl3   1  UNL1       -0.3075
      8 C           2.4832    0.9973   27.0110 C.3     1  UNL1        0.0911
      9 C           2.7880    0.4325   25.6553 C.3     1  UNL1        0.0258
     10 C           3.5524   -0.8523   25.5325 C.3     1  UNL1        0.0257
     11 C           4.0120   -1.5723   26.7656 C.3     1  UNL1        0.0258
     12 C           3.7072   -1.0075   28.1213 C.3     1  UNL1        0.0911
     13 C           3.8572   -1.4171   24.1768 C.ar    1  UNL1       -0.0222
     14 C           4.8434   -2.5385   24.0358 C.ar    1  UNL1       -0.0012
     15 C           5.1482   -3.1033   22.6801 C.ar    1  UNL1        0.0369
     16 C           4.4667   -2.5467   21.4652 C.ar    1  UNL1        0.1468
     17 C           3.4805   -1.4254   21.6062 C.ar    1  UNL1        0.0369
     18 C           3.1757   -0.8606   22.9619 C.ar    1  UNL1       -0.0012
     19 O           4.7715   -3.1116   20.1095 O.3     1  UNL1       -0.4045
     20 C           3.7141   -3.8607   19.3541 C.3     1  UNL1        0.5753
     21 F           2.6567   -4.6099   18.5987 F       1  UNL1       -0.1328
     22 F           3.8503   -5.0123   20.3056 F       1  UNL1       -0.1328
     23 F           3.5779   -2.7092   18.4026 F       1  UNL1       -0.1328
     24 C           1.7237    2.5366   33.6671 C.3     1  UNL1        0.1166
     25 C           2.4327    2.9258   36.1361 C.2     1  UNL1        0.2635
     26 O           1.3852    3.9912   36.2689 O.2     1  UNL1       -0.2685
     27 N           2.6020    2.1985   34.8352 N.am    1  UNL1       -0.2957
     28 H           3.2895    1.4993   34.7480 H       1  UNL1        0.1501
     29 C           2.8709    1.9236   38.5751 C.ar    1  UNL1        0.0811
     30 N           4.0715    1.7799   39.4627 N.ar    1  UNL1       -0.2306
     31 C           5.2536    2.3552   38.7405 C.ar    1  UNL1        0.1475
     32 C           6.6972    2.4890   39.1252 C.ar    1  UNL1        0.0383
     33 C           7.6708    3.1220   38.1759 C.ar    1  UNL1        0.0160
     34 C           7.2007    3.6213   36.8418 C.ar    1  UNL1        0.0753
     35 CL          8.1744    4.2544   35.8924 Cl      1  UNL1       -0.0807
     36 C           5.7571    3.4875   36.4570 C.ar    1  UNL1        0.0929
     37 N           4.7835    2.8545   37.4064 N.ar    1  UNL1       -0.2845
     38 C           3.3110    2.5877   37.3042 C.ar    1  UNL1        0.1326
     39 C           1.2481    0.1803   39.6130 C.3     1  UNL1        0.0067
     40 C           1.4753    1.4808   38.9011 C.3     1  UNL1        0.0475
@<TRIPOS>BOND
     1    39    40    1
     2    40    29    1
     3    29    30   ar
     4    30    31   ar
     5    31    32   ar
     6    32    33   ar
     7    33    34   ar
     8    34    35    1
     9    34    36   ar
    10    36    37   ar
    11    37    38   ar
    12    38    25    1
    13    25    26    2
    14    25    27   am
    15    27    24    1
    16    24     1    1
    17     1     2   ar
    18     2     3   ar
    19     3     4   ar
    20     4     7    1
    21     7     8    1
    22     8     9    1
    23     9    10    1
    24    10    13    1
    25    13    14   ar
    26    14    15   ar
    27    15    16   ar
    28    16    19    1
    29    19    20    1
    30    20    21    1
    31    20    22    1
    32    20    23    1
    33    16    17   ar
    34    17    18   ar
    35    10    11    1
    36    11    12    1
    37     4     5   ar
    38     5     6   ar
    39    38    29   ar
    40     6     1   ar
    41    37    31   ar
    42    12     7    1
    43    18    13   ar
    44    27    28    1
@<TRIPOS>MOLECULE
*****
 40 44 0 0 0
SMALL
GASTEIGER

@<TRIPOS>ATOM
      1 C           4.7814    0.0337   32.3457 C.ar    1  UNL1       -0.0025
      2 C           5.6159   -1.0679   31.7626 C.ar    1  UNL1       -0.0014
      3 C           5.5134   -1.3937   30.3020 C.ar    1  UNL1        0.0142
      4 C           4.5764   -0.6178   29.4244 C.ar    1  UNL1        0.0478
      5 C           3.7419    0.4838   30.0076 C.ar    1  UNL1        0.0142
      6 C           3.8444    0.8096   31.4681 C.ar    1  UNL1       -0.0014
      7 N           4.4739   -0.9436   27.9638 N.pl3   1  UNL1       -0.3075
      8 C           5.4501   -1.8945   27.3372 C.3     1  UNL1        0.0911
      9 C           5.3476   -2.2203   25.8766 C.3     1  UNL1        0.0258
     10 C           4.2689   -1.5952   25.0427 C.3     1  UNL1        0.0257
     11 C           3.2926   -0.6443   25.6693 C.3     1  UNL1        0.0258
     12 C           3.3951   -0.3185   27.1299 C.3     1  UNL1        0.0911
     13 C           4.1664   -1.9210   23.5821 C.ar    1  UNL1       -0.0222
     14 C           4.8754   -3.1219   23.0299 C.ar    1  UNL1       -0.0012
     15 C           4.7729   -3.4477   21.5693 C.ar    1  UNL1        0.0369
     16 C           3.9613   -2.5725   20.6608 C.ar    1  UNL1        0.1468
     17 C           3.2522   -1.3716   21.2130 C.ar    1  UNL1        0.0369
     18 C           3.3547   -1.0458   22.6736 C.ar    1  UNL1       -0.0012
     19 O           3.8588   -2.8983   19.2002 O.3     1  UNL1       -0.4045
     20 C           4.3180   -4.2342   18.6958 C.3     1  UNL1        0.5753
     21 F           4.7771   -5.5702   18.1913 F       1  UNL1       -0.1328
     22 F           3.0101   -4.8403   19.1105 F       1  UNL1       -0.1328
     23 F           5.6258   -3.6281   18.2810 F       1  UNL1       -0.1328
     24 C           4.8839    0.3595   33.8063 C.3     1  UNL1        0.1166
     25 C           4.0229    1.6918   35.8638 C.2     1  UNL1        0.2635
     26 O           5.2917    1.3761   36.5992 O.2     1  UNL1       -0.2685
     27 N           3.8191    1.1835   34.4675 N.am    1  UNL1       -0.2957
     28 H           2.9864    1.3907   33.9849 H       1  UNL1        0.1501
     29 C           2.2219    2.1604   37.7827 C.ar    1  UNL1        0.0811
     30 N           1.2514    3.2648   38.0795 N.ar    1  UNL1       -0.2306
     31 C           1.3876    4.3029   37.0053 C.ar    1  UNL1        0.1475
     32 C           0.6875    5.6098   36.7778 C.ar    1  UNL1        0.0383
     33 C           1.0422    6.4538   35.5897 C.ar    1  UNL1        0.0160
     34 C           2.0970    5.9908   34.6289 C.ar    1  UNL1        0.0753
     35 CL          2.4517    6.8349   33.4407 Cl      1  UNL1       -0.0807
     36 C           2.7972    4.6839   34.8564 C.ar    1  UNL1        0.0929
     37 N           2.4425    3.8400   36.0445 N.ar    1  UNL1       -0.2845
     38 C           2.9581    2.5158   36.5250 C.ar    1  UNL1        0.1326
     39 C           1.2595    0.2988   39.3183 C.3     1  UNL1        0.0067
     40 C           2.4214    0.9185   38.6000 C.3     1  UNL1        0.0475
@<TRIPOS>BOND
     1    39    40    1
     2    40    29    1
     3    29    30   ar
     4    30    31   ar
     5    31    32   ar
     6    32    33   ar
     7    33    34   ar
     8    34    35    1
     9    34    36   ar
    10    36    37   ar
    11    37    38   ar
    12    38    25    1
    13    25    26    2
    14    25    27   am
    15    27    24    1
    16    24     1    1
    17     1     2   ar
    18     2     3   ar
    19     3     4   ar
    20     4     7    1
    21     7     8    1
    22     8     9    1
    23     9    10    1
    24    10    13    1
    25    13    14   ar
    26    14    15   ar
    27    15    16   ar
    28    16    19    1
    29    19    20    1
    30    20    21    1
    31    20    22    1
    32    20    23    1
    33    16    17   ar
    34    17    18   ar
    35    10    11    1
    36    11    12    1
    37     4     5   ar
    38     5     6   ar
    39    38    29   ar
    40     6     1   ar
    41    37    31   ar
    42    12     7    1
    43    18    13   ar
    44    27    28    1
@<TRIPOS>MOLECULE
*****
 40 44 0 0 0
SMALL
GASTEIGER

@<TRIPOS>ATOM
      1 C           1.5499    1.9781   31.3728 C.ar    1  UNL1       -0.0025
      2 C           2.4338    0.7864   31.1526 C.ar    1  UNL1       -0.0014
      3 C           2.7018    0.2985   29.7597 C.ar    1  UNL1        0.0142
      4 C           2.0859    1.0023   28.5870 C.ar    1  UNL1        0.0478
      5 C           1.2020    2.1940   28.8072 C.ar    1  UNL1        0.0142
      6 C           0.9340    2.6819   30.2001 C.ar    1  UNL1       -0.0014
      7 N           2.3539    0.5144   27.1941 N.pl3   1  UNL1       -0.3075
      8 C           3.3534   -0.5797   26.9621 C.3     1  UNL1        0.0911
      9 C           3.6214   -1.0676   25.5692 C.3     1  UNL1        0.0258
     10 C           2.8900   -0.4613   24.4084 C.3     1  UNL1        0.0257
     11 C           1.8905    0.6328   24.6405 C.3     1  UNL1        0.0258
     12 C           1.6225    1.1207   26.0333 C.3     1  UNL1        0.0911
     13 C           3.1580   -0.9492   23.0155 C.ar    1  UNL1       -0.0222
     14 C           4.2422   -1.9560   22.7691 C.ar    1  UNL1       -0.0012
     15 C           4.5103   -2.4439   21.3762 C.ar    1  UNL1        0.0369
     16 C           3.6940   -1.9250   20.2297 C.ar    1  UNL1        0.1468
     17 C           2.6098   -0.9182   20.4761 C.ar    1  UNL1        0.0369
     18 C           2.3417   -0.4303   21.8690 C.ar    1  UNL1       -0.0012
     19 O           3.9620   -2.4129   18.8368 O.3     1  UNL1       -0.4045
     20 C           4.3008   -3.8547   18.5994 C.3     1  UNL1        0.5753
     21 F           4.6395   -5.2965   18.3619 F       1  UNL1       -0.1328
     22 F           5.6980   -3.4638   18.2188 F       1  UNL1       -0.1328
     23 F           2.9035   -4.2456   18.9799 F       1  UNL1       -0.1328
     24 C           1.2818    2.4660   32.7657 C.3     1  UNL1        0.1166
     25 C           2.5232    2.9381   34.9987 C.2     1  UNL1        0.2635
     26 O           2.0605    4.3644   34.9542 O.2     1  UNL1       -0.2685
     27 N           2.1338    1.9890   33.9044 N.am    1  UNL1       -0.2957
     28 H           2.4375    1.0530   33.9336 H       1  UNL1        0.1501
     29 C           2.9767    2.4281   37.5831 C.ar    1  UNL1        0.0811
     30 N           4.1305    1.8800   38.3694 N.ar    1  UNL1       -0.2306
     31 C           5.2420    1.5744   37.4097 C.ar    1  UNL1        0.1475
     32 C           6.6189    1.0154   37.6138 C.ar    1  UNL1        0.0383
     33 C           7.5290    0.8157   36.4383 C.ar    1  UNL1        0.0160
     34 C           7.0622    1.1748   35.0588 C.ar    1  UNL1        0.0753
     35 CL          7.9724    0.9750   33.8833 Cl      1  UNL1       -0.0807
     36 C           5.6853    1.7338   34.8547 C.ar    1  UNL1        0.0929
     37 N           4.7752    1.9335   36.0302 N.ar    1  UNL1       -0.2845
     38 C           3.3752    2.4612   36.1374 C.ar    1  UNL1        0.1326
     39 C           1.0693    2.1523   39.3254 C.3     1  UNL1        0.0067
     40 C           1.6562    2.8661   38.1440 C.3     1  UNL1        0.0475
@<TRIPOS>BOND
     1    39    40    1
     2    40    29    1
     3    29    30   ar
     4    30    31   ar
     5    31    32   ar
     6    32    33   ar
     7    33    34   ar
     8    34    35    1
     9    34    36   ar
    10    36    37   ar
    11    37    38   ar
    12    38    25    1
    13    25    26    2
    14    25    27   am
    15    27    24    1
    16    24     1    1
    17     1     2   ar
    18     2     3   ar
    19     3     4   ar
    20     4     7    1
    21     7     8    1
    22     8     9    1
    23     9    10    1
    24    10    13    1
    25    13    14   ar
    26    14    15   ar
    27    15    16   ar
    28    16    19    1
    29    19    20    1
    30    20    21    1
    31    20    22    1
    32    20    23    1
    33    16    17   ar
    34    17    18   ar
    35    10    11    1
    36    11    12    1
    37     4     5   ar
    38     5     6   ar
    39    38    29   ar
    40     6     1   ar
    41    37    31   ar
    42    12     7    1
    43    18    13   ar
    44    27    28    1
@<TRIPOS>MOLECULE
*****
 40 44 0 0 0
SMALL
GASTEIGER

@<TRIPOS>ATOM
      1 C          -3.8519    4.4165   24.3525 C.ar    1  UNL1       -0.0025
      2 C          -2.4592    4.0353   23.9465 C.ar    1  UNL1       -0.0014
      3 C          -1.5244    3.4294   24.9510 C.ar    1  UNL1        0.0142
      4 C          -1.9824    3.2047   26.3617 C.ar    1  UNL1        0.0478
      5 C          -3.3751    3.5860   26.7677 C.ar    1  UNL1        0.0142
      6 C          -4.3099    4.1919   25.7632 C.ar    1  UNL1       -0.0014
      7 N          -1.0476    2.5989   27.3662 N.pl3   1  UNL1       -0.3075
      8 C           0.1805    3.3463   27.7940 C.3     1  UNL1        0.0911
      9 C           1.1153    2.7404   28.7985 C.3     1  UNL1        0.0258
     10 C           0.8220    1.3871   29.3752 C.3     1  UNL1        0.0257
     11 C          -0.4061    0.6396   28.9473 C.3     1  UNL1        0.0258
     12 C          -1.3409    1.2455   27.9428 C.3     1  UNL1        0.0911
     13 C           1.7568    0.7812   30.3797 C.ar    1  UNL1       -0.0222
     14 C           2.0377    1.4949   31.6688 C.ar    1  UNL1       -0.0012
     15 C           2.9725    0.8890   32.6733 C.ar    1  UNL1        0.0369
     16 C           3.6264   -0.4307   32.3887 C.ar    1  UNL1        0.1468
     17 C           3.3455   -1.1443   31.0997 C.ar    1  UNL1        0.0369
     18 C           2.4107   -0.5384   30.0952 C.ar    1  UNL1       -0.0012
     19 O           4.5612   -1.0366   33.3932 O.3     1  UNL1       -0.4045
     20 C           5.1848   -2.3743   33.1259 C.3     1  UNL1        0.5753
     21 F           5.8084   -3.7121   32.8586 F       1  UNL1       -0.1328
     22 F           6.3538   -1.6988   32.4724 F       1  UNL1       -0.1328
     23 F           4.0158   -3.0498   33.7795 F       1  UNL1       -0.1328
     24 C          -4.7867    5.0224   23.3480 C.3     1  UNL1        0.1166
     25 C          -4.3877    3.7588   21.1133 C.2     1  UNL1        0.2635
     26 O          -4.7274    2.4618   21.7861 O.2     1  UNL1       -0.2685
     27 N          -4.4173    5.0390   21.8943 N.am    1  UNL1       -0.2957
     28 H          -4.1944    5.8902   21.4528 H       1  UNL1        0.1501
     29 C          -4.9647    3.6117   18.5075 C.ar    1  UNL1        0.0811
     30 N          -4.1689    3.6938   17.2387 N.ar    1  UNL1       -0.2306
     31 C          -2.7306    3.9081   17.6066 C.ar    1  UNL1        0.1475
     32 C          -1.4937    4.0639   16.7725 C.ar    1  UNL1        0.0383
     33 C          -0.1637    4.2702   17.4346 C.ar    1  UNL1        0.0160
     34 C          -0.0706    4.3206   18.9309 C.ar    1  UNL1        0.0753
     35 CL          1.2595    4.5269   19.5931 Cl      1  UNL1       -0.0807
     36 C          -1.3075    4.1648   19.7650 C.ar    1  UNL1        0.0929
     37 N          -2.6375    3.9586   19.1028 N.ar    1  UNL1       -0.2845
     38 C          -4.0183    3.7754   19.6596 C.ar    1  UNL1        0.1326
     39 C          -7.3408    4.5434   18.9933 C.3     1  UNL1        0.0067
     40 C          -6.4468    3.4027   18.6068 C.3     1  UNL1        0.0475
@<TRIPOS>BOND
     1    39    40    1
     2    40    29    1
     3    29    30   ar
     4    30    31   ar
     5    31    32   ar
     6    32    33   ar
     7    33    34   ar
     8    34    35    1
     9    34    36   ar
    10    36    37   ar
    11    37    38   ar
    12    38    25    1
    13    25    26    2
    14    25    27   am
    15    27    24    1
    16    24     1    1
    17     1     2   ar
    18     2     3   ar
    19     3     4   ar
    20     4     7    1
    21     7     8    1
    22     8     9    1
    23     9    10    1
    24    10    13    1
    25    13    14   ar
    26    14    15   ar
    27    15    16   ar
    28    16    19    1
    29    19    20    1
    30    20    21    1
    31    20    22    1
    32    20    23    1
    33    16    17   ar
    34    17    18   ar
    35    10    11    1
    36    11    12    1
    37     4     5   ar
    38     5     6   ar
    39    38    29   ar
    40     6     1   ar
    41    37    31   ar
    42    12     7    1
    43    18    13   ar
    44    27    28    1
@<TRIPOS>MOLECULE
*****
 40 44 0 0 0
SMALL
GASTEIGER

@<TRIPOS>ATOM
      1 C           1.6658    1.8941   31.4018 C.ar    1  UNL1       -0.0025
      2 C           2.4133    0.6125   31.1815 C.ar    1  UNL1       -0.0014
      3 C           2.6738    0.1264   29.7866 C.ar    1  UNL1        0.0142
      4 C           2.1868    0.9219   28.6118 C.ar    1  UNL1        0.0478
      5 C           1.4393    2.2035   28.8321 C.ar    1  UNL1        0.0142
      6 C           1.1788    2.6897   30.2270 C.ar    1  UNL1       -0.0014
      7 N           2.4473    0.4358   27.2169 N.pl3   1  UNL1       -0.3075
      8 C           1.7025    1.0367   26.0619 C.3     1  UNL1        0.0911
      9 C           1.9630    0.5506   24.6670 C.3     1  UNL1        0.0258
     10 C           2.9683   -0.5365   24.4271 C.3     1  UNL1        0.0257
     11 C           3.7132   -1.1374   25.5821 C.3     1  UNL1        0.0258
     12 C           3.4527   -0.6513   26.9770 C.3     1  UNL1        0.0911
     13 C           3.2289   -1.0226   23.0322 C.ar    1  UNL1       -0.0222
     14 C           4.2881   -2.0551   22.7833 C.ar    1  UNL1       -0.0012
     15 C           4.5486   -2.5412   21.3884 C.ar    1  UNL1        0.0369
     16 C           3.7498   -1.9949   20.2423 C.ar    1  UNL1        0.1468
     17 C           2.6906   -0.9625   20.4912 C.ar    1  UNL1        0.0369
     18 C           2.4301   -0.4763   21.8861 C.ar    1  UNL1       -0.0012
     19 O           4.0104   -2.4810   18.8474 O.3     1  UNL1       -0.4045
     20 C           4.3347   -3.9253   18.6048 C.3     1  UNL1        0.5753
     21 F           4.6590   -5.3696   18.3623 F       1  UNL1       -0.1328
     22 F           5.6902   -3.5352   18.0947 F       1  UNL1       -0.1328
     23 F           2.9791   -4.3154   19.1150 F       1  UNL1       -0.1328
     24 C           1.4053    2.3803   32.7967 C.3     1  UNL1        0.1166
     25 C           3.6225    2.3815   34.1509 C.2     1  UNL1        0.2635
     26 O           4.1883    3.4160   33.2235 O.2     1  UNL1       -0.2685
     27 N           2.2310    1.8637   33.9374 N.am    1  UNL1       -0.2957
     28 H           1.8597    1.1848   34.5461 H       1  UNL1        0.1501
     29 C           5.2413    0.5919   35.3004 C.ar    1  UNL1        0.0811
     30 N           5.9091    0.4710   36.6381 N.ar    1  UNL1       -0.2306
     31 C           5.5288    1.6694   37.4561 C.ar    1  UNL1        0.1475
     32 C           5.8879    2.0875   38.8511 C.ar    1  UNL1        0.0383
     33 C           5.3442    3.3671   39.4140 C.ar    1  UNL1        0.0160
     34 C           4.4413    4.2286   38.5818 C.ar    1  UNL1        0.0753
     35 CL          3.8975    5.5083   39.1448 Cl      1  UNL1       -0.0807
     36 C           4.0821    3.8106   37.1868 C.ar    1  UNL1        0.0929
     37 N           4.6259    2.5310   36.6239 N.ar    1  UNL1       -0.2845
     38 C           4.4483    1.8650   35.2916 C.ar    1  UNL1        0.1326
     39 C           4.2858   -1.4299   33.9777 C.3     1  UNL1        0.0067
     40 C           5.3479   -0.3883   34.1699 C.3     1  UNL1        0.0475
@<TRIPOS>BOND
     1    39    40    1
     2    40    29    1
     3    29    30   ar
     4    30    31   ar
     5    31    32   ar
     6    32    33   ar
     7    33    34   ar
     8    34    35    1
     9    34    36   ar
    10    36    37   ar
    11    37    38   ar
    12    38    25    1
    13    25    26    2
    14    25    27   am
    15    27    24    1
    16    24     1    1
    17     1     2   ar
    18     2     3   ar
    19     3     4   ar
    20     4     7    1
    21     7     8    1
    22     8     9    1
    23     9    10    1
    24    10    13    1
    25    13    14   ar
    26    14    15   ar
    27    15    16   ar
    28    16    19    1
    29    19    20    1
    30    20    21    1
    31    20    22    1
    32    20    23    1
    33    16    17   ar
    34    17    18   ar
    35    10    11    1
    36    11    12    1
    37     4     5   ar
    38     5     6   ar
    39    38    29   ar
    40     6     1   ar
    41    37    31   ar
    42    12     7    1
    43    18    13   ar
    44    27    28    1
@<TRIPOS>MOLECULE
*****
 40 44 0 0 0
SMALL
GASTEIGER

@<TRIPOS>ATOM
      1 C           0.9750    1.1332   24.6013 C.ar    1  UNL1       -0.0025
      2 C           2.3809    0.7520   24.9592 C.ar    1  UNL1       -0.0014
      3 C           2.7943    0.6772   26.3992 C.ar    1  UNL1        0.0142
      4 C           1.8018    0.9836   27.4813 C.ar    1  UNL1        0.0478
      5 C           0.3959    1.3648   27.1234 C.ar    1  UNL1        0.0142
      6 C          -0.0175    1.4396   25.6835 C.ar    1  UNL1       -0.0014
      7 N           2.2152    0.9088   28.9213 N.pl3   1  UNL1       -0.3075
      8 C           2.3286    2.1636   29.7352 C.3     1  UNL1        0.0911
      9 C           2.7420    2.0888   31.1751 C.3     1  UNL1        0.0258
     10 C           3.0420    0.7591   31.8012 C.3     1  UNL1        0.0257
     11 C           2.9287   -0.4957   30.9873 C.3     1  UNL1        0.0258
     12 C           2.5153   -0.4209   29.5473 C.3     1  UNL1        0.0911
     13 C           3.4555    0.6843   33.2411 C.ar    1  UNL1       -0.0222
     14 C           4.2325   -0.4986   33.7379 C.ar    1  UNL1       -0.0012
     15 C           4.6459   -0.5734   35.1779 C.ar    1  UNL1        0.0369
     16 C           4.2823    0.5348   36.1211 C.ar    1  UNL1        0.1468
     17 C           3.5053    1.7177   35.6243 C.ar    1  UNL1        0.0369
     18 C           3.0919    1.7925   34.1844 C.ar    1  UNL1       -0.0012
     19 O           4.6957    0.4600   37.5611 O.3     1  UNL1       -0.4045
     20 C           4.2739    1.5342   38.5192 C.3     1  UNL1        0.5753
     21 F           3.8521    2.6085   39.4774 F       1  UNL1       -0.1328
     22 F           5.5411    2.2849   38.2354 F       1  UNL1       -0.1328
     23 F           3.0067    0.7835   38.8031 F       1  UNL1       -0.1328
     24 C           0.5616    1.2080   23.1614 C.3     1  UNL1        0.1166
     25 C           1.2070    0.5313   20.7374 C.2     1  UNL1        0.2635
     26 O          -0.2076    0.1035   20.4803 O.2     1  UNL1       -0.2685
     27 N           1.5915    1.0835   22.0779 N.am    1  UNL1       -0.2957
     28 H           2.5199    1.3642   22.2467 H       1  UNL1        0.1501
     29 C           2.6556    1.4917   18.7067 C.ar    1  UNL1        0.0811
     30 N           3.7063    0.9309   17.7949 N.ar    1  UNL1       -0.2306
     31 C           3.9370   -0.5007   18.1787 C.ar    1  UNL1        0.1475
     32 C           4.8568   -1.5511   17.6304 C.ar    1  UNL1        0.0383
     33 C           4.8683   -2.9255   18.2311 C.ar    1  UNL1        0.0160
     34 C           3.9601   -3.2494   19.3802 C.ar    1  UNL1        0.0753
     35 CL          3.9716   -4.6239   19.9809 Cl      1  UNL1       -0.0807
     36 C           3.0404   -2.1990   19.9285 C.ar    1  UNL1        0.0929
     37 N           3.0289   -0.8246   19.3277 N.ar    1  UNL1       -0.2845
     38 C           2.2369    0.4068   19.6540 C.ar    1  UNL1        0.1326
     39 C           0.7058    3.1435   18.2376 C.3     1  UNL1        0.0067
     40 C           2.1179    2.8917   18.6764 C.3     1  UNL1        0.0475
@<TRIPOS>BOND
     1    39    40    1
     2    40    29    1
     3    29    30   ar
     4    30    31   ar
     5    31    32   ar
     6    32    33   ar
     7    33    34   ar
     8    34    35    1
     9    34    36   ar
    10    36    37   ar
    11    37    38   ar
    12    38    25    1
    13    25    26    2
    14    25    27   am
    15    27    24    1
    16    24     1    1
    17     1     2   ar
    18     2     3   ar
    19     3     4   ar
    20     4     7    1
    21     7     8    1
    22     8     9    1
    23     9    10    1
    24    10    13    1
    25    13    14   ar
    26    14    15   ar
    27    15    16   ar
    28    16    19    1
    29    19    20    1
    30    20    21    1
    31    20    22    1
    32    20    23    1
    33    16    17   ar
    34    17    18   ar
    35    10    11    1
    36    11    12    1
    37     4     5   ar
    38     5     6   ar
    39    38    29   ar
    40     6     1   ar
    41    37    31   ar
    42    12     7    1
    43    18    13   ar
    44    27    28    1
@<TRIPOS>MOLECULE
*****
 40 44 0 0 0
SMALL
GASTEIGER

@<TRIPOS>ATOM
      1 C           0.8242    1.4903   24.4746 C.ar    1  UNL1       -0.0025
      2 C          -0.3819    1.5549   25.3639 C.ar    1  UNL1       -0.0014
      3 C          -0.2184    1.8166   26.8318 C.ar    1  UNL1        0.0142
      4 C           1.1515    2.0137   27.4104 C.ar    1  UNL1        0.0478
      5 C           2.3576    1.9491   26.5211 C.ar    1  UNL1        0.0142
      6 C           2.1940    1.6874   25.0532 C.ar    1  UNL1       -0.0014
      7 N           1.3150    2.2755   28.8783 N.pl3   1  UNL1       -0.3075
      8 C           1.9615    1.2453   29.7563 C.3     1  UNL1        0.0911
      9 C           2.1251    1.5071   31.2242 C.3     1  UNL1        0.0258
     10 C           1.6422    2.7989   31.8141 C.3     1  UNL1        0.0257
     11 C           0.9958    3.8290   30.9361 C.3     1  UNL1        0.0258
     12 C           0.8322    3.5673   29.4682 C.3     1  UNL1        0.0911
     13 C           1.8058    3.0606   33.2820 C.ar    1  UNL1       -0.0222
     14 C           2.4983    2.0530   34.1509 C.ar    1  UNL1       -0.0012
     15 C           2.6619    2.3147   35.6188 C.ar    1  UNL1        0.0369
     16 C           2.1330    3.5841   36.2178 C.ar    1  UNL1        0.1468
     17 C           1.4405    4.5918   35.3489 C.ar    1  UNL1        0.0369
     18 C           1.2769    4.3300   33.8810 C.ar    1  UNL1       -0.0012
     19 O           2.2966    3.8459   37.6857 O.3     1  UNL1       -0.4045
     20 C           1.8988    2.7985   38.6832 C.3     1  UNL1        0.5753
     21 F           1.5011    1.7512   39.6806 F       1  UNL1       -0.1328
     22 F           3.3428    2.4532   38.8964 F       1  UNL1       -0.1328
     23 F           0.4548    3.1439   38.4700 F       1  UNL1       -0.1328
     24 C           0.6606    1.2286   23.0067 C.3     1  UNL1        0.1166
     25 C           1.7395    0.3939   20.7955 C.2     1  UNL1        0.2635
     26 O           0.3995   -0.0880   20.3237 O.2     1  UNL1       -0.2685
     27 N           1.8699    1.0521   22.1369 N.am    1  UNL1       -0.2957
     28 H           2.7493    1.3684   22.4466 H       1  UNL1        0.1501
     29 C           3.7608    1.3186   19.3109 C.ar    1  UNL1        0.0811
     30 N           4.8723    0.6906   18.5233 N.ar    1  UNL1       -0.2306
     31 C           4.7471   -0.7987   18.6515 C.ar    1  UNL1        0.1475
     32 C           5.5621   -1.9263   18.0909 C.ar    1  UNL1        0.0383
     33 C           5.1882   -3.3463   18.3970 C.ar    1  UNL1        0.0160
     34 C           3.9994   -3.6387   19.2638 C.ar    1  UNL1        0.0753
     35 CL          3.6256   -5.0588   19.5699 Cl      1  UNL1       -0.0807
     36 C           3.1845   -2.5111   19.8244 C.ar    1  UNL1        0.0929
     37 N           3.5583   -1.0911   19.5182 N.ar    1  UNL1       -0.2845
     38 C           2.9488    0.2175   19.9258 C.ar    1  UNL1        0.1326
     39 C           2.6528    3.5069   18.4542 C.3     1  UNL1        0.0067
     40 C           3.5061    2.7895   19.4578 C.3     1  UNL1        0.0475
@<TRIPOS>BOND
     1    39    40    1
     2    40    29    1
     3    29    30   ar
     4    30    31   ar
     5    31    32   ar
     6    32    33   ar
     7    33    34   ar
     8    34    35    1
     9    34    36   ar
    10    36    37   ar
    11    37    38   ar
    12    38    25    1
    13    25    26    2
    14    25    27   am
    15    27    24    1
    16    24     1    1
    17     1     2   ar
    18     2     3   ar
    19     3     4   ar
    20     4     7    1
    21     7     8    1
    22     8     9    1
    23     9    10    1
    24    10    13    1
    25    13    14   ar
    26    14    15   ar
    27    15    16   ar
    28    16    19    1
    29    19    20    1
    30    20    21    1
    31    20    22    1
    32    20    23    1
    33    16    17   ar
    34    17    18   ar
    35    10    11    1
    36    11    12    1
    37     4     5   ar
    38     5     6   ar
    39    38    29   ar
    40     6     1   ar
    41    37    31   ar
    42    12     7    1
    43    18    13   ar
    44    27    28    1
@<TRIPOS>MOLECULE
*****
 40 44 0 0 0
SMALL
GASTEIGER

@<TRIPOS>ATOM
      1 C           5.7906   -2.6144   25.4552 C.ar    1  UNL1       -0.0025
      2 C           6.5741   -3.2004   26.5921 C.ar    1  UNL1       -0.0014
      3 C           6.3225   -2.7342   27.9954 C.ar    1  UNL1        0.0142
      4 C           5.2873   -1.6818   28.2618 C.ar    1  UNL1        0.0478
      5 C           4.5038   -1.0958   27.1249 C.ar    1  UNL1        0.0142
      6 C           4.7554   -1.5620   25.7216 C.ar    1  UNL1       -0.0014
      7 N           5.0356   -1.2155   29.6651 N.pl3   1  UNL1       -0.3075
      8 C           5.8014   -1.8195   30.8048 C.3     1  UNL1        0.0911
      9 C           5.5498   -1.3532   32.2081 C.3     1  UNL1        0.0258
     10 C           4.5324   -0.2830   32.4717 C.3     1  UNL1        0.0257
     11 C           3.7666    0.3210   31.3321 C.3     1  UNL1        0.0258
     12 C           4.0183   -0.1453   29.9288 C.3     1  UNL1        0.0911
     13 C           4.2808    0.1833   33.8750 C.ar    1  UNL1       -0.0222
     14 C           3.4458    1.4048   34.1211 C.ar    1  UNL1       -0.0012
     15 C           3.1942    1.8711   35.5244 C.ar    1  UNL1        0.0369
     16 C           3.7775    1.1158   36.6817 C.ar    1  UNL1        0.1468
     17 C           4.6125   -0.1058   36.4356 C.ar    1  UNL1        0.0369
     18 C           4.8641   -0.5720   35.0323 C.ar    1  UNL1       -0.0012
     19 O           3.5259    1.5821   38.0850 O.3     1  UNL1       -0.4045
     20 C           2.1742    2.1060   38.4702 C.3     1  UNL1        0.5753
     21 F           0.8225    2.6300   38.8554 F       1  UNL1       -0.1328
     22 F           2.7035    3.5086   38.4196 F       1  UNL1       -0.1328
     23 F           1.6449    0.7034   38.5208 F       1  UNL1       -0.1328
     24 C           6.0422   -3.0807   24.0519 C.3     1  UNL1        0.1166
     25 C           4.5497   -3.0021   21.9268 C.2     1  UNL1        0.2635
     26 O           4.2024   -4.4489   22.1173 O.2     1  UNL1       -0.2685
     27 N           5.4695   -2.3180   22.8941 N.am    1  UNL1       -0.2957
     28 H           5.6975   -1.3685   22.7691 H       1  UNL1        0.1501
     29 C           4.2429   -2.5091   19.3176 C.ar    1  UNL1        0.0811
     30 N           3.4681   -1.5095   18.5110 N.ar    1  UNL1       -0.2306
     31 C           2.7233   -0.6222   19.4639 C.ar    1  UNL1        0.1475
     32 C           1.7994    0.5383   19.2411 C.ar    1  UNL1        0.0383
     33 C           1.1901    1.2477   20.4139 C.ar    1  UNL1        0.0160
     34 C           1.5046    0.7965   21.8094 C.ar    1  UNL1        0.0753
     35 CL          0.8952    1.5060   22.9822 Cl      1  UNL1       -0.0807
     36 C           2.4285   -0.3639   22.0322 C.ar    1  UNL1        0.0929
     37 N           3.0379   -1.0733   20.8594 N.ar    1  UNL1       -0.2845
     38 C           3.9770   -2.2394   20.7690 C.ar    1  UNL1        0.1326
     39 C           4.6528   -5.0112   18.7508 C.3     1  UNL1        0.0067
     40 C           5.1281   -3.5886   18.7691 C.3     1  UNL1        0.0475
@<TRIPOS>BOND
     1    39    40    1
     2    40    29    1
     3    29    30   ar
     4    30    31   ar
     5    31    32   ar
     6    32    33   ar
     7    33    34   ar
     8    34    35    1
     9    34    36   ar
    10    36    37   ar
    11    37    38   ar
    12    38    25    1
    13    25    26    2
    14    25    27   am
    15    27    24    1
    16    24     1    1
    17     1     2   ar
    18     2     3   ar
    19     3     4   ar
    20     4     7    1
    21     7     8    1
    22     8     9    1
    23     9    10    1
    24    10    13    1
    25    13    14   ar
    26    14    15   ar
    27    15    16   ar
    28    16    19    1
    29    19    20    1
    30    20    21    1
    31    20    22    1
    32    20    23    1
    33    16    17   ar
    34    17    18   ar
    35    10    11    1
    36    11    12    1
    37     4     5   ar
    38     5     6   ar
    39    38    29   ar
    40     6     1   ar
    41    37    31   ar
    42    12     7    1
    43    18    13   ar
    44    27    28    1
