@<TRIPOS>MOLECULE
*****
 30 33 0 0 0
SMALL
GASTEIGER

@<TRIPOS>ATOM
      1 C          -9.2682  -19.4284   21.8067 C.ar    1  UNL1        0.2172
      2 N          -8.2821  -20.0207   22.7694 N.ar    1  UNL1       -0.2126
      3 C          -6.9444  -20.4897   22.2791 C.ar    1  UNL1        0.0994
      4 C          -6.5927  -20.3665   20.8262 C.ar    1  UNL1        0.0207
      5 C          -7.5788  -19.7742   19.8634 C.ar    1  UNL1        0.0994
      6 N          -8.9165  -19.3052   20.3537 N.ar    1  UNL1       -0.2126
      7 N         -10.6059  -18.9593   22.2969 N.pl3   1  UNL1       -0.2989
      8 H         -11.4282  -19.3966   21.9776 H       1  UNL1        0.1500
      9 C         -10.6910  -17.8240   23.2736 C.3     1  UNL1        0.1212
     10 C          -9.0254  -16.1212   22.2364 C.ar    1  UNL1        0.2225
     11 N          -7.8715  -15.1750   22.3890 N.ar    1  UNL1       -0.2080
     12 C          -7.2294  -14.9855   23.7313 C.ar    1  UNL1        0.1316
     13 C          -7.7412  -15.7421   24.9211 C.ar    1  UNL1        0.1592
     14 F          -7.0991  -15.5526   26.2634 F       1  UNL1       -0.2025
     15 C          -8.8951  -16.6883   24.7685 C.ar    1  UNL1        0.0333
     16 C          -9.5372  -16.8778   23.4261 C.ar    1  UNL1        0.0529
     17 C         -11.0052  -15.6952   20.6089 C.3     1  UNL1        0.2542
     18 O          -9.6674  -16.3107   20.8941 O.3     1  UNL1       -0.4563
     19 C          -5.2549  -20.8356   20.3359 C.3     1  UNL1        0.0575
     20 C          -4.1278  -19.8579   20.1810 C.ar    1  UNL1        0.0044
     21 C          -3.1997  -19.7612   19.0067 C.ar    1  UNL1        0.0966
     22 N          -2.2294  -18.6488   19.2732 N.ar    1  UNL1       -0.2273
     23 C          -2.5578  -18.0581   20.6123 C.ar    1  UNL1        0.1402
     24 N          -1.9401  -16.9362   21.3932 N.ar    1  UNL1       -0.3377
     25 C          -2.4957  -16.5617   22.7352 C.ar    1  UNL1        0.0691
     26 C          -3.6691  -17.3090   23.2963 C.ar    1  UNL1       -0.0047
     27 C          -4.2247  -16.9345   24.6384 C.3     1  UNL1        0.0326
     28 C          -4.2868  -18.4309   22.5154 C.ar    1  UNL1       -0.0001
     29 C          -3.7312  -18.8054   21.1734 C.ar    1  UNL1        0.0315
     30 H          -1.1700  -16.4458   21.0250 H       1  UNL1        0.1674
@<TRIPOS>BOND
     1    17    18    1
     2    18    10    1
     3    10    11   ar
     4    11    12   ar
     5    12    13   ar
     6    13    14    1
     7    13    15   ar
     8    15    16   ar
     9    16     9    1
    10     9     7    1
    11     7     1    1
    12     1     2   ar
    13     2     3   ar
    14     3     4   ar
    15     4    19    1
    16    19    20    1
    17    20    21   ar
    18    21    22   ar
    19    22    23   ar
    20    23    24   ar
    21    24    25   ar
    22    25    26   ar
    23    26    27    1
    24    26    28   ar
    25    28    29   ar
    26     4     5   ar
    27     5     6   ar
    28    16    10   ar
    29     6     1   ar
    30    29    20   ar
    31    29    23    1
    32     7     8    1
    33    24    30    1
@<TRIPOS>MOLECULE
*****
 30 33 0 0 0
SMALL
GASTEIGER

@<TRIPOS>ATOM
      1 C          -8.0558  -15.8832   24.0930 C.ar    1  UNL1        0.2172
      2 N          -7.5887  -16.9416   23.1381 N.ar    1  UNL1       -0.2126
      3 C          -6.1311  -17.2853   23.0541 C.ar    1  UNL1        0.0994
      4 C          -5.1405  -16.5707   23.9248 C.ar    1  UNL1        0.0207
      5 C          -5.6076  -15.5123   24.8796 C.ar    1  UNL1        0.0994
      6 N          -7.0653  -15.1686   24.9637 N.ar    1  UNL1       -0.2126
      7 N          -9.5135  -15.5395   24.1771 N.pl3   1  UNL1       -0.2989
      8 H          -9.7907  -14.6265   24.4196 H       1  UNL1        0.1500
      9 C         -10.5488  -16.5868   23.8916 C.3     1  UNL1        0.1212
     10 C         -10.9014  -18.4701   22.1370 C.ar    1  UNL1        0.2225
     11 N         -11.1682  -18.8952   20.7235 N.ar    1  UNL1       -0.2080
     12 C         -11.3493  -17.8621   19.6511 C.ar    1  UNL1        0.1316
     13 C         -11.2635  -16.4040   19.9922 C.ar    1  UNL1        0.1592
     14 F         -11.4446  -15.3710   18.9198 F       1  UNL1       -0.2025
     15 C         -10.9967  -15.9789   21.4058 C.ar    1  UNL1        0.0333
     16 C         -10.8156  -17.0119   22.4781 C.ar    1  UNL1        0.0529
     17 C          -9.3604  -20.0772   23.4759 C.3     1  UNL1        0.2542
     18 O         -10.7203  -19.5032   23.2094 O.3     1  UNL1       -0.4563
     19 C          -3.6828  -16.9144   23.8407 C.3     1  UNL1        0.0575
     20 C          -3.0350  -17.1128   22.5024 C.ar    1  UNL1        0.0044
     21 C          -1.9382  -16.2713   21.9204 C.ar    1  UNL1        0.0966
     22 N          -1.5956  -16.8260   20.5695 N.ar    1  UNL1       -0.2273
     23 C          -2.4808  -18.0103   20.3166 C.ar    1  UNL1        0.1402
     24 N          -2.5917  -18.9502   19.1529 N.ar    1  UNL1       -0.3377
     25 C          -3.5922  -20.0673   19.1838 C.ar    1  UNL1        0.0691
     26 C          -4.4817  -20.2446   20.3785 C.ar    1  UNL1       -0.0047
     27 C          -5.4823  -21.3618   20.4094 C.3     1  UNL1        0.0326
     28 C          -4.3709  -19.3047   21.5422 C.ar    1  UNL1       -0.0001
     29 C          -3.3704  -18.1876   21.5112 C.ar    1  UNL1        0.0315
     30 H          -2.0078  -18.8338   18.3688 H       1  UNL1        0.1674
@<TRIPOS>BOND
     1    17    18    1
     2    18    10    1
     3    10    11   ar
     4    11    12   ar
     5    12    13   ar
     6    13    14    1
     7    13    15   ar
     8    15    16   ar
     9    16     9    1
    10     9     7    1
    11     7     1    1
    12     1     2   ar
    13     2     3   ar
    14     3     4   ar
    15     4    19    1
    16    19    20    1
    17    20    21   ar
    18    21    22   ar
    19    22    23   ar
    20    23    24   ar
    21    24    25   ar
    22    25    26   ar
    23    26    27    1
    24    26    28   ar
    25    28    29   ar
    26     4     5   ar
    27     5     6   ar
    28    16    10   ar
    29     6     1   ar
    30    29    20   ar
    31    29    23    1
    32     7     8    1
    33    24    30    1
@<TRIPOS>MOLECULE
*****
 30 33 0 0 0
SMALL
GASTEIGER

@<TRIPOS>ATOM
      1 C          -9.6865  -19.7780   22.2796 C.ar    1  UNL1        0.2172
      2 N          -8.5788  -20.3511   23.1131 N.ar    1  UNL1       -0.2126
      3 C          -7.1877  -20.4326   22.5580 C.ar    1  UNL1        0.0994
      4 C          -6.9042  -19.9410   21.1695 C.ar    1  UNL1        0.0207
      5 C          -8.0119  -19.3678   20.3360 C.ar    1  UNL1        0.0994
      6 N          -9.4030  -19.2864   20.8911 N.ar    1  UNL1       -0.2126
      7 N         -11.0776  -19.6965   22.8347 N.pl3   1  UNL1       -0.2989
      8 H         -11.8190  -20.1512   22.3734 H       1  UNL1        0.1500
      9 C         -11.3392  -18.9222   24.0925 C.3     1  UNL1        0.1212
     10 C         -10.2654  -16.6022   23.6293 C.ar    1  UNL1        0.2225
     11 N          -9.3377  -15.4958   24.0356 N.ar    1  UNL1       -0.2080
     12 C          -8.5561  -15.6029   25.3113 C.ar    1  UNL1        0.1316
     13 C          -8.7022  -16.8164   26.1808 C.ar    1  UNL1        0.1592
     14 F          -7.9205  -16.9234   27.4566 F       1  UNL1       -0.2025
     15 C          -9.6299  -17.9228   25.7745 C.ar    1  UNL1        0.0333
     16 C         -10.4115  -17.8158   24.4987 C.ar    1  UNL1        0.0529
     17 C         -10.4323  -15.8452   21.1496 C.3     1  UNL1        0.2542
     18 O         -11.0470  -16.4952   22.3535 O.3     1  UNL1       -0.4563
     19 C          -5.5130  -20.0225   20.6144 C.3     1  UNL1        0.0575
     20 C          -4.3979  -19.2639   21.2710 C.ar    1  UNL1        0.0044
     21 C          -4.2485  -19.0137   22.7424 C.ar    1  UNL1        0.0966
     22 N          -2.9947  -18.2175   22.9522 N.ar    1  UNL1       -0.2273
     23 C          -2.3692  -17.9755   21.6104 C.ar    1  UNL1        0.1402
     24 N          -1.1221  -17.2500   21.2006 N.ar    1  UNL1       -0.3377
     25 C          -0.7422  -17.1711   19.7516 C.ar    1  UNL1        0.0691
     26 C          -1.6094  -17.8178   18.7126 C.ar    1  UNL1       -0.0047
     27 C          -1.2294  -17.7389   17.2636 C.3     1  UNL1        0.0326
     28 C          -2.8566  -18.5434   19.1225 C.ar    1  UNL1       -0.0001
     29 C          -3.2365  -18.6223   20.5714 C.ar    1  UNL1        0.0315
     30 H          -0.5529  -16.8255   21.8825 H       1  UNL1        0.1674
@<TRIPOS>BOND
     1    17    18    1
     2    18    10    1
     3    10    11   ar
     4    11    12   ar
     5    12    13   ar
     6    13    14    1
     7    13    15   ar
     8    15    16   ar
     9    16     9    1
    10     9     7    1
    11     7     1    1
    12     1     2   ar
    13     2     3   ar
    14     3     4   ar
    15     4    19    1
    16    19    20    1
    17    20    21   ar
    18    21    22   ar
    19    22    23   ar
    20    23    24   ar
    21    24    25   ar
    22    25    26   ar
    23    26    27    1
    24    26    28   ar
    25    28    29   ar
    26     4     5   ar
    27     5     6   ar
    28    16    10   ar
    29     6     1   ar
    30    29    20   ar
    31    29    23    1
    32     7     8    1
    33    24    30    1
@<TRIPOS>MOLECULE
*****
 30 33 0 0 0
SMALL
GASTEIGER

@<TRIPOS>ATOM
      1 C          -9.1728  -19.2597   21.2592 C.ar    1  UNL1        0.2172
      2 N          -8.3016  -19.8755   22.3138 N.ar    1  UNL1       -0.2126
      3 C          -6.9340  -20.3778   21.9573 C.ar    1  UNL1        0.0994
      4 C          -6.4374  -20.2644   20.5465 C.ar    1  UNL1        0.0207
      5 C          -7.3085  -19.6486   19.4920 C.ar    1  UNL1        0.0994
      6 N          -8.6762  -19.1463   19.8484 N.ar    1  UNL1       -0.2126
      7 N         -10.5405  -18.7574   21.6156 N.pl3   1  UNL1       -0.2989
      8 H         -11.3318  -19.3151   21.4367 H       1  UNL1        0.1500
      9 C         -10.7026  -17.4052   22.2445 C.3     1  UNL1        0.1212
     10 C          -9.9851  -17.8390   24.7036 C.ar    1  UNL1        0.2225
     11 N          -9.1641  -17.4660   25.9022 N.ar    1  UNL1       -0.2080
     12 C          -8.2397  -16.2862   25.8405 C.ar    1  UNL1        0.1316
     13 C          -8.1363  -15.4795   24.5802 C.ar    1  UNL1        0.1592
     14 F          -7.2119  -14.2998   24.5186 F       1  UNL1       -0.2025
     15 C          -8.9573  -15.8526   23.3815 C.ar    1  UNL1        0.0333
     16 C          -9.8817  -17.0323   23.4432 C.ar    1  UNL1        0.0529
     17 C         -10.3496  -20.4044   24.8921 C.3     1  UNL1        0.2542
     18 O         -10.9094  -19.0187   24.7652 O.3     1  UNL1       -0.4563
     19 C          -5.0696  -20.7668   20.1901 C.3     1  UNL1        0.0575
     20 C          -3.9220  -19.8066   20.0840 C.ar    1  UNL1        0.0044
     21 C          -2.8818  -19.7918   19.0034 C.ar    1  UNL1        0.0966
     22 N          -1.9302  -18.6687   19.2916 N.ar    1  UNL1       -0.2273
     23 C          -2.3822  -17.9895   20.5503 C.ar    1  UNL1        0.1402
     24 N          -1.8319  -16.8215   21.3137 N.ar    1  UNL1       -0.3377
     25 C          -2.5126  -16.3567   22.5669 C.ar    1  UNL1        0.0691
     26 C          -3.7437  -17.0600   23.0567 C.ar    1  UNL1       -0.0047
     27 C          -4.4245  -16.5952   24.3099 C.3     1  UNL1        0.0326
     28 C          -4.2940  -18.2280   22.2932 C.ar    1  UNL1       -0.0001
     29 C          -3.6133  -18.6928   21.0400 C.ar    1  UNL1        0.0315
     30 H          -1.0239  -16.3599   20.9922 H       1  UNL1        0.1674
@<TRIPOS>BOND
     1    17    18    1
     2    18    10    1
     3    10    11   ar
     4    11    12   ar
     5    12    13   ar
     6    13    14    1
     7    13    15   ar
     8    15    16   ar
     9    16     9    1
    10     9     7    1
    11     7     1    1
    12     1     2   ar
    13     2     3   ar
    14     3     4   ar
    15     4    19    1
    16    19    20    1
    17    20    21   ar
    18    21    22   ar
    19    22    23   ar
    20    23    24   ar
    21    24    25   ar
    22    25    26   ar
    23    26    27    1
    24    26    28   ar
    25    28    29   ar
    26     4     5   ar
    27     5     6   ar
    28    16    10   ar
    29     6     1   ar
    30    29    20   ar
    31    29    23    1
    32     7     8    1
    33    24    30    1
@<TRIPOS>MOLECULE
*****
 30 33 0 0 0
SMALL
GASTEIGER

@<TRIPOS>ATOM
      1 C          -9.6597  -19.8661   22.1143 C.ar    1  UNL1        0.2172
      2 N          -8.5811  -20.2639   23.0778 N.ar    1  UNL1       -0.2126
      3 C          -7.1586  -20.3623   22.6122 C.ar    1  UNL1        0.0994
      4 C          -6.8148  -20.0628   21.1832 C.ar    1  UNL1        0.0207
      5 C          -7.8934  -19.6650   20.2197 C.ar    1  UNL1        0.0994
      6 N          -9.3159  -19.5666   20.6853 N.ar    1  UNL1       -0.2126
      7 N         -11.0823  -19.7677   22.5799 N.pl3   1  UNL1       -0.2989
      8 H         -11.5853  -20.5845   22.8012 H       1  UNL1        0.1500
      9 C         -11.7384  -18.4249   22.7082 C.3     1  UNL1        0.1212
     10 C         -10.0575  -16.4925   22.2719 C.ar    1  UNL1        0.2225
     11 N          -9.5882  -15.3448   21.4279 N.ar    1  UNL1       -0.2080
     12 C         -10.3306  -14.9817   20.1760 C.ar    1  UNL1        0.1316
     13 C         -11.5422  -15.7664   19.7683 C.ar    1  UNL1        0.1592
     14 F         -12.2846  -15.4032   18.5164 F       1  UNL1       -0.2025
     15 C         -12.0115  -16.9141   20.6124 C.ar    1  UNL1        0.0333
     16 C         -11.2691  -17.2772   21.8642 C.ar    1  UNL1        0.0529
     17 C          -8.6421  -15.7871   24.3333 C.3     1  UNL1        0.2542
     18 O          -9.3151  -16.8556   23.5238 O.3     1  UNL1       -0.4563
     19 C          -5.3922  -20.1612   20.7176 C.3     1  UNL1        0.0575
     20 C          -4.3334  -19.3125   21.3569 C.ar    1  UNL1        0.0044
     21 C          -4.2230  -18.9929   22.8183 C.ar    1  UNL1        0.0966
     22 N          -3.0205  -18.1173   23.0117 N.ar    1  UNL1       -0.2273
     23 C          -2.3877  -17.8958   21.6698 C.ar    1  UNL1        0.1402
     24 N          -1.1775  -17.1170   21.2471 N.ar    1  UNL1       -0.3377
     25 C          -0.7788  -17.0768   19.8017 C.ar    1  UNL1        0.0691
     26 C          -1.5902  -17.8155   18.7790 C.ar    1  UNL1       -0.0047
     27 C          -1.1914  -17.7753   17.3335 C.3     1  UNL1        0.0326
     28 C          -2.8004  -18.5944   19.2017 C.ar    1  UNL1       -0.0001
     29 C          -3.1992  -18.6345   20.6471 C.ar    1  UNL1        0.0315
     30 H          -0.6450  -16.6321   21.9183 H       1  UNL1        0.1674
@<TRIPOS>BOND
     1    17    18    1
     2    18    10    1
     3    10    11   ar
     4    11    12   ar
     5    12    13   ar
     6    13    14    1
     7    13    15   ar
     8    15    16   ar
     9    16     9    1
    10     9     7    1
    11     7     1    1
    12     1     2   ar
    13     2     3   ar
    14     3     4   ar
    15     4    19    1
    16    19    20    1
    17    20    21   ar
    18    21    22   ar
    19    22    23   ar
    20    23    24   ar
    21    24    25   ar
    22    25    26   ar
    23    26    27    1
    24    26    28   ar
    25    28    29   ar
    26     4     5   ar
    27     5     6   ar
    28    16    10   ar
    29     6     1   ar
    30    29    20   ar
    31    29    23    1
    32     7     8    1
    33    24    30    1
@<TRIPOS>MOLECULE
*****
 30 33 0 0 0
SMALL
GASTEIGER

@<TRIPOS>ATOM
      1 C          -7.6606  -15.6371   23.9677 C.ar    1  UNL1        0.2172
      2 N          -7.3062  -16.8537   23.1649 N.ar    1  UNL1       -0.2126
      3 C          -5.8784  -17.3051   23.0781 C.ar    1  UNL1        0.0994
      4 C          -4.8050  -16.5401   23.7940 C.ar    1  UNL1        0.0207
      5 C          -5.1594  -15.3235   24.5967 C.ar    1  UNL1        0.0994
      6 N          -6.5872  -14.8720   24.6835 N.ar    1  UNL1       -0.2126
      7 N          -9.0883  -15.1856   24.0545 N.pl3   1  UNL1       -0.2989
      8 H          -9.3318  -14.2693   23.7894 H       1  UNL1        0.1500
      9 C         -10.1452  -16.1301   24.5453 C.3     1  UNL1        0.1212
     10 C         -10.8813  -17.5957   22.5303 C.ar    1  UNL1        0.2225
     11 N         -11.0360  -18.9448   21.8932 N.ar    1  UNL1       -0.2080
     12 C         -10.6092  -20.1774   22.6339 C.ar    1  UNL1        0.1316
     13 C         -10.0278  -20.0609   24.0117 C.ar    1  UNL1        0.1592
     14 F          -9.6011  -21.2936   24.7524 F       1  UNL1       -0.2025
     15 C          -9.8732  -18.7118   24.6488 C.ar    1  UNL1        0.0333
     16 C         -10.2999  -17.4792   23.9082 C.ar    1  UNL1        0.0529
     17 C         -11.3159  -16.3544   20.2898 C.3     1  UNL1        0.2542
     18 O         -11.3081  -16.3631   21.7896 O.3     1  UNL1       -0.4563
     19 C          -3.3771  -16.9916   23.7072 C.3     1  UNL1        0.0575
     20 C          -2.7244  -17.1615   22.3673 C.ar    1  UNL1        0.0044
     21 C          -1.6280  -16.3057   21.8058 C.ar    1  UNL1        0.0966
     22 N          -1.2796  -16.8324   20.4453 N.ar    1  UNL1       -0.2273
     23 C          -2.1606  -18.0138   20.1659 C.ar    1  UNL1        0.1402
     24 N          -2.2652  -18.9305   18.9833 N.ar    1  UNL1       -0.3377
     25 C          -3.2627  -20.0507   18.9887 C.ar    1  UNL1        0.0691
     26 C          -4.1557  -20.2541   20.1766 C.ar    1  UNL1       -0.0047
     27 C          -5.1533  -21.3744   20.1819 C.3     1  UNL1        0.0326
     28 C          -4.0512  -19.3374   21.3592 C.ar    1  UNL1       -0.0001
     29 C          -3.0536  -18.2172   21.3538 C.ar    1  UNL1        0.0315
     30 H          -1.6791  -18.7970   18.2036 H       1  UNL1        0.1674
@<TRIPOS>BOND
     1    17    18    1
     2    18    10    1
     3    10    11   ar
     4    11    12   ar
     5    12    13   ar
     6    13    14    1
     7    13    15   ar
     8    15    16   ar
     9    16     9    1
    10     9     7    1
    11     7     1    1
    12     1     2   ar
    13     2     3   ar
    14     3     4   ar
    15     4    19    1
    16    19    20    1
    17    20    21   ar
    18    21    22   ar
    19    22    23   ar
    20    23    24   ar
    21    24    25   ar
    22    25    26   ar
    23    26    27    1
    24    26    28   ar
    25    28    29   ar
    26     4     5   ar
    27     5     6   ar
    28    16    10   ar
    29     6     1   ar
    30    29    20   ar
    31    29    23    1
    32     7     8    1
    33    24    30    1
@<TRIPOS>MOLECULE
*****
 30 33 0 0 0
SMALL
GASTEIGER

@<TRIPOS>ATOM
      1 C          -9.2760  -19.1135   20.7443 C.ar    1  UNL1        0.2172
      2 N          -8.6136  -19.6580   21.9751 N.ar    1  UNL1       -0.2126
      3 C          -7.1898  -20.1261   21.9156 C.ar    1  UNL1        0.0994
      4 C          -6.4284  -20.0498   20.6255 C.ar    1  UNL1        0.0207
      5 C          -7.0908  -19.5053   19.3947 C.ar    1  UNL1        0.0994
      6 N          -8.5146  -19.0372   19.4542 N.ar    1  UNL1       -0.2126
      7 N         -10.6998  -18.6454   20.8036 N.pl3   1  UNL1       -0.2989
      8 H         -11.3921  -19.1070   20.2774 H       1  UNL1        0.1500
      9 C         -11.0690  -17.4739   21.6647 C.3     1  UNL1        0.1212
     10 C         -10.1829  -17.3538   24.1040 C.ar    1  UNL1        0.2225
     11 N          -9.2014  -16.8197   25.1047 N.ar    1  UNL1       -0.2080
     12 C          -8.1246  -15.8717   24.6668 C.ar    1  UNL1        0.1316
     13 C          -8.0292  -15.4578   23.2282 C.ar    1  UNL1        0.1592
     14 F          -6.9524  -14.5098   22.7904 F       1  UNL1       -0.2025
     15 C          -9.0107  -15.9919   22.2275 C.ar    1  UNL1        0.0333
     16 C         -10.0876  -16.9399   22.6654 C.ar    1  UNL1        0.0529
     17 C         -10.9625  -19.7661   24.6720 C.3     1  UNL1        0.2542
     18 O         -11.2598  -18.3017   24.5420 O.3     1  UNL1       -0.4563
     19 C          -5.0045  -20.5179   20.5662 C.3     1  UNL1        0.0575
     20 C          -3.9148  -19.6838   21.1720 C.ar    1  UNL1        0.0044
     21 C          -3.6744  -19.4772   22.6381 C.ar    1  UNL1        0.0966
     22 N          -2.4854  -18.5756   22.7902 N.ar    1  UNL1       -0.2273
     23 C          -1.9909  -18.2249   21.4182 C.ar    1  UNL1        0.1402
     24 N          -0.8503  -17.3705   20.9503 N.ar    1  UNL1       -0.3377
     25 C          -0.5932  -17.2010   19.4823 C.ar    1  UNL1        0.0691
     26 C          -1.4767  -17.8859   18.4821 C.ar    1  UNL1       -0.0047
     27 C          -1.2196  -17.7164   17.0140 C.3     1  UNL1        0.0326
     28 C          -2.6173  -18.7404   18.9500 C.ar    1  UNL1       -0.0001
     29 C          -2.8744  -18.9099   20.4180 C.ar    1  UNL1        0.0315
     30 H          -0.2704  -16.9209   21.6067 H       1  UNL1        0.1674
@<TRIPOS>BOND
     1    17    18    1
     2    18    10    1
     3    10    11   ar
     4    11    12   ar
     5    12    13   ar
     6    13    14    1
     7    13    15   ar
     8    15    16   ar
     9    16     9    1
    10     9     7    1
    11     7     1    1
    12     1     2   ar
    13     2     3   ar
    14     3     4   ar
    15     4    19    1
    16    19    20    1
    17    20    21   ar
    18    21    22   ar
    19    22    23   ar
    20    23    24   ar
    21    24    25   ar
    22    25    26   ar
    23    26    27    1
    24    26    28   ar
    25    28    29   ar
    26     4     5   ar
    27     5     6   ar
    28    16    10   ar
    29     6     1   ar
    30    29    20   ar
    31    29    23    1
    32     7     8    1
    33    24    30    1
@<TRIPOS>MOLECULE
*****
 30 33 0 0 0
SMALL
GASTEIGER

@<TRIPOS>ATOM
      1 C           6.2748   -2.8775   24.6807 C.ar    1  UNL1        0.2172
      2 N           7.0611   -3.7154   23.7166 N.ar    1  UNL1       -0.2126
      3 C           6.4703   -4.0837   22.3880 C.ar    1  UNL1        0.0994
      4 C           5.0931   -3.6141   22.0235 C.ar    1  UNL1        0.0207
      5 C           4.3068   -2.7761   22.9876 C.ar    1  UNL1        0.0994
      6 N           4.8976   -2.4079   24.3162 N.ar    1  UNL1       -0.2126
      7 N           6.8656   -2.5092   26.0093 N.pl3   1  UNL1       -0.2989
      8 H           7.8170   -2.2646   26.0742 H       1  UNL1        0.1500
      9 C           6.0068   -2.5136   27.2392 C.3     1  UNL1        0.1212
     10 C           6.5570   -4.8882   28.1383 C.ar    1  UNL1        0.2225
     11 N           6.8903   -5.7990   29.2825 N.ar    1  UNL1       -0.2080
     12 C           7.0068   -5.2459   30.6720 C.ar    1  UNL1        0.1316
     13 C           6.7899   -3.7821   30.9171 C.ar    1  UNL1        0.1592
     14 F           6.9064   -3.2291   32.3067 F       1  UNL1       -0.2025
     15 C           6.4566   -2.8713   29.7729 C.ar    1  UNL1        0.0333
     16 C           6.3401   -3.4244   28.3834 C.ar    1  UNL1        0.0529
     17 C           7.0867   -6.7508   26.4062 C.3     1  UNL1        0.2542
     18 O           6.4405   -5.4413   26.7488 O.3     1  UNL1       -0.4563
     19 C           4.5023   -3.9824   20.6947 C.3     1  UNL1        0.0575
     20 C           4.5325   -2.9994   19.5621 C.ar    1  UNL1        0.0044
     21 C           5.5393   -2.9655   18.4507 C.ar    1  UNL1        0.0966
     22 N           5.1902   -1.8229   17.5438 N.ar    1  UNL1       -0.2273
     23 C           3.9676   -1.1506   18.0946 C.ar    1  UNL1        0.1402
     24 N           3.1721    0.0297   17.6215 N.ar    1  UNL1       -0.3377
     25 C           1.9700    0.4828   18.3959 C.ar    1  UNL1        0.0691
     26 C           1.5635   -0.2443   19.6433 C.ar    1  UNL1       -0.0047
     27 C           0.3613    0.2089   20.4176 C.3     1  UNL1        0.0326
     28 C           2.3591   -1.4246   20.1164 C.ar    1  UNL1       -0.0001
     29 C           3.5612   -1.8778   19.3421 C.ar    1  UNL1        0.0315
     30 H           3.4389    0.5069   16.8028 H       1  UNL1        0.1674
@<TRIPOS>BOND
     1    17    18    1
     2    18    10    1
     3    10    11   ar
     4    11    12   ar
     5    12    13   ar
     6    13    14    1
     7    13    15   ar
     8    15    16   ar
     9    16     9    1
    10     9     7    1
    11     7     1    1
    12     1     2   ar
    13     2     3   ar
    14     3     4   ar
    15     4    19    1
    16    19    20    1
    17    20    21   ar
    18    21    22   ar
    19    22    23   ar
    20    23    24   ar
    21    24    25   ar
    22    25    26   ar
    23    26    27    1
    24    26    28   ar
    25    28    29   ar
    26     4     5   ar
    27     5     6   ar
    28    16    10   ar
    29     6     1   ar
    30    29    20   ar
    31    29    23    1
    32     7     8    1
    33    24    30    1
@<TRIPOS>MOLECULE
*****
 30 33 0 0 0
SMALL
GASTEIGER

@<TRIPOS>ATOM
      1 C          -0.3867    2.0899   20.4254 C.ar    1  UNL1        0.2172
      2 N          -0.0010    0.6566   20.6419 N.ar    1  UNL1       -0.2126
      3 C           1.0488    0.0238   19.7773 C.ar    1  UNL1        0.0994
      4 C           1.7129    0.8242   18.6964 C.ar    1  UNL1        0.0207
      5 C           1.3271    2.2575   18.4800 C.ar    1  UNL1        0.0994
      6 N           0.2774    2.8903   19.3445 N.ar    1  UNL1       -0.2126
      7 N          -1.4365    2.7229   21.2899 N.pl3   1  UNL1       -0.2989
      8 H          -1.6905    2.3026   22.1432 H       1  UNL1        0.1500
      9 C          -2.0993    3.9961   20.8544 C.3     1  UNL1        0.1212
     10 C          -4.5687    3.2730   20.4947 C.ar    1  UNL1        0.2225
     11 N          -5.7953    3.2232   19.6328 N.ar    1  UNL1       -0.2080
     12 C          -5.7791    3.8468   18.2686 C.ar    1  UNL1        0.1316
     13 C          -4.5364    4.5201   17.7664 C.ar    1  UNL1        0.1592
     14 F          -4.5203    5.1436   16.4022 F       1  UNL1       -0.2025
     15 C          -3.3098    4.5698   18.6283 C.ar    1  UNL1        0.0333
     16 C          -3.3259    3.9463   19.9925 C.ar    1  UNL1        0.0529
     17 C          -5.3227    3.3182   22.9806 C.3     1  UNL1        0.2542
     18 O          -4.5848    2.6495   21.8589 O.3     1  UNL1       -0.4563
     19 C           2.7627    0.1912   17.8319 C.3     1  UNL1        0.0575
     20 C           4.0848   -0.2002   18.4226 C.ar    1  UNL1        0.0044
     21 C           5.2803    0.6924   18.5772 C.ar    1  UNL1        0.0966
     22 N           6.3778   -0.1087   19.2126 N.ar    1  UNL1       -0.2273
     23 C           5.8606   -1.4965   19.4506 C.ar    1  UNL1        0.1402
     24 N           6.4970   -2.7159   20.0488 N.ar    1  UNL1       -0.3377
     25 C           5.7162   -3.9919   20.1587 C.ar    1  UNL1        0.0691
     26 C           4.2990   -4.0485   19.6705 C.ar    1  UNL1       -0.0047
     27 C           3.5182   -5.3246   19.7805 C.3     1  UNL1        0.0326
     28 C           3.6626   -2.8290   19.0723 C.ar    1  UNL1       -0.0001
     29 C           4.4434   -1.5530   18.9623 C.ar    1  UNL1        0.0315
     30 H           7.4271   -2.6788   20.3692 H       1  UNL1        0.1674
@<TRIPOS>BOND
     1    17    18    1
     2    18    10    1
     3    10    11   ar
     4    11    12   ar
     5    12    13   ar
     6    13    14    1
     7    13    15   ar
     8    15    16   ar
     9    16     9    1
    10     9     7    1
    11     7     1    1
    12     1     2   ar
    13     2     3   ar
    14     3     4   ar
    15     4    19    1
    16    19    20    1
    17    20    21   ar
    18    21    22   ar
    19    22    23   ar
    20    23    24   ar
    21    24    25   ar
    22    25    26   ar
    23    26    27    1
    24    26    28   ar
    25    28    29   ar
    26     4     5   ar
    27     5     6   ar
    28    16    10   ar
    29     6     1   ar
    30    29    20   ar
    31    29    23    1
    32     7     8    1
    33    24    30    1
