@<TRIPOS>MOLECULE
*****
 30 34 0 0 0
SMALL
GASTEIGER

@<TRIPOS>ATOM
      1 C           7.2792   -5.7058   31.0994 C.3     1  UNL1        0.0899
      2 N           7.6570   -5.9996   29.6778 N.3     1  UNL1       -0.2673
      3 C           8.4823   -7.2100   29.3559 C.3     1  UNL1        0.0787
      4 C           8.8601   -7.5037   27.9343 C.3     1  UNL1        0.0608
      5 C           8.4125   -6.5871   26.8346 C.ar    1  UNL1        0.0358
      6 C           7.5872   -5.3767   27.1565 C.ar    1  UNL1        0.0070
      7 C           7.2938   -4.6605   25.8715 C.ar    1  UNL1        0.0143
      8 C           6.5234   -3.4085   25.5735 C.ar    1  UNL1        0.0027
      9 C           6.3971   -2.9243   24.1595 C.ar    1  UNL1        0.0177
     10 C           7.0411   -3.6922   23.0434 C.ar    1  UNL1        0.0683
     11 C           7.8115   -4.9443   23.3414 C.ar    1  UNL1        0.0348
     12 C           7.9378   -5.4284   24.7555 C.ar    1  UNL1        0.0609
     13 N           8.6292   -6.6191   25.3507 N.ar    1  UNL1       -0.3288
     14 C           9.4017   -7.6591   24.5947 C.3     1  UNL1        0.1301
     15 C           7.2094   -5.0829   28.5781 C.3     1  UNL1        0.1003
     16 N           6.9148   -3.2080   21.6293 N.ar    1  UNL1       -0.2729
     17 C           7.9474   -2.2816   21.0586 C.ar    1  UNL1        0.0860
     18 C           7.8211   -1.7975   19.6446 C.ar    1  UNL1        0.0561
     19 C           6.6621   -2.2396   18.8012 C.ar    1  UNL1        0.1453
     20 C           5.6295   -3.1659   19.3718 C.ar    1  UNL1        0.0980
     21 C           5.7558   -3.6501   20.7859 C.ar    1  UNL1        0.2679
     22 O           4.7232   -4.5764   21.3565 O.2     1  UNL1       -0.2665
     23 O           6.5359   -1.7554   17.3871 O.3     1  UNL1       -0.4704
     24 C           6.2747   -0.3042   17.1117 C.3     1  UNL1        0.2320
     25 C           5.0400    0.3520   17.6547 C.ar    1  UNL1        0.0212
     26 C           5.1260    1.7152   18.2747 C.ar    1  UNL1       -0.0007
     27 C           3.8913    2.3713   18.8177 C.ar    1  UNL1       -0.0002
     28 C           2.5706    1.6644   18.7406 C.ar    1  UNL1       -0.0000
     29 C           2.4846    0.3014   18.1206 C.ar    1  UNL1       -0.0002
     30 C           3.7193   -0.3549   17.5776 C.ar    1  UNL1       -0.0007
@<TRIPOS>BOND
     1     1     2    1
     2     2     3    1
     3     3     4    1
     4     4     5    1
     5     5     6   ar
     6     6     7   ar
     7     7     8   ar
     8     8     9   ar
     9     9    10   ar
    10    10    16    1
    11    16    17   ar
    12    17    18   ar
    13    18    19   ar
    14    19    23    1
    15    23    24    1
    16    24    25    1
    17    25    26   ar
    18    26    27   ar
    19    27    28   ar
    20    28    29   ar
    21    29    30   ar
    22    19    20   ar
    23    20    21   ar
    24    21    22    2
    25    10    11   ar
    26    11    12   ar
    27    12    13   ar
    28    13    14    1
    29     6    15    1
    30    15     2    1
    31    13     5   ar
    32    12     7   ar
    33    21    16   ar
    34    30    25   ar
@<TRIPOS>MOLECULE
*****
 30 34 0 0 0
SMALL
GASTEIGER

@<TRIPOS>ATOM
      1 C           4.3401    2.1577   38.5226 C.3     1  UNL1        0.0899
      2 N           4.3455    1.4733   37.1878 N.3     1  UNL1       -0.2673
      3 C           5.1941    0.2553   36.9729 C.3     1  UNL1        0.0787
      4 C           5.1994   -0.4291   35.6382 C.3     1  UNL1        0.0608
      5 C           4.3562    0.1045   34.5183 C.ar    1  UNL1        0.0358
      6 C           3.5077    1.3226   34.7332 C.ar    1  UNL1        0.0070
      7 C           2.7853    1.6163   33.4517 C.ar    1  UNL1        0.0143
      8 C           1.8134    2.6937   33.0716 C.ar    1  UNL1        0.0027
      9 C           1.2436    2.7345   31.6847 C.ar    1  UNL1        0.0177
     10 C           1.6458    1.6979   30.6778 C.ar    1  UNL1        0.0683
     11 C           2.6178    0.6205   31.0580 C.ar    1  UNL1        0.0348
     12 C           3.1875    0.5797   32.4449 C.ar    1  UNL1        0.0609
     13 N           4.1584   -0.3546   33.1041 N.ar    1  UNL1       -0.3288
     14 C           4.8159   -1.5399   32.4618 C.3     1  UNL1        0.1301
     15 C           3.5023    2.0070   36.0679 C.3     1  UNL1        0.1003
     16 N           1.0760    1.7387   29.2908 N.ar    1  UNL1       -0.2729
     17 C           1.8399    2.4056   28.1855 C.ar    1  UNL1        0.0860
     18 C           1.2701    2.4464   26.7986 C.ar    1  UNL1        0.0561
     19 C          -0.0635    1.8202   26.5169 C.ar    1  UNL1        0.1453
     20 C          -0.8274    1.1533   27.6221 C.ar    1  UNL1        0.0980
     21 C          -0.2576    1.1125   29.0091 C.ar    1  UNL1        0.2679
     22 O          -1.0215    0.4456   30.1144 O.2     1  UNL1       -0.2665
     23 O          -0.6333    1.8610   25.1299 O.3     1  UNL1       -0.4704
     24 C          -1.2027    3.1395   24.5902 C.3     1  UNL1        0.2320
     25 C          -2.6246    3.5123   24.8889 C.ar    1  UNL1        0.0212
     26 C          -3.0230    3.8927   26.2842 C.ar    1  UNL1       -0.0007
     27 C          -4.4449    4.2655   26.5828 C.ar    1  UNL1       -0.0002
     28 C          -5.4684    4.2579   25.4863 C.ar    1  UNL1       -0.0000
     29 C          -5.0700    3.8775   24.0911 C.ar    1  UNL1       -0.0002
     30 C          -3.6481    3.5047   23.7924 C.ar    1  UNL1       -0.0007
@<TRIPOS>BOND
     1     1     2    1
     2     2     3    1
     3     3     4    1
     4     4     5    1
     5     5     6   ar
     6     6     7   ar
     7     7     8   ar
     8     8     9   ar
     9     9    10   ar
    10    10    16    1
    11    16    17   ar
    12    17    18   ar
    13    18    19   ar
    14    19    23    1
    15    23    24    1
    16    24    25    1
    17    25    26   ar
    18    26    27   ar
    19    27    28   ar
    20    28    29   ar
    21    29    30   ar
    22    19    20   ar
    23    20    21   ar
    24    21    22    2
    25    10    11   ar
    26    11    12   ar
    27    12    13   ar
    28    13    14    1
    29     6    15    1
    30    15     2    1
    31    13     5   ar
    32    12     7   ar
    33    21    16   ar
    34    30    25   ar
@<TRIPOS>MOLECULE
*****
 30 34 0 0 0
SMALL
GASTEIGER

@<TRIPOS>ATOM
      1 C          -6.8924    5.7713   25.5843 C.3     1  UNL1        0.0899
      2 N          -6.4313    5.2813   24.2437 N.3     1  UNL1       -0.2673
      3 C          -7.3902    5.2362   23.0912 C.3     1  UNL1        0.0787
      4 C          -6.9291    4.7462   21.7506 C.3     1  UNL1        0.0608
      5 C          -5.5091    4.3013   21.5625 C.ar    1  UNL1        0.0358
      6 C          -4.5501    4.3464   22.7150 C.ar    1  UNL1        0.0070
      7 C          -3.2207    3.8470   22.2317 C.ar    1  UNL1        0.0143
      8 C          -1.9030    3.6687   22.9256 C.ar    1  UNL1        0.0027
      9 C          -0.7226    3.1366   22.1683 C.ar    1  UNL1        0.0177
     10 C          -0.8600    2.7828   20.7171 C.ar    1  UNL1        0.0683
     11 C          -2.1778    2.9611   20.0232 C.ar    1  UNL1        0.0348
     12 C          -3.3582    3.4932   20.7805 C.ar    1  UNL1        0.0609
     13 N          -4.7724    3.7740   20.3669 N.ar    1  UNL1       -0.3288
     14 C          -5.3489    3.5643   18.9981 C.3     1  UNL1        0.1301
     15 C          -5.0112    4.8364   24.0556 C.3     1  UNL1        0.1003
     16 N           0.3205    2.2507   19.9598 N.ar    1  UNL1       -0.2729
     17 C           1.2059    3.1893   19.1949 C.ar    1  UNL1        0.0860
     18 C           2.3862    2.6572   18.4376 C.ar    1  UNL1        0.0561
     19 C           2.6812    1.1865   18.4452 C.ar    1  UNL1        0.1453
     20 C           1.7958    0.2480   19.2100 C.ar    1  UNL1        0.0980
     21 C           0.6154    0.7800   19.9673 C.ar    1  UNL1        0.2679
     22 O          -0.2700   -0.1586   20.7322 O.2     1  UNL1       -0.2665
     23 O           3.8616    0.6545   17.6878 O.3     1  UNL1       -0.4704
     24 C           3.9105   -0.7923   17.2948 C.3     1  UNL1        0.2320
     25 C           4.6077   -1.7858   18.1761 C.ar    1  UNL1        0.0212
     26 C           3.8122   -2.8209   18.9149 C.ar    1  UNL1       -0.0007
     27 C           4.5094   -3.8144   19.7962 C.ar    1  UNL1       -0.0002
     28 C           6.0020   -3.7729   19.9387 C.ar    1  UNL1       -0.0000
     29 C           6.7974   -2.7379   19.2000 C.ar    1  UNL1       -0.0002
     30 C           6.1003   -1.7443   18.3186 C.ar    1  UNL1       -0.0007
@<TRIPOS>BOND
     1     1     2    1
     2     2     3    1
     3     3     4    1
     4     4     5    1
     5     5     6   ar
     6     6     7   ar
     7     7     8   ar
     8     8     9   ar
     9     9    10   ar
    10    10    16    1
    11    16    17   ar
    12    17    18   ar
    13    18    19   ar
    14    19    23    1
    15    23    24    1
    16    24    25    1
    17    25    26   ar
    18    26    27   ar
    19    27    28   ar
    20    28    29   ar
    21    29    30   ar
    22    19    20   ar
    23    20    21   ar
    24    21    22    2
    25    10    11   ar
    26    11    12   ar
    27    12    13   ar
    28    13    14    1
    29     6    15    1
    30    15     2    1
    31    13     5   ar
    32    12     7   ar
    33    21    16   ar
    34    30    25   ar
@<TRIPOS>MOLECULE
*****
 30 34 0 0 0
SMALL
GASTEIGER

@<TRIPOS>ATOM
      1 C           9.2296   -7.2524   29.7863 C.3     1  UNL1        0.0899
      2 N           8.4537   -6.1880   29.0687 N.3     1  UNL1       -0.2673
      3 C           7.6895   -5.1611   29.8504 C.3     1  UNL1        0.0787
      4 C           6.9136   -4.0967   29.1328 C.3     1  UNL1        0.0608
      5 C           6.9019   -4.0592   27.6333 C.ar    1  UNL1        0.0358
      6 C           7.6662   -5.0862   26.8515 C.ar    1  UNL1        0.0070
      7 C           7.4699   -4.7986   25.3924 C.ar    1  UNL1        0.0143
      8 C           7.9832   -5.4780   24.1576 C.ar    1  UNL1        0.0027
      9 C           7.6109   -4.9527   22.8028 C.ar    1  UNL1        0.0177
     10 C           6.7253   -3.7480   22.6829 C.ar    1  UNL1        0.0683
     11 C           6.2121   -3.0685   23.9178 C.ar    1  UNL1        0.0348
     12 C           6.5844   -3.5939   25.2725 C.ar    1  UNL1        0.0609
     13 N           6.2334   -3.1369   26.6575 N.ar    1  UNL1       -0.3288
     14 C           5.3660   -1.9636   27.0055 C.3     1  UNL1        0.1301
     15 C           8.4421   -6.1506   27.5692 C.3     1  UNL1        0.1003
     16 N           6.3530   -3.2226   21.3281 N.ar    1  UNL1       -0.2729
     17 C           7.2272   -2.2096   20.6503 C.ar    1  UNL1        0.0860
     18 C           6.8549   -1.6843   19.2956 C.ar    1  UNL1        0.0561
     19 C           5.6084   -2.1720   18.6186 C.ar    1  UNL1        0.1453
     20 C           4.7342   -3.1850   19.2964 C.ar    1  UNL1        0.0980
     21 C           5.1065   -3.7104   20.6511 C.ar    1  UNL1        0.2679
     22 O           4.2322   -4.7234   21.3290 O.2     1  UNL1       -0.2665
     23 O           5.2361   -1.6467   17.2638 O.3     1  UNL1       -0.4704
     24 C           3.8912   -1.0192   17.0462 C.3     1  UNL1        0.2320
     25 C           3.5205    0.2344   17.7818 C.ar    1  UNL1        0.0212
     26 C           2.1067    0.4476   18.2354 C.ar    1  UNL1       -0.0007
     27 C           1.7360    1.7012   18.9709 C.ar    1  UNL1       -0.0002
     28 C           2.7791    2.7416   19.2528 C.ar    1  UNL1       -0.0000
     29 C           4.1928    2.5285   18.7993 C.ar    1  UNL1       -0.0002
     30 C           4.5635    1.2749   18.0637 C.ar    1  UNL1       -0.0007
@<TRIPOS>BOND
     1     1     2    1
     2     2     3    1
     3     3     4    1
     4     4     5    1
     5     5     6   ar
     6     6     7   ar
     7     7     8   ar
     8     8     9   ar
     9     9    10   ar
    10    10    16    1
    11    16    17   ar
    12    17    18   ar
    13    18    19   ar
    14    19    23    1
    15    23    24    1
    16    24    25    1
    17    25    26   ar
    18    26    27   ar
    19    27    28   ar
    20    28    29   ar
    21    29    30   ar
    22    19    20   ar
    23    20    21   ar
    24    21    22    2
    25    10    11   ar
    26    11    12   ar
    27    12    13   ar
    28    13    14    1
    29     6    15    1
    30    15     2    1
    31    13     5   ar
    32    12     7   ar
    33    21    16   ar
    34    30    25   ar
@<TRIPOS>MOLECULE
*****
 30 34 0 0 0
SMALL
GASTEIGER

@<TRIPOS>ATOM
      1 C           4.1130    2.1905   38.5938 C.3     1  UNL1        0.0899
      2 N           3.3027    2.7810   37.4781 N.3     1  UNL1       -0.2673
      3 C           2.5064    4.0309   37.7096 C.3     1  UNL1        0.0787
      4 C           1.6961    4.6214   36.5939 C.3     1  UNL1        0.0608
      5 C           1.6820    3.9619   35.2468 C.ar    1  UNL1        0.0358
      6 C           2.4782    2.7119   35.0153 C.ar    1  UNL1        0.0070
      7 C           2.2716    2.2877   33.5914 C.ar    1  UNL1        0.0143
      8 C           2.8053    1.1296   32.8016 C.ar    1  UNL1        0.0027
      9 C           2.4152    0.9592   31.3633 C.ar    1  UNL1        0.0177
     10 C           1.4913    1.9470   30.7148 C.ar    1  UNL1        0.0683
     11 C           0.9575    3.1052   31.5047 C.ar    1  UNL1        0.0348
     12 C           1.3476    3.2755   32.9429 C.ar    1  UNL1        0.0609
     13 N           0.9833    4.3102   33.9660 N.ar    1  UNL1       -0.3288
     14 C           0.0789    5.4866   33.7468 C.3     1  UNL1        0.1301
     15 C           3.2885    2.1215   36.1310 C.3     1  UNL1        0.1003
     16 N           1.1011    1.7767   29.2764 N.ar    1  UNL1       -0.2729
     17 C           1.9846    2.3161   28.1908 C.ar    1  UNL1        0.0860
     18 C           1.5944    2.1458   26.7525 C.ar    1  UNL1        0.0561
     19 C           0.3208    1.4362   26.3999 C.ar    1  UNL1        0.1453
     20 C          -0.5626    0.8969   27.4854 C.ar    1  UNL1        0.0980
     21 C          -0.1725    1.0671   28.9238 C.ar    1  UNL1        0.2679
     22 O          -1.0560    0.5278   30.0094 O.2     1  UNL1       -0.2665
     23 O          -0.0693    1.2659   24.9615 O.3     1  UNL1       -0.4704
     24 C           0.8305    1.7754   23.8749 C.3     1  UNL1        0.2320
     25 C           1.2987    0.8485   22.7925 C.ar    1  UNL1        0.0212
     26 C           2.4861   -0.0379   23.0258 C.ar    1  UNL1       -0.0007
     27 C           2.9543   -0.9647   21.9434 C.ar    1  UNL1       -0.0002
     28 C           2.2351   -1.0052   20.6277 C.ar    1  UNL1       -0.0000
     29 C           1.0478   -0.1189   20.3944 C.ar    1  UNL1       -0.0002
     30 C           0.5795    0.8080   21.4768 C.ar    1  UNL1       -0.0007
@<TRIPOS>BOND
     1     1     2    1
     2     2     3    1
     3     3     4    1
     4     4     5    1
     5     5     6   ar
     6     6     7   ar
     7     7     8   ar
     8     8     9   ar
     9     9    10   ar
    10    10    16    1
    11    16    17   ar
    12    17    18   ar
    13    18    19   ar
    14    19    23    1
    15    23    24    1
    16    24    25    1
    17    25    26   ar
    18    26    27   ar
    19    27    28   ar
    20    28    29   ar
    21    29    30   ar
    22    19    20   ar
    23    20    21   ar
    24    21    22    2
    25    10    11   ar
    26    11    12   ar
    27    12    13   ar
    28    13    14    1
    29     6    15    1
    30    15     2    1
    31    13     5   ar
    32    12     7   ar
    33    21    16   ar
    34    30    25   ar
@<TRIPOS>MOLECULE
*****
 30 34 0 0 0
SMALL
GASTEIGER

@<TRIPOS>ATOM
      1 C           3.6710    2.5941   38.6110 C.3     1  UNL1        0.0899
      2 N           3.7977    1.8216   37.3315 N.3     1  UNL1       -0.2673
      3 C           4.6666    0.6002   37.2758 C.3     1  UNL1        0.0787
      4 C           4.7934   -0.1724   35.9963 C.3     1  UNL1        0.0608
      5 C           4.0512    0.2764   34.7726 C.ar    1  UNL1        0.0358
      6 C           3.1823    1.4978   34.8283 C.ar    1  UNL1        0.0070
      7 C           2.5758    1.6976   33.4709 C.ar    1  UNL1        0.0143
      8 C           1.6375    2.7373   32.9339 C.ar    1  UNL1        0.0027
      9 C           1.1933    2.6792   31.5024 C.ar    1  UNL1        0.0177
     10 C           1.6874    1.5812   30.6079 C.ar    1  UNL1        0.0683
     11 C           2.6258    0.5413   31.1449 C.ar    1  UNL1        0.0348
     12 C           3.0699    0.5996   32.5763 C.ar    1  UNL1        0.0609
     13 N           3.9818   -0.2787   33.3808 N.ar    1  UNL1       -0.3288
     14 C           4.6984   -1.4981   32.8813 C.3     1  UNL1        0.1301
     15 C           3.0556    2.2704   36.1077 C.3     1  UNL1        0.1003
     16 N           1.2432    1.5229   29.1763 N.ar    1  UNL1       -0.2729
     17 C           2.1387    2.0436   28.0914 C.ar    1  UNL1        0.0860
     18 C           1.6945    1.9854   26.6599 C.ar    1  UNL1        0.0561
     19 C           0.3549    1.4065   26.3133 C.ar    1  UNL1        0.1453
     20 C          -0.5406    0.8859   27.3981 C.ar    1  UNL1        0.0980
     21 C          -0.0964    0.9441   28.8296 C.ar    1  UNL1        0.2679
     22 O          -0.9920    0.4234   29.9145 O.2     1  UNL1       -0.2665
     23 O          -0.0893    1.3483   24.8817 O.3     1  UNL1       -0.4704
     24 C           0.8271    1.8209   23.7922 C.3     1  UNL1        0.2320
     25 C           1.2305    0.8840   22.6924 C.ar    1  UNL1        0.0212
     26 C           2.3754   -0.0634   22.8964 C.ar    1  UNL1       -0.0007
     27 C           2.7786   -1.0002   21.7965 C.ar    1  UNL1       -0.0002
     28 C           2.0371   -0.9896   20.4928 C.ar    1  UNL1       -0.0000
     29 C           0.8922   -0.0423   20.2888 C.ar    1  UNL1       -0.0002
     30 C           0.4889    0.8946   21.3886 C.ar    1  UNL1       -0.0007
@<TRIPOS>BOND
     1     1     2    1
     2     2     3    1
     3     3     4    1
     4     4     5    1
     5     5     6   ar
     6     6     7   ar
     7     7     8   ar
     8     8     9   ar
     9     9    10   ar
    10    10    16    1
    11    16    17   ar
    12    17    18   ar
    13    18    19   ar
    14    19    23    1
    15    23    24    1
    16    24    25    1
    17    25    26   ar
    18    26    27   ar
    19    27    28   ar
    20    28    29   ar
    21    29    30   ar
    22    19    20   ar
    23    20    21   ar
    24    21    22    2
    25    10    11   ar
    26    11    12   ar
    27    12    13   ar
    28    13    14    1
    29     6    15    1
    30    15     2    1
    31    13     5   ar
    32    12     7   ar
    33    21    16   ar
    34    30    25   ar
@<TRIPOS>MOLECULE
*****
 30 34 0 0 0
SMALL
GASTEIGER

@<TRIPOS>ATOM
      1 C          -2.0599    4.8517   17.6511 C.3     1  UNL1        0.0899
      2 N          -1.4189    4.0097   18.7142 N.3     1  UNL1       -0.2673
      3 C          -1.8896    4.1092   20.1349 C.3     1  UNL1        0.0787
      4 C          -1.2486    3.2672   21.1981 C.3     1  UNL1        0.0608
      5 C          -0.1370    2.3258   20.8405 C.ar    1  UNL1        0.0358
      6 C           0.3337    2.2263   19.4198 C.ar    1  UNL1        0.0070
      7 C           1.4416    1.2163   19.3681 C.ar    1  UNL1        0.0143
      8 C           2.2831    0.7067   18.2359 C.ar    1  UNL1        0.0027
      9 C           3.3386   -0.3277   18.4924 C.ar    1  UNL1        0.0177
     10 C           3.5526   -0.8525   19.8813 C.ar    1  UNL1        0.0683
     11 C           2.7110   -0.3428   21.0135 C.ar    1  UNL1        0.0348
     12 C           1.6555    0.6916   20.7569 C.ar    1  UNL1        0.0609
     13 N           0.6800    1.3773   21.6669 N.ar    1  UNL1       -0.3288
     14 C           0.5450    1.1538   23.1440 C.3     1  UNL1        0.1301
     15 C          -0.3073    3.0683   18.3566 C.3     1  UNL1        0.1003
     16 N           4.6082   -1.8869   20.1379 N.ar    1  UNL1       -0.2729
     17 C           5.8951   -1.4964   20.8024 C.ar    1  UNL1        0.0860
     18 C           6.9506   -2.5308   21.0590 C.ar    1  UNL1        0.0561
     19 C           6.7192   -3.9556   20.6511 C.ar    1  UNL1        0.1453
     20 C           5.4324   -4.3461   19.9867 C.ar    1  UNL1        0.0980
     21 C           4.3769   -3.3117   19.7301 C.ar    1  UNL1        0.2679
     22 O           3.0900   -3.7022   19.0656 O.2     1  UNL1       -0.2665
     23 O           7.7748   -4.9900   20.9078 O.3     1  UNL1       -0.4704
     24 C           8.6618   -4.8738   22.1119 C.3     1  UNL1        0.2320
     25 C           8.2951   -5.5783   23.3844 C.ar    1  UNL1        0.0212
     26 C           8.6989   -7.0077   23.5935 C.ar    1  UNL1       -0.0007
     27 C           8.3322   -7.7121   24.8660 C.ar    1  UNL1       -0.0002
     28 C           7.5618   -6.9870   25.9294 C.ar    1  UNL1       -0.0000
     29 C           7.1581   -5.5577   25.7203 C.ar    1  UNL1       -0.0002
     30 C           7.5248   -4.8533   24.4478 C.ar    1  UNL1       -0.0007
@<TRIPOS>BOND
     1     1     2    1
     2     2     3    1
     3     3     4    1
     4     4     5    1
     5     5     6   ar
     6     6     7   ar
     7     7     8   ar
     8     8     9   ar
     9     9    10   ar
    10    10    16    1
    11    16    17   ar
    12    17    18   ar
    13    18    19   ar
    14    19    23    1
    15    23    24    1
    16    24    25    1
    17    25    26   ar
    18    26    27   ar
    19    27    28   ar
    20    28    29   ar
    21    29    30   ar
    22    19    20   ar
    23    20    21   ar
    24    21    22    2
    25    10    11   ar
    26    11    12   ar
    27    12    13   ar
    28    13    14    1
    29     6    15    1
    30    15     2    1
    31    13     5   ar
    32    12     7   ar
    33    21    16   ar
    34    30    25   ar
@<TRIPOS>MOLECULE
*****
 30 34 0 0 0
SMALL
GASTEIGER

@<TRIPOS>ATOM
      1 C          -6.7517    5.8579   25.3910 C.3     1  UNL1        0.0899
      2 N          -5.4367    5.1363   25.4040 N.3     1  UNL1       -0.2673
      3 C          -4.8313    4.7041   26.7066 C.3     1  UNL1        0.0787
      4 C          -3.5163    3.9825   26.7196 C.3     1  UNL1        0.0608
      5 C          -2.8068    3.6930   25.4302 C.ar    1  UNL1        0.0358
      6 C          -3.4122    4.1252   24.1277 C.ar    1  UNL1        0.0070
      7 C          -2.4877    3.7036   23.0242 C.ar    1  UNL1        0.0143
      8 C          -2.5653    3.8610   21.5346 C.ar    1  UNL1        0.0027
      9 C          -1.4662    3.3257   20.6655 C.ar    1  UNL1        0.0177
     10 C          -0.2894    2.6329   21.2861 C.ar    1  UNL1        0.0683
     11 C          -0.2117    2.4755   22.7759 C.ar    1  UNL1        0.0348
     12 C          -1.3109    3.0109   23.6448 C.ar    1  UNL1        0.0609
     13 N          -1.5081    3.0043   25.1318 N.ar    1  UNL1       -0.3288
     14 C          -0.5711    2.4129   26.1429 C.3     1  UNL1        0.1301
     15 C          -4.7272    4.8468   24.1146 C.3     1  UNL1        0.1003
     16 N           0.8098    2.0975   20.4171 N.ar    1  UNL1       -0.2729
     17 C           1.8713    3.0207   19.8964 C.ar    1  UNL1        0.0860
     18 C           2.9704    2.4854   19.0274 C.ar    1  UNL1        0.0561
     19 C           3.0081    1.0269   18.6790 C.ar    1  UNL1        0.1453
     20 C           1.9468    0.1038   19.1997 C.ar    1  UNL1        0.0980
     21 C           0.8476    0.6391   20.0687 C.ar    1  UNL1        0.2679
     22 O          -0.2139   -0.2841   20.5895 O.2     1  UNL1       -0.2665
     23 O           4.1073    0.4916   17.8100 O.3     1  UNL1       -0.4704
     24 C           5.2115   -0.3243   18.4144 C.3     1  UNL1        0.2320
     25 C           4.9018   -1.6384   19.0679 C.ar    1  UNL1        0.0212
     26 C           4.7523   -2.8749   18.2319 C.ar    1  UNL1       -0.0007
     27 C           4.4426   -4.1890   18.8854 C.ar    1  UNL1       -0.0002
     28 C           4.2824   -4.2667   20.3748 C.ar    1  UNL1       -0.0000
     29 C           4.4319   -3.0303   21.2107 C.ar    1  UNL1       -0.0002
     30 C           4.7416   -1.7161   20.5572 C.ar    1  UNL1       -0.0007
@<TRIPOS>BOND
     1     1     2    1
     2     2     3    1
     3     3     4    1
     4     4     5    1
     5     5     6   ar
     6     6     7   ar
     7     7     8   ar
     8     8     9   ar
     9     9    10   ar
    10    10    16    1
    11    16    17   ar
    12    17    18   ar
    13    18    19   ar
    14    19    23    1
    15    23    24    1
    16    24    25    1
    17    25    26   ar
    18    26    27   ar
    19    27    28   ar
    20    28    29   ar
    21    29    30   ar
    22    19    20   ar
    23    20    21   ar
    24    21    22    2
    25    10    11   ar
    26    11    12   ar
    27    12    13   ar
    28    13    14    1
    29     6    15    1
    30    15     2    1
    31    13     5   ar
    32    12     7   ar
    33    21    16   ar
    34    30    25   ar
@<TRIPOS>MOLECULE
*****
 30 34 0 0 0
SMALL
GASTEIGER

@<TRIPOS>ATOM
      1 C           7.9398   -6.6143   24.6332 C.3     1  UNL1        0.0899
      2 N           8.0697   -6.5406   26.1258 N.3     1  UNL1       -0.2673
      3 C           8.7475   -7.6490   26.8753 C.3     1  UNL1        0.0787
      4 C           8.8773   -7.5753   28.3679 C.3     1  UNL1        0.0608
      5 C           8.3293   -6.3931   29.1109 C.ar    1  UNL1        0.0358
      6 C           7.6514   -5.2847   28.3613 C.ar    1  UNL1        0.0070
      7 C           7.2123   -4.2524   29.3572 C.ar    1  UNL1        0.0143
      8 C           6.4949   -2.9450   29.1974 C.ar    1  UNL1        0.0027
      9 C           6.1839   -2.1079   30.4027 C.ar    1  UNL1        0.0177
     10 C           6.5903   -2.5785   31.7677 C.ar    1  UNL1        0.0683
     11 C           7.3078   -3.8861   31.9275 C.ar    1  UNL1        0.0348
     12 C           7.6187   -4.7230   30.7223 C.ar    1  UNL1        0.0609
     13 N           8.3091   -6.0460   30.5700 N.ar    1  UNL1       -0.3288
     14 C           8.8791   -6.8761   31.6817 C.3     1  UNL1        0.1301
     15 C           7.5216   -5.3584   26.8688 C.3     1  UNL1        0.1003
     16 N           6.2793   -1.7414   32.9731 N.ar    1  UNL1       -0.2729
     17 C           7.3329   -0.8483   33.5580 C.ar    1  UNL1        0.0860
     18 C           7.0219   -0.0113   34.7633 C.ar    1  UNL1        0.0561
     19 C           5.6574   -0.0675   35.3836 C.ar    1  UNL1        0.1453
     20 C           4.6038   -0.9606   34.7987 C.ar    1  UNL1        0.0980
     21 C           4.9148   -1.7976   33.5934 C.ar    1  UNL1        0.2679
     22 O           3.8611   -2.6908   33.0084 O.2     1  UNL1       -0.2665
     23 O           5.3465    0.7695   36.5889 O.3     1  UNL1       -0.4704
     24 C           5.3415    2.2657   36.4821 C.3     1  UNL1        0.2320
     25 C           4.0722    2.9893   36.1428 C.ar    1  UNL1        0.0212
     26 C           3.7560    3.3195   34.7141 C.ar    1  UNL1       -0.0007
     27 C           2.4867    4.0431   34.3749 C.ar    1  UNL1       -0.0002
     28 C           1.5336    4.4366   35.4642 C.ar    1  UNL1       -0.0000
     29 C           1.8497    4.1065   36.8928 C.ar    1  UNL1       -0.0002
     30 C           3.1191    3.3828   37.2321 C.ar    1  UNL1       -0.0007
@<TRIPOS>BOND
     1     1     2    1
     2     2     3    1
     3     3     4    1
     4     4     5    1
     5     5     6   ar
     6     6     7   ar
     7     7     8   ar
     8     8     9   ar
     9     9    10   ar
    10    10    16    1
    11    16    17   ar
    12    17    18   ar
    13    18    19   ar
    14    19    23    1
    15    23    24    1
    16    24    25    1
    17    25    26   ar
    18    26    27   ar
    19    27    28   ar
    20    28    29   ar
    21    29    30   ar
    22    19    20   ar
    23    20    21   ar
    24    21    22    2
    25    10    11   ar
    26    11    12   ar
    27    12    13   ar
    28    13    14    1
    29     6    15    1
    30    15     2    1
    31    13     5   ar
    32    12     7   ar
    33    21    16   ar
    34    30    25   ar
