@<TRIPOS>MOLECULE
*****
 30 33 0 0 0
SMALL
GASTEIGER

@<TRIPOS>ATOM
      1 C           8.3464   -7.9220   27.8369 C.3     1  UNL1        0.2100
      2 C           7.6587   -7.1498   28.9234 C.3     1  UNL1        0.1468
      3 N           8.0202   -5.7028   28.7638 N.am    1  UNL1       -0.2213
      4 C           8.9314   -5.5807   27.5786 C.2     1  UNL1        0.4088
      5 O           9.5350   -4.3102   27.0576 O.2     1  UNL1       -0.2258
      6 O           9.1331   -6.9522   27.0057 O.3     1  UNL1       -0.4345
      7 C           7.5526   -4.5757   29.6362 C.ar    1  UNL1        0.0572
      8 C           6.8780   -3.3838   29.0244 C.ar    1  UNL1        0.0163
      9 C           6.4105   -2.2568   29.8969 C.ar    1  UNL1        0.0162
     10 C           6.6175   -2.3216   31.3811 C.ar    1  UNL1        0.0541
     11 C           7.2920   -3.5135   31.9929 C.ar    1  UNL1        0.0162
     12 C           7.7596   -4.6405   31.1205 C.ar    1  UNL1        0.0163
     13 N           6.1499   -1.1945   32.2535 N.am    1  UNL1       -0.2540
     14 C           7.0000    0.0305   32.4161 C.3     1  UNL1        0.1303
     15 C           6.5324    1.1576   33.2885 C.3     1  UNL1        0.1646
     16 O           5.2147    1.0596   33.9984 O.3     1  UNL1       -0.3426
     17 C           4.3645   -0.1655   33.8358 C.3     1  UNL1        0.2275
     18 C           4.8321   -1.2926   32.9634 C.2     1  UNL1        0.2596
     19 O           3.9819   -2.5177   32.8008 O.2     1  UNL1       -0.2718
     20 C           8.2624   -9.4038   27.6196 C.3     1  UNL1        0.1355
     21 C           6.8350  -11.5403   28.0046 C.2     1  UNL1        0.2520
     22 O           8.0756  -12.3051   28.3593 O.2     1  UNL1       -0.2696
     23 N           6.9284  -10.0896   27.6347 N.am    1  UNL1       -0.2971
     24 H           6.1142   -9.5875   27.4019 H       1  UNL1        0.1499
     25 C           2.0205  -13.1267   29.4827 C.3     1  UNL1        0.0382
     26 C           3.2880  -12.9553   28.6991 C.ar    1  UNL1        0.0078
     27 C           3.6084  -13.6074   27.3868 C.ar    1  UNL1        0.0028
     28 C           4.9761  -13.1567   26.9669 C.ar    1  UNL1        0.0112
     29 C           5.5011  -12.2260   28.0197 C.ar    1  UNL1        0.0825
     30 S           4.4578  -12.1015   29.0902 S.2     1  UNL1       -0.0868
@<TRIPOS>BOND
     1    25    26    1
     2    26    27   ar
     3    27    28   ar
     4    28    29   ar
     5    29    21    1
     6    21    22    2
     7    21    23   am
     8    23    20    1
     9     1    20    1
    10     1     2    1
    11     2     3    1
    12     3     7    1
    13     7     8   ar
    14     8     9   ar
    15     9    10   ar
    16    10    13    1
    17    13    14    1
    18    14    15    1
    19    15    16    1
    20    16    17    1
    21    17    18    1
    22    18    19    2
    23    10    11   ar
    24    11    12   ar
    25     3     4   am
    26     4     5    2
    27     4     6    1
    28    29    30   ar
    29    30    26   ar
    30     6     1    1
    31    12     7   ar
    32    18    13   am
    33    23    24    1
@<TRIPOS>MOLECULE
*****
 30 33 0 0 0
SMALL
GASTEIGER

@<TRIPOS>ATOM
      1 C           8.7857   -5.7761   28.3806 C.3     1  UNL1        0.2100
      2 C           8.6601   -4.8654   27.1953 C.3     1  UNL1        0.1468
      3 N           8.0258   -5.6416   26.0795 N.am    1  UNL1       -0.2213
      4 C           7.7593   -7.0321   26.5751 C.2     1  UNL1        0.4088
      5 O           7.1331   -8.1442   25.7870 O.2     1  UNL1       -0.2258
      6 O           8.2290   -7.1153   27.9973 O.3     1  UNL1       -0.4345
      7 C           7.7128   -5.1192   24.7086 C.ar    1  UNL1        0.0572
      8 C           6.6208   -4.1078   24.5227 C.ar    1  UNL1        0.0163
      9 C           6.3079   -3.5854   23.1519 C.ar    1  UNL1        0.0162
     10 C           7.0870   -4.0743   21.9671 C.ar    1  UNL1        0.0541
     11 C           8.1790   -5.0857   22.1530 C.ar    1  UNL1        0.0162
     12 C           8.4920   -5.6081   23.5238 C.ar    1  UNL1        0.0163
     13 N           6.7741   -3.5519   20.5962 N.am    1  UNL1       -0.2540
     14 C           7.7363   -2.6303   19.9071 C.3     1  UNL1        0.1303
     15 C           7.4233   -2.1078   18.5363 C.3     1  UNL1        0.1646
     16 O           6.1481   -2.5070   17.8546 O.3     1  UNL1       -0.3426
     17 C           5.1859   -3.4286   18.5438 C.3     1  UNL1        0.2275
     18 C           5.4989   -3.9510   19.9145 C.2     1  UNL1        0.2596
     19 O           4.5367   -4.8726   20.6037 O.2     1  UNL1       -0.2718
     20 C           9.3661   -5.4117   29.7149 C.3     1  UNL1        0.1355
     21 C           7.6252   -4.3932   31.3525 C.2     1  UNL1        0.2520
     22 O           6.9611   -5.7321   31.4792 O.2     1  UNL1       -0.2696
     23 N           8.8278   -4.2330   30.4703 N.am    1  UNL1       -0.2971
     24 H           9.2637   -3.3542   30.3871 H       1  UNL1        0.1499
     25 C           4.3319   -1.1096   33.8531 C.3     1  UNL1        0.0382
     26 C           5.5730   -1.7051   33.2573 C.ar    1  UNL1        0.0078
     27 C           6.9435   -1.0959   33.2834 C.ar    1  UNL1        0.0028
     28 C           7.8790   -2.0287   32.5730 C.ar    1  UNL1        0.0112
     29 C           7.0868   -3.2144   32.1079 C.ar    1  UNL1        0.0825
     30 S           5.6616   -3.0145   32.5308 S.2     1  UNL1       -0.0868
@<TRIPOS>BOND
     1    25    26    1
     2    26    27   ar
     3    27    28   ar
     4    28    29   ar
     5    29    21    1
     6    21    22    2
     7    21    23   am
     8    23    20    1
     9     1    20    1
    10     1     2    1
    11     2     3    1
    12     3     7    1
    13     7     8   ar
    14     8     9   ar
    15     9    10   ar
    16    10    13    1
    17    13    14    1
    18    14    15    1
    19    15    16    1
    20    16    17    1
    21    17    18    1
    22    18    19    2
    23    10    11   ar
    24    11    12   ar
    25     3     4   am
    26     4     5    2
    27     4     6    1
    28    29    30   ar
    29    30    26   ar
    30     6     1    1
    31    12     7   ar
    32    18    13   am
    33    23    24    1
@<TRIPOS>MOLECULE
*****
 30 33 0 0 0
SMALL
GASTEIGER

@<TRIPOS>ATOM
      1 C           6.0538   -2.3987   19.2989 C.3     1  UNL1        0.2100
      2 C           5.0429   -1.5436   20.0038 C.3     1  UNL1        0.1468
      3 N           4.1341   -0.9510   18.9681 N.am    1  UNL1       -0.2213
      4 C           4.5832   -1.4399   17.6230 C.2     1  UNL1        0.4088
      5 O           3.9559   -1.0947   16.3049 O.2     1  UNL1       -0.2258
      6 O           5.7696   -2.3346   17.8274 O.3     1  UNL1       -0.4345
      7 C           2.9788   -0.0310   19.2312 C.ar    1  UNL1        0.0572
      8 C           3.1147    1.4388   18.9643 C.ar    1  UNL1        0.0163
      9 C           1.9595    2.3587   19.2274 C.ar    1  UNL1        0.0162
     10 C           0.6685    1.8088   19.7575 C.ar    1  UNL1        0.0541
     11 C           0.5327    0.3390   20.0244 C.ar    1  UNL1        0.0162
     12 C           1.6878   -0.5809   19.7613 C.ar    1  UNL1        0.0163
     13 N          -0.4867    2.7288   20.0206 N.am    1  UNL1       -0.2540
     14 C          -1.0102    2.8952   21.4164 C.3     1  UNL1        0.1303
     15 C          -2.1654    3.8152   21.6796 C.3     1  UNL1        0.1646
     16 O          -2.7971    4.5688   20.5468 O.3     1  UNL1       -0.3426
     17 C          -2.2736    4.4024   19.1510 C.3     1  UNL1        0.2275
     18 C          -1.1184    3.4824   18.8879 C.2     1  UNL1        0.2596
     19 O          -0.5949    3.3160   17.4921 O.2     1  UNL1       -0.2718
     20 C           7.1554   -3.1806   19.9509 C.3     1  UNL1        0.1355
     21 C           8.0291   -4.6009   21.9432 C.2     1  UNL1        0.2520
     22 O           9.2994   -4.8719   21.1929 O.2     1  UNL1       -0.2696
     23 N           6.9571   -3.7553   21.3222 N.am    1  UNL1       -0.2971
     24 H           6.1234   -3.5774   21.8146 H       1  UNL1        0.1499
     25 C           8.1543   -7.8791   26.0806 C.3     1  UNL1        0.0382
     26 C           7.8884   -6.6824   25.2163 C.ar    1  UNL1        0.0078
     27 C           7.1632   -5.4373   25.6332 C.ar    1  UNL1        0.0028
     28 C           7.1277   -4.5060   24.4578 C.ar    1  UNL1        0.0112
     29 C           7.8309   -5.1755   23.3145 C.ar    1  UNL1        0.0825
     30 S           8.3010   -6.5206   23.7832 S.2     1  UNL1       -0.0868
@<TRIPOS>BOND
     1    25    26    1
     2    26    27   ar
     3    27    28   ar
     4    28    29   ar
     5    29    21    1
     6    21    22    2
     7    21    23   am
     8    23    20    1
     9     1    20    1
    10     1     2    1
    11     2     3    1
    12     3     7    1
    13     7     8   ar
    14     8     9   ar
    15     9    10   ar
    16    10    13    1
    17    13    14    1
    18    14    15    1
    19    15    16    1
    20    16    17    1
    21    17    18    1
    22    18    19    2
    23    10    11   ar
    24    11    12   ar
    25     3     4   am
    26     4     5    2
    27     4     6    1
    28    29    30   ar
    29    30    26   ar
    30     6     1    1
    31    12     7   ar
    32    18    13   am
    33    23    24    1
@<TRIPOS>MOLECULE
*****
 30 33 0 0 0
SMALL
GASTEIGER

@<TRIPOS>ATOM
      1 C           7.7985   -5.3115   26.1752 C.3     1  UNL1        0.2100
      2 C           6.9944   -4.2681   25.4576 C.3     1  UNL1        0.1468
      3 N           7.0976   -4.5349   23.9852 N.am    1  UNL1       -0.2213
      4 C           7.9655   -5.7431   23.7927 C.2     1  UNL1        0.4088
      5 O           8.3352   -6.3625   22.4776 O.2     1  UNL1       -0.2258
      6 O           8.3986   -6.2231   25.1461 O.3     1  UNL1       -0.4345
      7 C           6.4471   -3.7340   22.8963 C.ar    1  UNL1        0.0572
      8 C           4.9685   -3.8411   22.6676 C.ar    1  UNL1        0.0163
      9 C           4.3181   -3.0402   21.5788 C.ar    1  UNL1        0.0162
     10 C           5.1463   -2.1323   20.7187 C.ar    1  UNL1        0.0541
     11 C           6.6249   -2.0252   20.9474 C.ar    1  UNL1        0.0162
     12 C           7.2753   -2.8260   22.0362 C.ar    1  UNL1        0.0163
     13 N           4.4958   -1.3314   19.6298 N.am    1  UNL1       -0.2540
     14 C           3.6892   -0.1144   19.9736 C.3     1  UNL1        0.1303
     15 C           3.0387    0.6865   18.8847 C.3     1  UNL1        0.1646
     16 O           3.1949    0.2703   17.4521 O.3     1  UNL1       -0.3426
     17 C           4.0016   -0.9468   17.1084 C.3     1  UNL1        0.2275
     18 C           4.6520   -1.7476   18.1972 C.2     1  UNL1        0.2596
     19 O           5.4587   -2.9647   17.8534 O.2     1  UNL1       -0.2718
     20 C           7.9720   -5.4236   27.6609 C.3     1  UNL1        0.1355
     21 C           6.9594   -4.5951   29.9055 C.2     1  UNL1        0.2520
     22 O           6.8148   -6.0158   30.3646 O.2     1  UNL1       -0.2696
     23 N           7.5380   -4.2990   28.5536 N.am    1  UNL1       -0.2971
     24 H           7.6329   -3.3666   28.2523 H       1  UNL1        0.1499
     25 C           5.3897    0.1538   31.5980 C.3     1  UNL1        0.0382
     26 C           5.8039   -1.2877   31.5763 C.ar    1  UNL1        0.0078
     27 C           5.9112   -2.1923   32.7679 C.ar    1  UNL1        0.0028
     28 C           6.3571   -3.5414   32.2871 C.ar    1  UNL1        0.0112
     29 C           6.5254   -3.4706   30.7983 C.ar    1  UNL1        0.0825
     30 S           6.1835   -2.0778   30.3589 S.2     1  UNL1       -0.0868
@<TRIPOS>BOND
     1    25    26    1
     2    26    27   ar
     3    27    28   ar
     4    28    29   ar
     5    29    21    1
     6    21    22    2
     7    21    23   am
     8    23    20    1
     9     1    20    1
    10     1     2    1
    11     2     3    1
    12     3     7    1
    13     7     8   ar
    14     8     9   ar
    15     9    10   ar
    16    10    13    1
    17    13    14    1
    18    14    15    1
    19    15    16    1
    20    16    17    1
    21    17    18    1
    22    18    19    2
    23    10    11   ar
    24    11    12   ar
    25     3     4   am
    26     4     5    2
    27     4     6    1
    28    29    30   ar
    29    30    26   ar
    30     6     1    1
    31    12     7   ar
    32    18    13   am
    33    23    24    1
@<TRIPOS>MOLECULE
*****
 30 33 0 0 0
SMALL
GASTEIGER

@<TRIPOS>ATOM
      1 C          -1.2743    4.1305   19.4015 C.3     1  UNL1        0.2100
      2 C          -0.8607    2.7122   19.6612 C.3     1  UNL1        0.1468
      3 N           0.5831    2.5731   19.2790 N.am    1  UNL1       -0.2213
      4 C           1.0619    3.9054   18.7832 C.2     1  UNL1        0.4088
      5 O           2.4456    4.2198   18.2971 O.2     1  UNL1       -0.2258
      6 O          -0.0860    4.8679   18.8589 O.3     1  UNL1       -0.4345
      7 C           1.4041    1.3213   19.3758 C.ar    1  UNL1        0.0572
      8 C           1.2883    0.4400   20.5839 C.ar    1  UNL1        0.0163
      9 C           2.1093   -0.8117   20.6806 C.ar    1  UNL1        0.0162
     10 C           3.0460   -1.1819   19.5691 C.ar    1  UNL1        0.0541
     11 C           3.1617   -0.3006   18.3609 C.ar    1  UNL1        0.0162
     12 C           2.3408    0.9511   18.2642 C.ar    1  UNL1        0.0163
     13 N           3.8669   -2.4337   19.6658 N.am    1  UNL1       -0.2540
     14 C           3.3066   -3.7375   19.1800 C.3     1  UNL1        0.1303
     15 C           4.1276   -4.9892   19.2767 C.3     1  UNL1        0.1646
     16 O           5.5089   -4.9370   19.8592 O.3     1  UNL1       -0.3426
     17 C           6.0692   -3.6331   20.3450 C.3     1  UNL1        0.2275
     18 C           5.2482   -2.3815   20.2483 C.2     1  UNL1        0.2596
     19 O           5.8085   -1.0776   20.7341 O.2     1  UNL1       -0.2718
     20 C          -2.6368    4.7098   19.6422 C.3     1  UNL1        0.1355
     21 C          -3.9327    3.7978   21.7011 C.2     1  UNL1        0.2520
     22 O          -4.2242    2.5293   20.9558 O.2     1  UNL1       -0.2696
     23 N          -3.1390    4.8881   21.0443 N.am    1  UNL1       -0.2971
     24 H          -2.9476    5.7208   21.5336 H       1  UNL1        0.1499
     25 C          -4.1224    4.0683   26.9710 C.3     1  UNL1        0.0382
     26 C          -4.5221    4.1005   25.5256 C.ar    1  UNL1        0.0078
     27 C          -5.8931    4.4008   24.9964 C.ar    1  UNL1        0.0028
     28 C          -5.8392    4.3240   23.4993 C.ar    1  UNL1        0.0112
     29 C          -4.4348    3.9762   23.1033 C.ar    1  UNL1        0.0825
     30 S          -3.6208    3.8381   24.3555 S.2     1  UNL1       -0.0868
@<TRIPOS>BOND
     1    25    26    1
     2    26    27   ar
     3    27    28   ar
     4    28    29   ar
     5    29    21    1
     6    21    22    2
     7    21    23   am
     8    23    20    1
     9     1    20    1
    10     1     2    1
    11     2     3    1
    12     3     7    1
    13     7     8   ar
    14     8     9   ar
    15     9    10   ar
    16    10    13    1
    17    13    14    1
    18    14    15    1
    19    15    16    1
    20    16    17    1
    21    17    18    1
    22    18    19    2
    23    10    11   ar
    24    11    12   ar
    25     3     4   am
    26     4     5    2
    27     4     6    1
    28    29    30   ar
    29    30    26   ar
    30     6     1    1
    31    12     7   ar
    32    18    13   am
    33    23    24    1
@<TRIPOS>MOLECULE
*****
 30 33 0 0 0
SMALL
GASTEIGER

@<TRIPOS>ATOM
      1 C           7.8049   -5.2978   28.6734 C.3     1  UNL1        0.2100
      2 C           7.6615   -4.4178   27.4672 C.3     1  UNL1        0.1468
      3 N           7.4327   -5.2991   26.2751 N.am    1  UNL1       -0.2213
      4 C           7.4348   -6.7237   26.7446 C.2     1  UNL1        0.4088
      5 O           7.2408   -7.9362   25.8831 O.2     1  UNL1       -0.2258
      6 O           7.6648   -6.7230   28.2268 O.3     1  UNL1       -0.4345
      7 C           7.2364   -4.8368   24.8616 C.ar    1  UNL1        0.0572
      8 C           8.0647   -5.4252   23.7582 C.ar    1  UNL1        0.0163
      9 C           7.8684   -4.9630   22.3448 C.ar    1  UNL1        0.0162
     10 C           6.8436   -3.9123   22.0348 C.ar    1  UNL1        0.0541
     11 C           6.0152   -3.3240   23.1382 C.ar    1  UNL1        0.0162
     12 C           6.2116   -3.7862   24.5516 C.ar    1  UNL1        0.0163
     13 N           6.6473   -3.4501   20.6213 N.am    1  UNL1       -0.2540
     14 C           7.6693   -2.5639   19.9732 C.3     1  UNL1        0.1303
     15 C           7.4730   -2.1017   18.5597 C.3     1  UNL1        0.1646
     16 O           6.2546   -2.5257   17.7944 O.3     1  UNL1       -0.3426
     17 C           5.2325   -3.4119   18.4426 C.3     1  UNL1        0.2275
     18 C           5.4289   -3.8741   19.8560 C.2     1  UNL1        0.2596
     19 O           4.4068   -4.7603   20.5042 O.2     1  UNL1       -0.2718
     20 C           8.0461   -4.8341   30.0794 C.3     1  UNL1        0.1355
     21 C           7.4267   -3.1352   31.9449 C.2     1  UNL1        0.2520
     22 O           8.8488   -3.1404   32.4217 O.2     1  UNL1       -0.2696
     23 N           7.0253   -3.9821   30.7737 N.am    1  UNL1       -0.2971
     24 H           6.0919   -3.9787   30.4606 H       1  UNL1        0.1499
     25 C           5.0825    0.9443   34.3414 C.3     1  UNL1        0.0382
     26 C           5.3284   -0.4080   33.7407 C.ar    1  UNL1        0.0078
     27 C           4.3418   -1.5359   33.6743 C.ar    1  UNL1        0.0028
     28 C           5.0077   -2.6948   32.9935 C.ar    1  UNL1        0.0112
     29 C           6.4059   -2.2831   32.6391 C.ar    1  UNL1        0.0825
     30 S           6.6041   -0.8699   33.1009 S.2     1  UNL1       -0.0868
@<TRIPOS>BOND
     1    25    26    1
     2    26    27   ar
     3    27    28   ar
     4    28    29   ar
     5    29    21    1
     6    21    22    2
     7    21    23   am
     8    23    20    1
     9     1    20    1
    10     1     2    1
    11     2     3    1
    12     3     7    1
    13     7     8   ar
    14     8     9   ar
    15     9    10   ar
    16    10    13    1
    17    13    14    1
    18    14    15    1
    19    15    16    1
    20    16    17    1
    21    17    18    1
    22    18    19    2
    23    10    11   ar
    24    11    12   ar
    25     3     4   am
    26     4     5    2
    27     4     6    1
    28    29    30   ar
    29    30    26   ar
    30     6     1    1
    31    12     7   ar
    32    18    13   am
    33    23    24    1
@<TRIPOS>MOLECULE
*****
 30 33 0 0 0
SMALL
GASTEIGER

@<TRIPOS>ATOM
      1 C           6.4165   -3.4885   20.4131 C.3     1  UNL1        0.2100
      2 C           5.7568   -2.1415   20.4249 C.3     1  UNL1        0.1468
      3 N           4.3710   -2.2992   19.8728 N.am    1  UNL1       -0.2213
      4 C           4.1743   -3.7438   19.5199 C.2     1  UNL1        0.4088
      5 O           2.9316   -4.3473   18.9356 O.2     1  UNL1       -0.2258
      6 O           5.4385   -4.4788   19.8538 O.3     1  UNL1       -0.4345
      7 C           3.3595   -1.2045   19.7035 C.ar    1  UNL1        0.0572
      8 C           1.9807   -1.3628   20.2725 C.ar    1  UNL1        0.0163
      9 C           0.9692   -0.2682   20.1031 C.ar    1  UNL1        0.0162
     10 C           1.3366    0.9847   19.3647 C.ar    1  UNL1        0.0541
     11 C           2.7154    1.1430   18.7956 C.ar    1  UNL1        0.0162
     12 C           3.7268    0.0484   18.9650 C.ar    1  UNL1        0.0163
     13 N           0.3250    2.0793   19.1953 N.am    1  UNL1       -0.2540
     14 C           0.1679    2.7562   17.8660 C.3     1  UNL1        0.1303
     15 C          -0.8437    3.8508   17.6966 C.3     1  UNL1        0.1646
     16 O          -1.6980    4.2686   18.8566 O.3     1  UNL1       -0.3426
     17 C          -1.5408    3.5917   20.1860 C.3     1  UNL1        0.2275
     18 C          -0.5293    2.4971   20.3553 C.2     1  UNL1        0.2596
     19 O          -0.3721    1.8202   21.6847 O.2     1  UNL1       -0.2718
     20 C           7.8097   -3.7920   20.8789 C.3     1  UNL1        0.1355
     21 C           7.7945   -4.6372   23.3356 C.2     1  UNL1        0.2520
     22 O           7.3088   -3.2944   23.7946 O.2     1  UNL1       -0.2696
     23 N           8.0449   -4.8861   21.8777 N.am    1  UNL1       -0.2971
     24 H           8.3637   -5.7675   21.5764 H       1  UNL1        0.1499
     25 C           8.2180   -7.2710   27.8924 C.3     1  UNL1        0.0382
     26 C           8.2244   -6.9419   26.4290 C.ar    1  UNL1        0.0078
     27 C           8.5590   -7.8879   25.3141 C.ar    1  UNL1        0.0028
     28 C           8.4387   -7.1397   24.0195 C.ar    1  UNL1        0.0112
     29 C           8.0297   -5.7313   24.3344 C.ar    1  UNL1        0.0825
     30 S           7.8973   -5.6090   25.8235 S.2     1  UNL1       -0.0868
@<TRIPOS>BOND
     1    25    26    1
     2    26    27   ar
     3    27    28   ar
     4    28    29   ar
     5    29    21    1
     6    21    22    2
     7    21    23   am
     8    23    20    1
     9     1    20    1
    10     1     2    1
    11     2     3    1
    12     3     7    1
    13     7     8   ar
    14     8     9   ar
    15     9    10   ar
    16    10    13    1
    17    13    14    1
    18    14    15    1
    19    15    16    1
    20    16    17    1
    21    17    18    1
    22    18    19    2
    23    10    11   ar
    24    11    12   ar
    25     3     4   am
    26     4     5    2
    27     4     6    1
    28    29    30   ar
    29    30    26   ar
    30     6     1    1
    31    12     7   ar
    32    18    13   am
    33    23    24    1
@<TRIPOS>MOLECULE
*****
 30 33 0 0 0
SMALL
GASTEIGER

@<TRIPOS>ATOM
      1 C           0.5007    1.6703   20.4553 C.3     1  UNL1        0.2100
      2 C           1.0685    1.1077   21.7246 C.3     1  UNL1        0.1468
      3 N           0.4817    1.8724   22.8739 N.am    1  UNL1       -0.2213
      4 C          -0.4488    2.9077   22.3149 C.2     1  UNL1        0.4088
      5 O          -1.2503    3.8946   23.1108 O.2     1  UNL1       -0.2258
      6 O          -0.4371    2.7828   20.8201 O.3     1  UNL1       -0.4345
      7 C           0.7740    1.6423   24.3271 C.ar    1  UNL1        0.0572
      8 C          -0.3531    1.5349   25.3109 C.ar    1  UNL1        0.0163
      9 C          -0.0607    1.3049   26.7640 C.ar    1  UNL1        0.0162
     10 C           1.3587    1.1822   27.2333 C.ar    1  UNL1        0.0541
     11 C           2.4858    1.2896   26.2494 C.ar    1  UNL1        0.0162
     12 C           2.1934    1.5197   24.7963 C.ar    1  UNL1        0.0163
     13 N           1.6510    0.9521   28.6864 N.am    1  UNL1       -0.2540
     14 C           1.2903    1.9984   29.6989 C.3     1  UNL1        0.1303
     15 C           1.5826    1.7683   31.1521 C.3     1  UNL1        0.1646
     16 O           2.2357    0.4919   31.5927 O.3     1  UNL1       -0.3426
     17 C           2.5964   -0.5545   30.5802 C.3     1  UNL1        0.2275
     18 C           2.3041   -0.3243   29.1271 C.2     1  UNL1        0.2596
     19 O           2.6649   -1.3707   28.1146 O.2     1  UNL1       -0.2718
     20 C           0.8154    1.2026   19.0653 C.3     1  UNL1        0.1355
     21 C           3.1219    0.0139   18.9341 C.2     1  UNL1        0.2520
     22 O           3.8094    1.3167   19.2167 O.2     1  UNL1       -0.2696
     23 N           1.6249   -0.0432   18.8584 N.am    1  UNL1       -0.2971
     24 H           1.1736   -0.8983   18.6729 H       1  UNL1        0.1499
     25 C           4.6590   -5.0376   18.9563 C.3     1  UNL1        0.0382
     26 C           4.6379   -3.5539   18.7374 C.ar    1  UNL1        0.0078
     27 C           5.7161   -2.7442   18.0803 C.ar    1  UNL1        0.0028
     28 C           5.2794   -1.3091   18.0740 C.ar    1  UNL1        0.0112
     29 C           3.9314   -1.2319   18.7272 C.ar    1  UNL1        0.0825
     30 S           3.5348   -2.6192   19.1372 S.2     1  UNL1       -0.0868
@<TRIPOS>BOND
     1    25    26    1
     2    26    27   ar
     3    27    28   ar
     4    28    29   ar
     5    29    21    1
     6    21    22    2
     7    21    23   am
     8    23    20    1
     9     1    20    1
    10     1     2    1
    11     2     3    1
    12     3     7    1
    13     7     8   ar
    14     8     9   ar
    15     9    10   ar
    16    10    13    1
    17    13    14    1
    18    14    15    1
    19    15    16    1
    20    16    17    1
    21    17    18    1
    22    18    19    2
    23    10    11   ar
    24    11    12   ar
    25     3     4   am
    26     4     5    2
    27     4     6    1
    28    29    30   ar
    29    30    26   ar
    30     6     1    1
    31    12     7   ar
    32    18    13   am
    33    23    24    1
@<TRIPOS>MOLECULE
*****
 30 33 0 0 0
SMALL
GASTEIGER

@<TRIPOS>ATOM
      1 C           6.9413   -4.8185   28.4109 C.3     1  UNL1        0.2100
      2 C           6.7137   -3.5291   29.1427 C.3     1  UNL1        0.1468
      3 N           6.6247   -3.8371   30.6080 N.am    1  UNL1       -0.2213
      4 C           6.7974   -5.3170   30.7818 C.2     1  UNL1        0.4088
      5 O           6.7778   -6.0599   32.0848 O.2     1  UNL1       -0.2258
      6 O           6.9930   -5.9236   29.4240 O.3     1  UNL1       -0.4345
      7 C           6.4022   -2.8403   31.7066 C.ar    1  UNL1        0.0572
      8 C           7.4567   -1.8203   32.0187 C.ar    1  UNL1        0.0163
      9 C           7.2342   -0.8236   33.1173 C.ar    1  UNL1        0.0162
     10 C           5.9571   -0.8469   33.9038 C.ar    1  UNL1        0.0541
     11 C           4.9026   -1.8669   33.5917 C.ar    1  UNL1        0.0162
     12 C           5.1252   -2.8637   32.4931 C.ar    1  UNL1        0.0163
     13 N           5.7346    0.1499   35.0025 N.am    1  UNL1       -0.2540
     14 C           6.0727   -0.2077   36.4194 C.3     1  UNL1        0.1303
     15 C           5.8502    0.7891   37.5181 C.3     1  UNL1        0.1646
     16 O           5.2896    2.1435   37.1997 O.3     1  UNL1       -0.3426
     17 C           4.9515    2.5011   35.7826 C.3     1  UNL1        0.2275
     18 C           5.1740    1.5043   34.6841 C.2     1  UNL1        0.2596
     19 O           4.8359    1.8619   33.2671 O.2     1  UNL1       -0.2718
     20 C           7.0909   -4.9754   26.9266 C.3     1  UNL1        0.1355
     21 C           6.4642   -4.2114   24.5238 C.2     1  UNL1        0.2520
     22 O           7.6475   -4.9549   23.9788 O.2     1  UNL1       -0.2696
     23 N           6.1859   -4.2217   25.9978 N.am    1  UNL1       -0.2971
     24 H           5.4093   -3.7337   26.3555 H       1  UNL1        0.1499
     25 C           3.8871   -2.6601   20.1842 C.3     1  UNL1        0.0382
     26 C           4.3746   -2.7446   21.6002 C.ar    1  UNL1        0.0078
     27 C           3.9586   -1.8509   22.7308 C.ar    1  UNL1        0.0028
     28 C           4.6907   -2.2916   23.9636 C.ar    1  UNL1        0.0112
     29 C           5.5592   -3.4576   23.5949 C.ar    1  UNL1        0.0825
     30 S           5.3639   -3.7376   22.1343 S.2     1  UNL1       -0.0868
@<TRIPOS>BOND
     1    25    26    1
     2    26    27   ar
     3    27    28   ar
     4    28    29   ar
     5    29    21    1
     6    21    22    2
     7    21    23   am
     8    23    20    1
     9     1    20    1
    10     1     2    1
    11     2     3    1
    12     3     7    1
    13     7     8   ar
    14     8     9   ar
    15     9    10   ar
    16    10    13    1
    17    13    14    1
    18    14    15    1
    19    15    16    1
    20    16    17    1
    21    17    18    1
    22    18    19    2
    23    10    11   ar
    24    11    12   ar
    25     3     4   am
    26     4     5    2
    27     4     6    1
    28    29    30   ar
    29    30    26   ar
    30     6     1    1
    31    12     7   ar
    32    18    13   am
    33    23    24    1
