@<TRIPOS>MOLECULE
*****
 41 44 0 0 0
SMALL
GASTEIGER

@<TRIPOS>ATOM
      1 C           6.7664   -3.4258   30.0148 C.ar    1  UNL1        0.0611
      2 C           6.8483   -4.2997   31.2312 C.ar    1  UNL1        0.1037
      3 N           7.0276   -5.7166   30.7727 N.ar    1  UNL1       -0.2269
      4 C           7.0565   -5.7184   29.2729 C.ar    1  UNL1        0.1407
      5 N           7.2090   -6.8262   28.2733 N.ar    1  UNL1       -0.3374
      6 C           7.2001   -6.5183   26.8053 C.ar    1  UNL1        0.0735
      7 C           7.0387   -5.1025   26.3370 C.ar    1  UNL1        0.0186
      8 C           6.8862   -3.9946   27.3366 C.ar    1  UNL1        0.0047
      9 C           6.8951   -4.3025   28.8046 C.ar    1  UNL1        0.0386
     10 H           7.3149   -7.7555   28.5807 H       1  UNL1        0.1674
     11 C           7.0298   -4.7946   24.8689 C.ar    1  UNL1        0.0208
     12 C           6.1678   -3.6867   24.3401 C.ar    1  UNL1        0.0064
     13 C           6.1589   -3.3788   22.8720 C.ar    1  UNL1        0.0577
     14 C           7.0120   -4.1788   21.9328 C.ar    1  UNL1        0.2249
     15 N           7.8740   -5.2867   22.4616 N.ar    1  UNL1       -0.2101
     16 C           7.8828   -5.5946   23.9296 C.ar    1  UNL1        0.1021
     17 O           7.0031   -3.8710   20.4648 O.3     1  UNL1       -0.4602
     18 C           7.0111   -2.4457   19.9973 C.3     1  UNL1        0.2085
     19 C           6.3726   -2.0817   18.6896 C.3     1  UNL1        0.0647
     20 C           5.2297   -2.8963   18.1605 C.3     1  UNL1        0.0760
     21 N           4.0202   -3.1351   19.0149 N.3     1  UNL1       -0.2702
     22 C           3.2977   -1.9750   19.6332 C.3     1  UNL1        0.0897
     23 C           3.5331   -4.5340   19.2510 C.3     1  UNL1        0.0897
     24 C           6.5873   -1.9365   30.0096 C.2     1  UNL1        0.2015
     25 O           7.7644   -1.0404   29.7621 O.2     1  UNL1       -0.2864
     26 C           2.9116   -0.5908   29.3553 C.ar    1  UNL1        0.0920
     27 C           2.5184   -0.1571   30.7364 C.ar    1  UNL1        0.0204
     28 C           3.4816   -0.3166   31.8752 C.ar    1  UNL1        0.0312
     29 C           4.8379   -0.9097   31.6330 C.ar    1  UNL1        0.1454
     30 F           5.8010   -1.0692   32.7718 F       1  UNL1       -0.2040
     31 C           5.2310   -1.3433   30.2519 C.ar    1  UNL1        0.0951
     32 C           4.2678   -1.1839   29.1131 C.ar    1  UNL1        0.1598
     33 F           4.6610   -1.6176   27.7320 F       1  UNL1       -0.2026
     34 N           1.9484   -0.4313   28.2165 N.pl3   1  UNL1       -0.2166
     35 H           1.9200   -1.1037   27.4979 H       1  UNL1        0.1734
     36 S           1.0285    0.7527   28.1724 S.O2    1  UNL1        0.0540
     37 O          -0.1169   -0.1217   28.5889 O.2     1  UNL1       -0.1545
     38 O           2.1739    1.6271   27.7559 O.2     1  UNL1       -0.1545
     39 C           0.1087    1.9367   28.1284 C.3     1  UNL1        0.1724
     40 C          -0.7819    2.0674   25.6911 C.3     1  UNL1        0.0019
     41 C          -1.0406    1.9582   27.1646 C.3     1  UNL1        0.0273
@<TRIPOS>BOND
     1    40    41    1
     2    41    39    1
     3    39    36    1
     4    36    37    2
     5    36    38    2
     6    36    34    1
     7    34    26    1
     8    26    27   ar
     9    27    28   ar
    10    28    29   ar
    11    29    30    1
    12    29    31   ar
    13    31    24    1
    14    24    25    2
    15    24     1    1
    16     1     2   ar
    17     2     3   ar
    18     3     4   ar
    19     4     5   ar
    20     5     6   ar
    21     6     7   ar
    22     7    11    1
    23    11    12   ar
    24    12    13   ar
    25    13    14   ar
    26    14    17    1
    27    17    18    1
    28    18    19    1
    29    19    20    1
    30    20    21    1
    31    21    22    1
    32    21    23    1
    33    14    15   ar
    34    15    16   ar
    35     7     8   ar
    36     8     9   ar
    37    31    32   ar
    38    32    33    1
    39    32    26   ar
    40     9     1   ar
    41     9     4    1
    42    16    11   ar
    43    34    35    1
    44     5    10    1
@<TRIPOS>MOLECULE
*****
 41 44 0 0 0
SMALL
GASTEIGER

@<TRIPOS>ATOM
      1 C           1.0602    1.1328   22.8242 C.ar    1  UNL1        0.0611
      2 C           0.3246    1.9893   23.8118 C.ar    1  UNL1        0.1037
      3 N           0.8653    1.6894   25.1784 N.ar    1  UNL1       -0.2269
      4 C           1.9349    0.6476   25.0354 C.ar    1  UNL1        0.1407
      5 N           2.8148   -0.0323   26.0422 N.ar    1  UNL1       -0.3374
      6 C           3.8151   -1.0562   25.5938 C.ar    1  UNL1        0.0735
      7 C           3.9356   -1.4001   24.1388 C.ar    1  UNL1        0.0186
      8 C           3.0557   -0.7202   23.1320 C.ar    1  UNL1        0.0047
      9 C           2.0554    0.3036   23.5804 C.ar    1  UNL1        0.0386
     10 H           2.7358    0.1934   26.9972 H       1  UNL1        0.1674
     11 C           4.9360   -2.4240   23.6904 C.ar    1  UNL1        0.0208
     12 C           6.2349   -2.5754   24.4252 C.ar    1  UNL1        0.0064
     13 C           7.2353   -3.5993   23.9768 C.ar    1  UNL1        0.0577
     14 C           6.9367   -4.4718   22.7938 C.ar    1  UNL1        0.2249
     15 N           5.6377   -4.3204   22.0591 N.ar    1  UNL1       -0.2101
     16 C           4.6374   -3.2965   22.5074 C.ar    1  UNL1        0.1021
     17 O           7.9370   -5.4957   22.3455 O.3     1  UNL1       -0.4602
     18 C           8.8123   -6.1804   23.3529 C.3     1  UNL1        0.2085
     19 C           8.2739   -7.3247   24.1597 C.3     1  UNL1        0.0647
     20 C           9.0475   -7.8429   25.3356 C.3     1  UNL1        0.0760
     21 N           8.4589   -7.7666   26.7131 N.3     1  UNL1       -0.2702
     22 C           8.2116   -9.0234   27.4937 C.3     1  UNL1        0.0897
     23 C           8.1175   -6.4335   27.3101 C.3     1  UNL1        0.0897
     24 C           0.8393    1.1097   21.3407 C.2     1  UNL1        0.2015
     25 O          -0.5541    1.0310   20.7910 O.2     1  UNL1       -0.2864
     26 C           3.5339    0.0258   18.6361 C.ar    1  UNL1        0.0920
     27 C           4.3570    1.2760   18.5392 C.ar    1  UNL1        0.0204
     28 C           4.0076    2.4707   19.3761 C.ar    1  UNL1        0.0312
     29 C           2.8350    2.4154   20.3100 C.ar    1  UNL1        0.1454
     30 F           2.4856    3.6101   21.1469 F       1  UNL1       -0.2040
     31 C           2.0119    1.1651   20.4068 C.ar    1  UNL1        0.0951
     32 C           2.3613   -0.0296   19.5699 C.ar    1  UNL1        0.1598
     33 F           1.5381   -1.2798   19.6668 F       1  UNL1       -0.2026
     34 N           3.8833   -1.1690   17.7992 N.pl3   1  UNL1       -0.2166
     35 H           3.3595   -1.3742   16.9912 H       1  UNL1        0.1734
     36 S           5.0308   -2.0510   18.1932 S.O2    1  UNL1        0.0540
     37 O           4.1205   -2.8333   19.0929 O.2     1  UNL1       -0.1545
     38 O           5.9410   -1.2687   17.2935 O.2     1  UNL1       -0.1545
     39 C           6.1783   -2.9330   18.5872 C.3     1  UNL1        0.1724
     40 C           7.2567   -1.5189   20.4814 C.3     1  UNL1        0.0019
     41 C           7.3948   -2.3377   19.2321 C.3     1  UNL1        0.0273
@<TRIPOS>BOND
     1    40    41    1
     2    41    39    1
     3    39    36    1
     4    36    37    2
     5    36    38    2
     6    36    34    1
     7    34    26    1
     8    26    27   ar
     9    27    28   ar
    10    28    29   ar
    11    29    30    1
    12    29    31   ar
    13    31    24    1
    14    24    25    2
    15    24     1    1
    16     1     2   ar
    17     2     3   ar
    18     3     4   ar
    19     4     5   ar
    20     5     6   ar
    21     6     7   ar
    22     7    11    1
    23    11    12   ar
    24    12    13   ar
    25    13    14   ar
    26    14    17    1
    27    17    18    1
    28    18    19    1
    29    19    20    1
    30    20    21    1
    31    21    22    1
    32    21    23    1
    33    14    15   ar
    34    15    16   ar
    35     7     8   ar
    36     8     9   ar
    37    31    32   ar
    38    32    33    1
    39    32    26   ar
    40     9     1   ar
    41     9     4    1
    42    16    11   ar
    43    34    35    1
    44     5    10    1
@<TRIPOS>MOLECULE
*****
 41 44 0 0 0
SMALL
GASTEIGER

@<TRIPOS>ATOM
      1 C           4.9367   -3.2992   22.5192 C.ar    1  UNL1        0.0611
      2 C           5.9591   -3.9139   23.4285 C.ar    1  UNL1        0.1037
      3 N           5.9302   -3.1682   24.7297 N.ar    1  UNL1       -0.2269
      4 C           4.8900   -2.0926   24.6246 C.ar    1  UNL1        0.1407
      5 N           4.4227   -1.0499   25.5963 N.ar    1  UNL1       -0.3374
      6 C           3.3413   -0.0881   25.2019 C.ar    1  UNL1        0.0735
      7 C           2.7273   -0.1691   23.8357 C.ar    1  UNL1        0.0186
      8 C           3.1946   -1.2118   22.8639 C.ar    1  UNL1        0.0047
      9 C           4.2760   -2.1735   23.2584 C.ar    1  UNL1        0.0386
     10 H           4.8256   -0.9968   26.4930 H       1  UNL1        0.1674
     11 C           1.6458    0.7927   23.4413 C.ar    1  UNL1        0.0208
     12 C           1.1559    0.8304   22.0241 C.ar    1  UNL1        0.0064
     13 C           0.0744    1.7922   21.6297 C.ar    1  UNL1        0.0577
     14 C          -0.5170    2.7163   22.6525 C.ar    1  UNL1        0.2249
     15 N          -0.0270    2.6786   24.0698 N.ar    1  UNL1       -0.2101
     16 C           1.0544    1.7169   24.4641 C.ar    1  UNL1        0.1021
     17 O          -1.5984    3.6781   22.2582 O.3     1  UNL1       -0.4602
     18 C          -2.3050    3.5149   20.9452 C.3     1  UNL1        0.2085
     19 C          -3.7192    3.9903   20.7903 C.3     1  UNL1        0.0647
     20 C          -4.8511    3.1638   21.3248 C.3     1  UNL1        0.0760
     21 N          -5.4638    3.5000   22.6520 N.3     1  UNL1       -0.2702
     22 C          -4.7384    3.1606   23.9204 C.3     1  UNL1        0.0897
     23 C          -6.8017    4.1755   22.7109 C.3     1  UNL1        0.0897
     24 C           4.6291   -3.7337   21.1169 C.2     1  UNL1        0.2015
     25 O           3.9268   -5.0363   20.8724 O.2     1  UNL1       -0.2864
     26 C           4.4036   -1.1010   18.1558 C.ar    1  UNL1        0.0920
     27 C           5.8130   -1.1293   17.6433 C.ar    1  UNL1        0.0204
     28 C           6.8278   -2.0258   18.2887 C.ar    1  UNL1        0.0312
     29 C           6.4332   -2.8939   19.4465 C.ar    1  UNL1        0.1454
     30 F           7.4480   -3.7904   20.0919 F       1  UNL1       -0.2040
     31 C           5.0238   -2.8656   19.9590 C.ar    1  UNL1        0.0951
     32 C           4.0090   -1.9691   19.3136 C.ar    1  UNL1        0.1598
     33 F           2.5995   -1.9408   19.8262 F       1  UNL1       -0.2026
     34 N           3.3888   -0.2045   17.5104 N.pl3   1  UNL1       -0.2166
     35 H           3.0464   -0.4153   16.6118 H       1  UNL1        0.1734
     36 S           2.8955    1.0132   18.2343 S.O2    1  UNL1        0.0540
     37 O           4.2822    1.5849   18.2174 O.2     1  UNL1       -0.1545
     38 O           1.5089    0.4415   18.2512 O.2     1  UNL1       -0.1545
     39 C           2.4023    2.2308   18.9581 C.3     1  UNL1        0.1724
     40 C           1.0006    4.3028   18.2562 C.3     1  UNL1        0.0019
     41 C           2.2921    3.5402   18.2346 C.3     1  UNL1        0.0273
@<TRIPOS>BOND
     1    40    41    1
     2    41    39    1
     3    39    36    1
     4    36    37    2
     5    36    38    2
     6    36    34    1
     7    34    26    1
     8    26    27   ar
     9    27    28   ar
    10    28    29   ar
    11    29    30    1
    12    29    31   ar
    13    31    24    1
    14    24    25    2
    15    24     1    1
    16     1     2   ar
    17     2     3   ar
    18     3     4   ar
    19     4     5   ar
    20     5     6   ar
    21     6     7   ar
    22     7    11    1
    23    11    12   ar
    24    12    13   ar
    25    13    14   ar
    26    14    17    1
    27    17    18    1
    28    18    19    1
    29    19    20    1
    30    20    21    1
    31    21    22    1
    32    21    23    1
    33    14    15   ar
    34    15    16   ar
    35     7     8   ar
    36     8     9   ar
    37    31    32   ar
    38    32    33    1
    39    32    26   ar
    40     9     1   ar
    41     9     4    1
    42    16    11   ar
    43    34    35    1
    44     5    10    1
@<TRIPOS>MOLECULE
*****
 41 44 0 0 0
SMALL
GASTEIGER

@<TRIPOS>ATOM
      1 C           5.5079   -2.5712   19.4214 C.ar    1  UNL1        0.0611
      2 C           6.1625   -1.8998   18.2506 C.ar    1  UNL1        0.1037
      3 N           7.6462   -2.0737   18.3867 N.ar    1  UNL1       -0.2269
      4 C           7.9085   -2.8527   19.6415 C.ar    1  UNL1        0.1407
      5 N           9.1800   -3.3217   20.2843 N.ar    1  UNL1       -0.3374
      6 C           9.1299   -4.0981   21.5667 C.ar    1  UNL1        0.0735
      7 C           7.8083   -4.4056   22.2062 C.ar    1  UNL1        0.0186
      8 C           6.5368   -3.9366   21.5633 C.ar    1  UNL1        0.0047
      9 C           6.5869   -3.1601   20.2810 C.ar    1  UNL1        0.0386
     10 H          10.0473   -3.1199   19.8646 H       1  UNL1        0.1674
     11 C           7.7583   -5.1821   23.4886 C.ar    1  UNL1        0.0208
     12 C           7.0483   -4.6146   24.6818 C.ar    1  UNL1        0.0064
     13 C           6.9983   -5.3911   25.9643 C.ar    1  UNL1        0.0577
     14 C           7.6583   -6.7352   26.0534 C.ar    1  UNL1        0.2249
     15 N           8.3683   -7.3027   24.8602 N.ar    1  UNL1       -0.2101
     16 C           8.4183   -6.5262   23.5778 C.ar    1  UNL1        0.1021
     17 O           7.6083   -7.5117   27.3358 O.3     1  UNL1       -0.4602
     18 C           8.8753   -7.8130   28.0800 C.3     1  UNL1        0.2085
     19 C           9.1872   -7.0865   29.3548 C.3     1  UNL1        0.0647
     20 C           8.8712   -5.6258   29.4822 C.3     1  UNL1        0.0760
     21 N           7.5753   -5.1898   30.0989 N.3     1  UNL1       -0.2702
     22 C           7.1146   -5.8023   31.3883 C.3     1  UNL1        0.0897
     23 C           6.7399   -4.1412   29.4261 C.3     1  UNL1        0.0897
     24 C           4.0331   -2.6415   19.6861 C.2     1  UNL1        0.2015
     25 O           3.2416   -3.8244   19.2128 O.2     1  UNL1       -0.2864
     26 C           2.6515   -0.4090   22.6623 C.ar    1  UNL1        0.0920
     27 C           1.9831    0.6969   21.9004 C.ar    1  UNL1        0.0204
     28 C           1.9981    0.6900   20.4005 C.ar    1  UNL1        0.0312
     29 C           2.6814   -0.4228   19.6624 C.ar    1  UNL1        0.1454
     30 F           2.6963   -0.4297   18.1625 F       1  UNL1       -0.2040
     31 C           3.3497   -1.5286   20.4242 C.ar    1  UNL1        0.0951
     32 C           3.3348   -1.5217   21.9241 C.ar    1  UNL1        0.1598
     33 F           4.0032   -2.6276   22.6859 F       1  UNL1       -0.2026
     34 N           2.6365   -0.4020   24.1622 N.pl3   1  UNL1       -0.2166
     35 H           1.7886   -0.5269   24.6466 H       1  UNL1        0.1734
     36 S           3.9135   -0.2048   24.9240 S.O2    1  UNL1        0.0540
     37 O           3.7481   -1.5572   25.5514 O.2     1  UNL1       -0.1545
     38 O           4.0790    1.1476   24.2966 O.2     1  UNL1       -0.1545
     39 C           5.1905   -0.0075   25.6858 C.3     1  UNL1        0.1724
     40 C           6.7903   -1.0055   23.8983 C.3     1  UNL1        0.0019
     41 C           6.5020    0.0161   24.9581 C.3     1  UNL1        0.0273
@<TRIPOS>BOND
     1    40    41    1
     2    41    39    1
     3    39    36    1
     4    36    37    2
     5    36    38    2
     6    36    34    1
     7    34    26    1
     8    26    27   ar
     9    27    28   ar
    10    28    29   ar
    11    29    30    1
    12    29    31   ar
    13    31    24    1
    14    24    25    2
    15    24     1    1
    16     1     2   ar
    17     2     3   ar
    18     3     4   ar
    19     4     5   ar
    20     5     6   ar
    21     6     7   ar
    22     7    11    1
    23    11    12   ar
    24    12    13   ar
    25    13    14   ar
    26    14    17    1
    27    17    18    1
    28    18    19    1
    29    19    20    1
    30    20    21    1
    31    21    22    1
    32    21    23    1
    33    14    15   ar
    34    15    16   ar
    35     7     8   ar
    36     8     9   ar
    37    31    32   ar
    38    32    33    1
    39    32    26   ar
    40     9     1   ar
    41     9     4    1
    42    16    11   ar
    43    34    35    1
    44     5    10    1
@<TRIPOS>MOLECULE
*****
 41 44 0 0 0
SMALL
GASTEIGER

@<TRIPOS>ATOM
      1 C           0.4600    2.3597   22.8392 C.ar    1  UNL1        0.0611
      2 C          -0.6765    2.9439   22.0537 C.ar    1  UNL1        0.1037
      3 N          -0.8315    2.1414   20.7959 N.ar    1  UNL1       -0.2269
      4 C           0.2092    1.0611   20.8041 C.ar    1  UNL1        0.1407
      5 N           0.5331   -0.0279   19.8248 N.ar    1  UNL1       -0.3374
      6 C           1.6552   -0.9820   20.1084 C.ar    1  UNL1        0.0735
      7 C           2.4534   -0.8471   21.3712 C.ar    1  UNL1        0.0186
      8 C           2.1295    0.2419   22.3505 C.ar    1  UNL1        0.0047
      9 C           1.0074    1.1960   22.0669 C.ar    1  UNL1        0.0386
     10 H           0.0092   -0.1165   18.9960 H       1  UNL1        0.1674
     11 C           3.5756   -1.8014   21.6547 C.ar    1  UNL1        0.0208
     12 C           4.0063   -2.0535   23.0692 C.ar    1  UNL1        0.0064
     13 C           5.1285   -3.0078   23.3527 C.ar    1  UNL1        0.0577
     14 C           5.8198   -3.7097   22.2217 C.ar    1  UNL1        0.2249
     15 N           5.3890   -3.4575   20.8071 N.ar    1  UNL1       -0.2101
     16 C           4.2669   -2.5033   20.5237 C.ar    1  UNL1        0.1021
     17 O           6.9419   -4.6639   22.5051 O.3     1  UNL1       -0.4602
     18 C           7.7481   -4.5214   23.7620 C.3     1  UNL1        0.2085
     19 C           7.5175   -5.4577   24.9111 C.3     1  UNL1        0.0647
     20 C           7.8884   -5.0415   26.3036 C.3     1  UNL1        0.0760
     21 N           6.8585   -4.4207   27.2001 N.3     1  UNL1       -0.2702
     22 C           6.3859   -3.0205   26.9425 C.3     1  UNL1        0.0897
     23 C           6.3011   -5.1999   28.3543 C.3     1  UNL1        0.0897
     24 C           0.9611    2.8525   24.1643 C.2     1  UNL1        0.2015
     25 O           2.0703    3.8607   24.2189 O.2     1  UNL1       -0.2864
     26 C           0.4025    0.6970   27.4495 C.ar    1  UNL1        0.0920
     27 C          -0.8631    1.3060   27.9762 C.ar    1  UNL1        0.0204
     28 C          -1.5206    2.4304   27.2324 C.ar    1  UNL1        0.0312
     29 C          -0.9126    2.9459   25.9617 C.ar    1  UNL1        0.1454
     30 F          -1.5701    4.0703   25.2179 F       1  UNL1       -0.2040
     31 C           0.3530    2.3370   25.4350 C.ar    1  UNL1        0.0951
     32 C           1.0105    1.2126   26.1789 C.ar    1  UNL1        0.1598
     33 F           2.2761    0.6037   25.6520 F       1  UNL1       -0.2026
     34 N           1.0600   -0.4274   28.1934 N.pl3   1  UNL1       -0.2166
     35 H           0.5860   -1.2819   28.3133 H       1  UNL1        0.1734
     36 S           2.4397   -0.2498   28.7545 S.O2    1  UNL1        0.0540
     37 O           2.9429   -1.3473   27.8644 O.2     1  UNL1       -0.1545
     38 O           1.9365    0.8477   29.6446 O.2     1  UNL1       -0.1545
     39 C           3.8194   -0.0722   29.3157 C.3     1  UNL1        0.1724
     40 C           4.6950    1.7272   27.6586 C.3     1  UNL1        0.0019
     41 C           4.9168    0.4724   28.4501 C.3     1  UNL1        0.0273
@<TRIPOS>BOND
     1    40    41    1
     2    41    39    1
     3    39    36    1
     4    36    37    2
     5    36    38    2
     6    36    34    1
     7    34    26    1
     8    26    27   ar
     9    27    28   ar
    10    28    29   ar
    11    29    30    1
    12    29    31   ar
    13    31    24    1
    14    24    25    2
    15    24     1    1
    16     1     2   ar
    17     2     3   ar
    18     3     4   ar
    19     4     5   ar
    20     5     6   ar
    21     6     7   ar
    22     7    11    1
    23    11    12   ar
    24    12    13   ar
    25    13    14   ar
    26    14    17    1
    27    17    18    1
    28    18    19    1
    29    19    20    1
    30    20    21    1
    31    21    22    1
    32    21    23    1
    33    14    15   ar
    34    15    16   ar
    35     7     8   ar
    36     8     9   ar
    37    31    32   ar
    38    32    33    1
    39    32    26   ar
    40     9     1   ar
    41     9     4    1
    42    16    11   ar
    43    34    35    1
    44     5    10    1
@<TRIPOS>MOLECULE
*****
 41 44 0 0 0
SMALL
GASTEIGER

@<TRIPOS>ATOM
      1 C           4.9975   -3.5291   20.5289 C.ar    1  UNL1        0.0611
      2 C           6.1910   -4.4198   20.3497 C.ar    1  UNL1        0.1037
      3 N           6.9668   -4.4190   21.6335 N.ar    1  UNL1       -0.2269
      4 C           6.2528   -3.5279   22.6061 C.ar    1  UNL1        0.1407
      5 N           6.5536   -3.1462   24.0252 N.ar    1  UNL1       -0.3374
      6 C           5.6373   -2.2145   24.7615 C.ar    1  UNL1        0.0735
      7 C           4.4201   -1.6645   24.0789 C.ar    1  UNL1        0.0186
      8 C           4.1193   -2.0462   22.6598 C.ar    1  UNL1        0.0047
      9 C           5.0356   -2.9779   21.9234 C.ar    1  UNL1        0.0386
     10 H           7.3525   -3.5071   24.4733 H       1  UNL1        0.1674
     11 C           3.5038   -0.7328   24.8153 C.ar    1  UNL1        0.0208
     12 C           2.4261    0.0011   24.0736 C.ar    1  UNL1        0.0064
     13 C           1.5098    0.9328   24.8101 C.ar    1  UNL1        0.0577
     14 C           1.6712    1.1307   26.2882 C.ar    1  UNL1        0.2249
     15 N           2.7489    0.3968   27.0298 N.ar    1  UNL1       -0.2101
     16 C           3.6652   -0.5349   26.2934 C.ar    1  UNL1        0.1021
     17 O           0.7549    2.0623   27.0246 O.3     1  UNL1       -0.4602
     18 C          -0.6693    1.6671   27.2802 C.3     1  UNL1        0.2085
     19 C          -0.9740    0.4579   28.1140 C.3     1  UNL1        0.0647
     20 C          -0.8071    0.5127   29.6036 C.3     1  UNL1        0.0760
     21 N           0.4976    0.9558   30.1963 N.3     1  UNL1       -0.2702
     22 C           1.6996    0.0620   30.1165 C.3     1  UNL1        0.0897
     23 C           0.6003    2.2926   30.8689 C.3     1  UNL1        0.0897
     24 C           3.9497   -3.2404   19.4951 C.2     1  UNL1        0.2015
     25 O           3.0243   -4.3297   19.0405 O.2     1  UNL1       -0.2864
     26 C           2.4903    0.3468   18.6273 C.ar    1  UNL1        0.0920
     27 C           3.5827    0.8943   17.7573 C.ar    1  UNL1        0.0204
     28 C           4.7974    0.0637   17.4666 C.ar    1  UNL1        0.0312
     29 C           4.9198   -1.3145   18.0458 C.ar    1  UNL1        0.1454
     30 F           6.1344   -2.1452   17.7551 F       1  UNL1       -0.2040
     31 C           3.8274   -1.8621   18.9158 C.ar    1  UNL1        0.0951
     32 C           2.6127   -1.0314   19.2065 C.ar    1  UNL1        0.1598
     33 F           1.5203   -1.5791   20.0766 F       1  UNL1       -0.2026
     34 N           1.2756    1.1774   18.9180 N.pl3   1  UNL1       -0.2166
     35 H           0.6112    1.3423   18.2105 H       1  UNL1        0.1734
     36 S           1.0733    1.7568   20.2867 S.O2    1  UNL1        0.0540
     37 O           2.2989    2.6032   20.1096 O.2     1  UNL1       -0.1545
     38 O          -0.1524    0.9103   20.4638 O.2     1  UNL1       -0.1545
     39 C           0.8708    2.3361   21.6554 C.3     1  UNL1        0.1724
     40 C          -0.9625    3.2557   23.2502 C.3     1  UNL1        0.0019
     41 C          -0.2794    3.2633   21.9148 C.3     1  UNL1        0.0273
@<TRIPOS>BOND
     1    40    41    1
     2    41    39    1
     3    39    36    1
     4    36    37    2
     5    36    38    2
     6    36    34    1
     7    34    26    1
     8    26    27   ar
     9    27    28   ar
    10    28    29   ar
    11    29    30    1
    12    29    31   ar
    13    31    24    1
    14    24    25    2
    15    24     1    1
    16     1     2   ar
    17     2     3   ar
    18     3     4   ar
    19     4     5   ar
    20     5     6   ar
    21     6     7   ar
    22     7    11    1
    23    11    12   ar
    24    12    13   ar
    25    13    14   ar
    26    14    17    1
    27    17    18    1
    28    18    19    1
    29    19    20    1
    30    20    21    1
    31    21    22    1
    32    21    23    1
    33    14    15   ar
    34    15    16   ar
    35     7     8   ar
    36     8     9   ar
    37    31    32   ar
    38    32    33    1
    39    32    26   ar
    40     9     1   ar
    41     9     4    1
    42    16    11   ar
    43    34    35    1
    44     5    10    1
@<TRIPOS>MOLECULE
*****
 41 44 0 0 0
SMALL
GASTEIGER

@<TRIPOS>ATOM
      1 C           5.5204   -2.4031   19.4409 C.ar    1  UNL1        0.0611
      2 C           6.0076   -1.5603   18.2997 C.ar    1  UNL1        0.1037
      3 N           7.4973   -1.7134   18.2134 N.ar    1  UNL1       -0.2269
      4 C           7.9307   -2.6508   19.3013 C.ar    1  UNL1        0.1407
      5 N           9.2801   -3.1714   19.6991 N.ar    1  UNL1       -0.3374
      6 C           9.4076   -4.1181   20.8555 C.ar    1  UNL1        0.0735
      7 C           8.1858   -4.5443   21.6141 C.ar    1  UNL1        0.0186
      8 C           6.8365   -4.0238   21.2163 C.ar    1  UNL1        0.0047
      9 C           6.7089   -3.0771   20.0599 C.ar    1  UNL1        0.0386
     10 H          10.0820   -2.8916   19.2012 H       1  UNL1        0.1674
     11 C           8.3134   -5.4911   22.7706 C.ar    1  UNL1        0.0208
     12 C           9.1586   -6.7236   22.6412 C.ar    1  UNL1        0.0064
     13 C           9.2862   -7.6704   23.7977 C.ar    1  UNL1        0.0577
     14 C           8.5685   -7.3847   25.0835 C.ar    1  UNL1        0.2249
     15 N           7.7233   -6.1522   25.2129 N.ar    1  UNL1       -0.2101
     16 C           7.5958   -5.2055   24.0565 C.ar    1  UNL1        0.1021
     17 O           8.6961   -8.3314   26.2400 O.3     1  UNL1       -0.4602
     18 C           8.1381   -7.9568   27.5809 C.3     1  UNL1        0.2085
     19 C           8.9898   -7.2129   28.5665 C.3     1  UNL1        0.0647
     20 C           8.6827   -5.7815   28.8931 C.3     1  UNL1        0.0760
     21 N           7.3330   -5.4078   29.4302 N.3     1  UNL1       -0.2702
     22 C           6.3280   -4.7430   28.5368 C.3     1  UNL1        0.0897
     23 C           6.9881   -5.6990   30.8607 C.3     1  UNL1        0.0897
     24 C           4.0949   -2.5467   19.8851 C.2     1  UNL1        0.2015
     25 O           3.2763   -3.7120   19.4143 O.2     1  UNL1       -0.2864
     26 C           2.1984    0.7044   21.1440 C.ar    1  UNL1        0.0920
     27 C           2.2741    0.5189   22.6305 C.ar    1  UNL1        0.0204
     28 C           2.9566   -0.6885   23.2020 C.ar    1  UNL1        0.0312
     29 C           3.5636   -1.7103   22.2869 C.ar    1  UNL1        0.1454
     30 F           4.2461   -2.9176   22.8583 F       1  UNL1       -0.2040
     31 C           3.4879   -1.5248   20.8003 C.ar    1  UNL1        0.0951
     32 C           2.8054   -0.3175   20.2289 C.ar    1  UNL1        0.1598
     33 F           2.7298   -0.1321   18.7423 F       1  UNL1       -0.2026
     34 N           1.5159    1.9117   20.5726 N.pl3   1  UNL1       -0.2166
     35 H           1.8127    2.2830   19.7105 H       1  UNL1        0.1734
     36 S           0.3811    2.5531   21.3147 S.O2    1  UNL1        0.0540
     37 O          -0.5357    1.4561   20.8610 O.2     1  UNL1       -0.1545
     38 O           1.2980    3.6502   21.7684 O.2     1  UNL1       -0.1545
     39 C          -0.7536    3.1947   22.0568 C.3     1  UNL1        0.1724
     40 C          -2.0044    3.3800   24.3265 C.3     1  UNL1        0.0019
     41 C          -0.7230    3.2698   23.5546 C.3     1  UNL1        0.0273
@<TRIPOS>BOND
     1    40    41    1
     2    41    39    1
     3    39    36    1
     4    36    37    2
     5    36    38    2
     6    36    34    1
     7    34    26    1
     8    26    27   ar
     9    27    28   ar
    10    28    29   ar
    11    29    30    1
    12    29    31   ar
    13    31    24    1
    14    24    25    2
    15    24     1    1
    16     1     2   ar
    17     2     3   ar
    18     3     4   ar
    19     4     5   ar
    20     5     6   ar
    21     6     7   ar
    22     7    11    1
    23    11    12   ar
    24    12    13   ar
    25    13    14   ar
    26    14    17    1
    27    17    18    1
    28    18    19    1
    29    19    20    1
    30    20    21    1
    31    21    22    1
    32    21    23    1
    33    14    15   ar
    34    15    16   ar
    35     7     8   ar
    36     8     9   ar
    37    31    32   ar
    38    32    33    1
    39    32    26   ar
    40     9     1   ar
    41     9     4    1
    42    16    11   ar
    43    34    35    1
    44     5    10    1
@<TRIPOS>MOLECULE
*****
 41 44 0 0 0
SMALL
GASTEIGER

@<TRIPOS>ATOM
      1 C           4.6107   -1.9402   18.6212 C.ar    1  UNL1        0.0611
      2 C           5.3951   -3.1453   18.1942 C.ar    1  UNL1        0.1037
      3 N           5.6677   -3.9766   19.4127 N.ar    1  UNL1       -0.2269
      4 C           5.0518   -3.2852   20.5928 C.ar    1  UNL1        0.1407
      5 N           5.0014   -3.6391   22.0495 N.ar    1  UNL1       -0.3374
      6 C           4.2977   -2.7344   23.0171 C.ar    1  UNL1        0.0735
      7 C           3.6444   -1.4758   22.5280 C.ar    1  UNL1        0.0186
      8 C           3.6948   -1.1220   21.0712 C.ar    1  UNL1        0.0047
      9 C           4.3985   -2.0267   20.1036 C.ar    1  UNL1        0.0386
     10 H           5.4301   -4.4651   22.3706 H       1  UNL1        0.1674
     11 C           2.9406   -0.5711   23.4957 C.ar    1  UNL1        0.0208
     12 C           1.8967    0.3869   23.0034 C.ar    1  UNL1        0.0064
     13 C           1.1930    1.2916   23.9711 C.ar    1  UNL1        0.0577
     14 C           1.5332    1.2382   25.4311 C.ar    1  UNL1        0.2249
     15 N           2.5772    0.2801   25.9233 N.ar    1  UNL1       -0.2101
     16 C           3.2809   -0.6246   24.9556 C.ar    1  UNL1        0.1021
     17 O           0.8296    2.1428   26.3987 O.3     1  UNL1       -0.4602
     18 C          -0.5411    1.7894   26.8949 C.3     1  UNL1        0.2085
     19 C          -0.7238    1.2775   28.2930 C.3     1  UNL1        0.0647
     20 C           0.1297    0.1517   28.7970 C.3     1  UNL1        0.0760
     21 N           1.1762    0.4126   29.8394 N.3     1  UNL1       -0.2702
     22 C           2.3280   -0.5350   29.9995 C.3     1  UNL1        0.0897
     23 C           1.0711    1.6211   30.7217 C.3     1  UNL1        0.0897
     24 C           4.1239   -0.8416   17.7235 C.2     1  UNL1        0.2015
     25 O           3.6151   -1.1652   16.3501 O.2     1  UNL1       -0.2864
     26 C           2.8861    2.7728   18.7981 C.ar    1  UNL1        0.0920
     27 C           4.1897    3.4257   19.1507 C.ar    1  UNL1        0.0204
     28 C           5.4714    2.6562   19.0275 C.ar    1  UNL1        0.0312
     29 C           5.4495    1.2338   18.5518 C.ar    1  UNL1        0.1454
     30 F           6.7312    0.4643   18.4286 F       1  UNL1       -0.2040
     31 C           4.1458    0.5809   18.1992 C.ar    1  UNL1        0.0951
     32 C           2.8642    1.3504   18.3224 C.ar    1  UNL1        0.1598
     33 F           1.5606    0.6975   17.9699 F       1  UNL1       -0.2026
     34 N           1.6044    3.5423   18.9213 N.pl3   1  UNL1       -0.2166
     35 H           1.4433    4.3254   18.3469 H       1  UNL1        0.1734
     36 S           0.5683    3.1186   19.9198 S.O2    1  UNL1        0.0540
     37 O          -0.4227    2.9272   18.8101 O.2     1  UNL1       -0.1545
     38 O           1.5592    3.3100   21.0294 O.2     1  UNL1       -0.1545
     39 C          -0.4678    2.6949   20.9182 C.3     1  UNL1        0.1724
     40 C          -1.6653    3.4902   23.0824 C.3     1  UNL1        0.0019
     41 C          -1.2648    3.7290   21.6568 C.3     1  UNL1        0.0273
@<TRIPOS>BOND
     1    40    41    1
     2    41    39    1
     3    39    36    1
     4    36    37    2
     5    36    38    2
     6    36    34    1
     7    34    26    1
     8    26    27   ar
     9    27    28   ar
    10    28    29   ar
    11    29    30    1
    12    29    31   ar
    13    31    24    1
    14    24    25    2
    15    24     1    1
    16     1     2   ar
    17     2     3   ar
    18     3     4   ar
    19     4     5   ar
    20     5     6   ar
    21     6     7   ar
    22     7    11    1
    23    11    12   ar
    24    12    13   ar
    25    13    14   ar
    26    14    17    1
    27    17    18    1
    28    18    19    1
    29    19    20    1
    30    20    21    1
    31    21    22    1
    32    21    23    1
    33    14    15   ar
    34    15    16   ar
    35     7     8   ar
    36     8     9   ar
    37    31    32   ar
    38    32    33    1
    39    32    26   ar
    40     9     1   ar
    41     9     4    1
    42    16    11   ar
    43    34    35    1
    44     5    10    1
@<TRIPOS>MOLECULE
*****
 41 44 0 0 0
SMALL
GASTEIGER

@<TRIPOS>ATOM
      1 C          -2.8260  -17.9660   21.5103 C.ar    1  UNL1        0.0611
      2 C          -1.5709  -18.5937   20.9804 C.ar    1  UNL1        0.1037
      3 N          -1.9463  -19.8759   20.2984 N.ar    1  UNL1       -0.2269
      4 C          -3.4333  -20.0406   20.4069 C.ar    1  UNL1        0.1407
      5 N          -4.3625  -21.1129   19.9204 N.ar    1  UNL1       -0.3374
      6 C          -5.8353  -21.0048   20.1830 C.ar    1  UNL1        0.0735
      7 C          -6.3790  -19.8244   20.9320 C.ar    1  UNL1        0.0186
      8 C          -5.4498  -18.7521   21.4185 C.ar    1  UNL1        0.0047
      9 C          -3.9770  -18.8602   21.1559 C.ar    1  UNL1        0.0386
     10 H          -4.0057  -21.8876   19.4288 H       1  UNL1        0.1674
     11 C          -7.8519  -19.7163   21.1945 C.ar    1  UNL1        0.0208
     12 C          -8.3899  -19.9793   22.5698 C.ar    1  UNL1        0.0064
     13 C          -9.8629  -19.8712   22.8323 C.ar    1  UNL1        0.0577
     14 C         -10.7978  -19.5001   21.7195 C.ar    1  UNL1        0.2249
     15 N         -10.2597  -19.2371   20.3442 N.ar    1  UNL1       -0.2101
     16 C          -8.7868  -19.3452   20.0817 C.ar    1  UNL1        0.1021
     17 O         -12.2706  -19.3921   21.9820 O.3     1  UNL1       -0.4602
     18 C         -12.7869  -18.3682   22.9490 C.3     1  UNL1        0.2085
     19 C         -12.6285  -16.9069   22.6498 C.3     1  UNL1        0.0647
     20 C         -12.7294  -16.4156   21.2362 C.3     1  UNL1        0.0760
     21 N         -11.4994  -15.9515   20.5140 N.3     1  UNL1       -0.2702
     22 C         -11.5621  -15.6437   19.0472 C.3     1  UNL1        0.0897
     23 C         -10.2066  -15.7951   21.2585 C.3     1  UNL1        0.0897
     24 C          -2.9145  -16.6713   22.2627 C.2     1  UNL1        0.2015
     25 O          -2.3088  -15.4260   21.6864 O.2     1  UNL1       -0.2864
     26 C          -5.4437  -15.6224   25.1356 C.ar    1  UNL1        0.0920
     27 C          -4.9974  -16.5232   26.2489 C.ar    1  UNL1        0.0204
     28 C          -3.8569  -17.4733   26.0334 C.ar    1  UNL1        0.0312
     29 C          -3.1626  -17.5227   24.7048 C.ar    1  UNL1        0.1454
     30 F          -2.0220  -18.4729   24.4894 F       1  UNL1       -0.2040
     31 C          -3.6088  -16.6219   23.5915 C.ar    1  UNL1        0.0951
     32 C          -4.7494  -15.6718   23.8069 C.ar    1  UNL1        0.1598
     33 F          -5.1955  -14.7710   22.6935 F       1  UNL1       -0.2026
     34 N          -6.5842  -14.6722   25.3510 N.pl3   1  UNL1       -0.2166
     35 H          -6.4052  -13.7360   25.5971 H       1  UNL1        0.1734
     36 S          -7.9976  -15.1486   25.1914 S.O2    1  UNL1        0.0540
     37 O          -7.8469  -15.0959   23.6999 O.2     1  UNL1       -0.1545
     38 O          -8.1482  -15.2014   26.6828 O.2     1  UNL1       -0.1545
     39 C          -9.4109  -15.6250   25.0319 C.3     1  UNL1        0.1724
     40 C          -9.6335  -18.1150   25.7394 C.3     1  UNL1        0.0019
     41 C          -9.6843  -17.0567   24.6776 C.3     1  UNL1        0.0273
@<TRIPOS>BOND
     1    40    41    1
     2    41    39    1
     3    39    36    1
     4    36    37    2
     5    36    38    2
     6    36    34    1
     7    34    26    1
     8    26    27   ar
     9    27    28   ar
    10    28    29   ar
    11    29    30    1
    12    29    31   ar
    13    31    24    1
    14    24    25    2
    15    24     1    1
    16     1     2   ar
    17     2     3   ar
    18     3     4   ar
    19     4     5   ar
    20     5     6   ar
    21     6     7   ar
    22     7    11    1
    23    11    12   ar
    24    12    13   ar
    25    13    14   ar
    26    14    17    1
    27    17    18    1
    28    18    19    1
    29    19    20    1
    30    20    21    1
    31    21    22    1
    32    21    23    1
    33    14    15   ar
    34    15    16   ar
    35     7     8   ar
    36     8     9   ar
    37    31    32   ar
    38    32    33    1
    39    32    26   ar
    40     9     1   ar
    41     9     4    1
    42    16    11   ar
    43    34    35    1
    44     5    10    1
