@<TRIPOS>MOLECULE
*****
 24 27 0 0 0
SMALL
GASTEIGER

@<TRIPOS>ATOM
      1 O          -9.0402  -18.4173   23.8123 O.2     1  UNL1       -0.2448
      2 C          -8.3984  -17.8177   22.5963 C.2     1  UNL1        0.3428
      3 C          -7.5700  -18.6747   21.6857 C.2     1  UNL1        0.0959
      4 C          -8.0812  -19.4875   20.5333 C.2     1  UNL1        0.1049
      5 N          -6.9120  -20.1845   19.9030 N.2     1  UNL1       -0.2475
      6 C          -5.6782  -19.8024   20.6659 C.2     1  UNL1        0.0670
      7 C          -4.2371  -20.1836   20.4996 C.3     1  UNL1        0.1116
      8 C          -3.2025  -19.6317   21.4351 C.2     1  UNL1        0.1443
      9 O          -1.7614  -20.0129   21.2688 O.2     1  UNL1       -0.5071
     10 C          -3.6092  -18.6986   22.5369 C.2     1  UNL1        0.1698
     11 F          -2.5747  -18.1467   23.4724 F       1  UNL1       -0.2013
     12 C          -5.0504  -18.3174   22.7031 C.2     1  UNL1        0.0339
     13 C          -6.0849  -18.8693   21.7676 C.2     1  UNL1        0.0241
     14 H          -1.5073  -20.5958   20.5806 H       1  UNL1        0.2918
     15 O          -8.5851  -16.3610   22.2910 O.3     1  UNL1       -0.4454
     16 C          -7.6609  -15.3441   22.8925 C.3     1  UNL1        0.2087
     17 C          -7.3198  -15.4109   24.3517 C.3     1  UNL1        0.0445
     18 C          -8.4130  -15.4023   25.3787 C.3     1  UNL1        0.0210
     19 C          -8.0718  -15.4692   26.8378 C.3     1  UNL1        0.0722
     20 N          -6.6374  -15.5447   27.2699 N.3     1  UNL1       -0.2727
     21 C          -5.5442  -15.5533   26.2429 C.3     1  UNL1        0.0722
     22 C          -5.8854  -15.4865   24.7838 C.3     1  UNL1        0.0210
     23 C          -6.7753  -15.5097   26.4590 C.3     1  UNL1        0.0722
     24 C          -7.0837  -15.4492   25.1396 C.3     1  UNL1        0.0210
@<TRIPOS>BOND
     1     1     2    2
     2     2    15    1
     3    15    16    1
     4    16    17    1
     5    17    18    1
     6    18    19    1
     7    19    20    1
     8    20    21    1
     9    21    22    1
    10    20    23    1
    11    23    24    1
    12     2     3    1
    13     3     4    2
    14     4     5    1
    15     5     6    2
    16     6     7    1
    17     7     8    1
    18     8     9    1
    19     8    10    2
    20    10    11    1
    21    10    12    1
    22    12    13    2
    23    22    17    1
    24    13     3    1
    25    24    17    1
    26    13     6    1
    27     9    14    1
@<TRIPOS>MOLECULE
*****
 24 27 0 0 0
SMALL
GASTEIGER

@<TRIPOS>ATOM
      1 O          -9.1532  -20.3702   18.6389 O.2     1  UNL1       -0.2448
      2 C          -9.0301  -19.2911   19.6735 C.2     1  UNL1        0.3428
      3 C         -10.2625  -18.6438   20.2323 C.2     1  UNL1        0.0959
      4 C         -11.1955  -17.7347   19.4885 C.2     1  UNL1        0.1049
      5 N         -12.2878  -17.3210   20.4296 N.2     1  UNL1       -0.2475
      6 C         -12.0300  -17.9744   21.7550 C.2     1  UNL1        0.0670
      7 C         -12.7732  -17.9305   23.0571 C.3     1  UNL1        0.1116
      8 C         -12.2648  -18.7042   24.2374 C.2     1  UNL1        0.1443
      9 O         -13.0080  -18.6603   25.5395 O.2     1  UNL1       -0.5071
     10 C         -11.0130  -19.5217   24.1155 C.2     1  UNL1        0.1698
     11 F         -10.5046  -20.2953   25.2957 F       1  UNL1       -0.2013
     12 C         -10.2698  -19.5655   22.8133 C.2     1  UNL1        0.0339
     13 C         -10.7782  -18.7919   21.6331 C.2     1  UNL1        0.0241
     14 H         -13.7899  -18.1497   25.6157 H       1  UNL1        0.2918
     15 O          -7.6747  -18.8593   20.1492 O.3     1  UNL1       -0.4454
     16 C          -6.9579  -19.6582   21.1971 C.3     1  UNL1        0.2087
     17 C          -5.4676  -19.5538   21.3308 C.3     1  UNL1        0.0445
     18 C          -4.8692  -18.7237   22.4277 C.3     1  UNL1        0.0210
     19 C          -3.3789  -18.6193   22.5613 C.3     1  UNL1        0.0722
     20 N          -2.4868  -19.3450   21.5982 N.3     1  UNL1       -0.2727
     21 C          -3.0851  -20.1750   20.5013 C.3     1  UNL1        0.0722
     22 C          -4.5755  -20.2794   20.3677 C.3     1  UNL1        0.0210
     23 C          -3.2976  -19.4323   21.4850 C.3     1  UNL1        0.0722
     24 C          -4.6453  -19.5268   21.3640 C.3     1  UNL1        0.0210
@<TRIPOS>BOND
     1     1     2    2
     2     2    15    1
     3    15    16    1
     4    16    17    1
     5    17    18    1
     6    18    19    1
     7    19    20    1
     8    20    21    1
     9    21    22    1
    10    20    23    1
    11    23    24    1
    12     2     3    1
    13     3     4    2
    14     4     5    1
    15     5     6    2
    16     6     7    1
    17     7     8    1
    18     8     9    1
    19     8    10    2
    20    10    11    1
    21    10    12    1
    22    12    13    2
    23    22    17    1
    24    13     3    1
    25    24    17    1
    26    13     6    1
    27     9    14    1
@<TRIPOS>MOLECULE
*****
 24 27 0 0 0
SMALL
GASTEIGER

@<TRIPOS>ATOM
      1 O          -7.5228  -18.5002   20.2364 O.2     1  UNL1       -0.2448
      2 C          -7.6749  -18.1215   21.6798 C.2     1  UNL1        0.3428
      3 C          -8.6641  -18.8449   22.5448 C.2     1  UNL1        0.0959
      4 C          -8.4359  -20.1547   23.2393 C.2     1  UNL1        0.1049
      5 N          -9.6859  -20.5047   23.9909 N.2     1  UNL1       -0.2475
      6 C         -10.6867  -19.4113   23.7609 C.2     1  UNL1        0.0670
      7 C         -12.0914  -19.2172   24.2498 C.3     1  UNL1        0.1116
      8 C         -12.8646  -17.9973   23.8450 C.2     1  UNL1        0.1443
      9 O         -14.2693  -17.8032   24.3339 O.2     1  UNL1       -0.5071
     10 C         -12.2331  -16.9714   22.9513 C.2     1  UNL1        0.1698
     11 F         -13.0063  -15.7514   22.5465 F       1  UNL1       -0.2013
     12 C         -10.8283  -17.1655   22.4624 C.2     1  UNL1        0.0339
     13 C         -10.0551  -18.3854   22.8672 C.2     1  UNL1        0.0241
     14 H         -14.6638  -18.4440   24.8922 H       1  UNL1        0.2918
     15 O          -6.8379  -17.0193   22.2582 O.3     1  UNL1       -0.4454
     16 C          -7.4925  -15.8856   22.9906 C.3     1  UNL1        0.2087
     17 C          -7.2822  -15.7257   24.4671 C.3     1  UNL1        0.0445
     18 C          -8.4225  -15.9489   25.4157 C.3     1  UNL1        0.0210
     19 C          -8.2120  -15.7890   26.8922 C.3     1  UNL1        0.0722
     20 N          -6.8613  -15.4059   27.4202 N.3     1  UNL1       -0.2727
     21 C          -5.7210  -15.1827   26.4716 C.3     1  UNL1        0.0722
     22 C          -5.9314  -15.3426   24.9951 C.3     1  UNL1        0.0210
     23 C          -6.9283  -15.4817   26.6031 C.3     1  UNL1        0.0722
     24 C          -7.1184  -15.6263   25.2680 C.3     1  UNL1        0.0210
@<TRIPOS>BOND
     1     1     2    2
     2     2    15    1
     3    15    16    1
     4    16    17    1
     5    17    18    1
     6    18    19    1
     7    19    20    1
     8    20    21    1
     9    21    22    1
    10    20    23    1
    11    23    24    1
    12     2     3    1
    13     3     4    2
    14     4     5    1
    15     5     6    2
    16     6     7    1
    17     7     8    1
    18     8     9    1
    19     8    10    2
    20    10    11    1
    21    10    12    1
    22    12    13    2
    23    22    17    1
    24    13     3    1
    25    24    17    1
    26    13     6    1
    27     9    14    1
@<TRIPOS>MOLECULE
*****
 24 27 0 0 0
SMALL
GASTEIGER

@<TRIPOS>ATOM
      1 O          -7.0633  -15.5460   22.9506 O.2     1  UNL1       -0.2448
      2 C          -7.6100  -16.9372   23.0759 C.2     1  UNL1        0.3428
      3 C          -7.0760  -18.0343   22.2034 C.2     1  UNL1        0.0959
      4 C          -7.8817  -18.8928   21.2740 C.2     1  UNL1        0.1049
      5 N          -6.9461  -19.8546   20.6035 N.2     1  UNL1       -0.2475
      6 C          -5.5622  -19.5905   21.1184 C.2     1  UNL1        0.0670
      7 C          -4.2394  -20.2290   20.8146 C.3     1  UNL1        0.1116
      8 C          -2.9968  -19.7425   21.4997 C.2     1  UNL1        0.1443
      9 O          -1.6739  -20.3811   21.1959 O.2     1  UNL1       -0.5071
     10 C          -3.0770  -18.6175   22.4886 C.2     1  UNL1        0.1698
     11 F          -1.8345  -18.1310   23.1737 F       1  UNL1       -0.2013
     12 C          -4.4000  -17.9789   22.7923 C.2     1  UNL1        0.0339
     13 C          -5.6425  -18.4654   22.1073 C.2     1  UNL1        0.0241
     14 H          -1.6238  -21.0839   20.5782 H       1  UNL1        0.2918
     15 O          -8.6908  -17.2312   24.0736 O.3     1  UNL1       -0.4454
     16 C         -10.0055  -16.5140   23.9885 C.3     1  UNL1        0.2087
     17 C         -10.8660  -16.6674   22.7695 C.3     1  UNL1        0.0445
     18 C         -12.0697  -17.5615   22.8087 C.3     1  UNL1        0.0210
     19 C         -12.9301  -17.7149   21.5896 C.3     1  UNL1        0.0722
     20 N         -12.5868  -16.9740   20.3313 N.3     1  UNL1       -0.2727
     21 C         -11.3832  -16.0798   20.2921 C.3     1  UNL1        0.0722
     22 C         -10.5227  -15.9265   21.5112 C.3     1  UNL1        0.0210
     23 C         -12.0855  -16.8583   20.9741 C.3     1  UNL1        0.0722
     24 C         -11.3074  -16.7196   22.0763 C.3     1  UNL1        0.0210
@<TRIPOS>BOND
     1     1     2    2
     2     2    15    1
     3    15    16    1
     4    16    17    1
     5    17    18    1
     6    18    19    1
     7    19    20    1
     8    20    21    1
     9    21    22    1
    10    20    23    1
    11    23    24    1
    12     2     3    1
    13     3     4    2
    14     4     5    1
    15     5     6    2
    16     6     7    1
    17     7     8    1
    18     8     9    1
    19     8    10    2
    20    10    11    1
    21    10    12    1
    22    12    13    2
    23    22    17    1
    24    13     3    1
    25    24    17    1
    26    13     6    1
    27     9    14    1
@<TRIPOS>MOLECULE
*****
 24 27 0 0 0
SMALL
GASTEIGER

@<TRIPOS>ATOM
      1 O          -8.4986  -19.2696   18.9307 O.2     1  UNL1       -0.2448
      2 C          -7.7965  -19.0642   20.2403 C.2     1  UNL1        0.3428
      3 C          -8.5215  -19.3202   21.5282 C.2     1  UNL1        0.0959
      4 C          -8.0133  -20.1377   22.6787 C.2     1  UNL1        0.1049
      5 N          -9.0597  -20.1263   23.7533 N.2     1  UNL1       -0.2475
      6 C         -10.2146  -19.3018   23.2671 C.2     1  UNL1        0.0670
      7 C         -11.5261  -18.9403   23.8988 C.3     1  UNL1        0.1116
      8 C         -12.5051  -18.0806   23.1554 C.2     1  UNL1        0.1443
      9 O         -13.8166  -17.7192   23.7872 O.2     1  UNL1       -0.5071
     10 C         -12.1725  -17.5824   21.7802 C.2     1  UNL1        0.1698
     11 F         -13.1513  -16.7228   21.0368 F       1  UNL1       -0.2013
     12 C         -10.8608  -17.9439   21.1484 C.2     1  UNL1        0.0339
     13 C          -9.8820  -18.8036   21.8919 C.2     1  UNL1        0.0241
     14 H         -14.0244  -18.0304   24.6462 H       1  UNL1        0.2918
     15 O          -6.3694  -18.6029   20.2618 O.3     1  UNL1       -0.4454
     16 C          -5.2568  -19.5989   20.1190 C.3     1  UNL1        0.2087
     17 C          -3.8348  -19.1699   20.3279 C.3     1  UNL1        0.0445
     18 C          -3.2051  -19.2949   21.6836 C.3     1  UNL1        0.0210
     19 C          -1.7830  -18.8659   21.8924 C.3     1  UNL1        0.0722
     20 N          -0.9906  -18.3119   20.7455 N.3     1  UNL1       -0.2727
     21 C          -1.6203  -18.1869   19.3899 C.3     1  UNL1        0.0722
     22 C          -3.0424  -18.6159   19.1811 C.3     1  UNL1        0.0210
     23 C          -1.7666  -18.5338   20.5826 C.3     1  UNL1        0.0722
     24 C          -3.0524  -18.9217   20.3937 C.3     1  UNL1        0.0210
@<TRIPOS>BOND
     1     1     2    2
     2     2    15    1
     3    15    16    1
     4    16    17    1
     5    17    18    1
     6    18    19    1
     7    19    20    1
     8    20    21    1
     9    21    22    1
    10    20    23    1
    11    23    24    1
    12     2     3    1
    13     3     4    2
    14     4     5    1
    15     5     6    2
    16     6     7    1
    17     7     8    1
    18     8     9    1
    19     8    10    2
    20    10    11    1
    21    10    12    1
    22    12    13    2
    23    22    17    1
    24    13     3    1
    25    24    17    1
    26    13     6    1
    27     9    14    1
@<TRIPOS>MOLECULE
*****
 24 27 0 0 0
SMALL
GASTEIGER

@<TRIPOS>ATOM
      1 O          -7.9503  -17.4032   23.1442 O.2     1  UNL1       -0.2448
      2 C          -7.9548  -18.8589   22.7822 C.2     1  UNL1        0.3428
      3 C          -7.0014  -19.3772   21.7467 C.2     1  UNL1        0.0959
      4 C          -7.3681  -20.1806   20.5341 C.2     1  UNL1        0.1049
      5 N          -6.1072  -20.4831   19.7800 N.2     1  UNL1       -0.2475
      6 C          -4.9614  -19.8666   20.5263 C.2     1  UNL1        0.0670
      7 C          -3.4862  -19.8394   20.2562 C.3     1  UNL1        0.1116
      8 C          -2.5636  -19.1286   21.2016 C.2     1  UNL1        0.1443
      9 O          -1.0884  -19.1014   20.9315 O.2     1  UNL1       -0.5071
     10 C          -3.1162  -18.4452   22.4171 C.2     1  UNL1        0.1698
     11 F          -2.1937  -17.7345   23.3625 F       1  UNL1       -0.2013
     12 C          -4.5915  -18.4725   22.6872 C.2     1  UNL1        0.0339
     13 C          -5.5140  -19.1832   21.7418 C.2     1  UNL1        0.0241
     14 H          -0.7432  -19.5283   20.1722 H       1  UNL1        0.2918
     15 O          -8.9128  -19.7962   23.4558 O.3     1  UNL1       -0.4454
     16 C         -10.2385  -20.0974   22.8219 C.3     1  UNL1        0.2087
     17 C         -10.9785  -19.0215   22.0838 C.3     1  UNL1        0.0445
     18 C         -11.9544  -18.1466   22.8134 C.3     1  UNL1        0.0210
     19 C         -12.6945  -17.0707   22.0753 C.3     1  UNL1        0.0722
     20 N         -12.4586  -16.8697   20.6077 N.3     1  UNL1       -0.2727
     21 C         -11.4828  -17.7446   19.8781 C.3     1  UNL1        0.0722
     22 C         -10.7427  -18.8205   20.6162 C.3     1  UNL1        0.0210
     23 C         -12.0297  -17.4722   20.9694 C.3     1  UNL1        0.0722
     24 C         -11.3605  -18.4451   21.6367 C.3     1  UNL1        0.0210
@<TRIPOS>BOND
     1     1     2    2
     2     2    15    1
     3    15    16    1
     4    16    17    1
     5    17    18    1
     6    18    19    1
     7    19    20    1
     8    20    21    1
     9    21    22    1
    10    20    23    1
    11    23    24    1
    12     2     3    1
    13     3     4    2
    14     4     5    1
    15     5     6    2
    16     6     7    1
    17     7     8    1
    18     8     9    1
    19     8    10    2
    20    10    11    1
    21    10    12    1
    22    12    13    2
    23    22    17    1
    24    13     3    1
    25    24    17    1
    26    13     6    1
    27     9    14    1
@<TRIPOS>MOLECULE
*****
 24 27 0 0 0
SMALL
GASTEIGER

@<TRIPOS>ATOM
      1 O          -7.3173  -15.9682   24.9542 O.2     1  UNL1       -0.2448
      2 C          -6.7599  -16.4417   23.6446 C.2     1  UNL1        0.3428
      3 C          -7.5498  -17.3900   22.7921 C.2     1  UNL1        0.0959
      4 C          -7.0120  -18.6017   22.0903 C.2     1  UNL1        0.1049
      5 N          -8.1461  -19.2536   21.3563 N.2     1  UNL1       -0.2475
      6 C          -9.3848  -18.4449   21.6045 C.2     1  UNL1        0.0670
      7 C         -10.8007  -18.6085   21.1371 C.3     1  UNL1        0.1116
      8 C         -11.8481  -17.6203   21.5571 C.2     1  UNL1        0.1443
      9 O         -13.2640  -17.7839   21.0898 O.2     1  UNL1       -0.5071
     10 C         -11.4796  -16.4685   22.4446 C.2     1  UNL1        0.1698
     11 F         -12.5269  -15.4803   22.8646 F       1  UNL1       -0.2013
     12 C         -10.0636  -16.3049   22.9120 C.2     1  UNL1        0.0339
     13 C          -9.0163  -17.2931   22.4919 C.2     1  UNL1        0.0241
     14 H         -13.4942  -18.5034   20.5354 H       1  UNL1        0.2918
     15 O          -5.4125  -15.9668   23.1875 O.3     1  UNL1       -0.4454
     16 C          -4.1708  -16.6573   23.6687 C.3     1  UNL1        0.2087
     17 C          -3.3322  -17.4477   22.7086 C.3     1  UNL1        0.0445
     18 C          -3.5470  -18.9254   22.5656 C.3     1  UNL1        0.0210
     19 C          -2.7084  -19.7157   21.6054 C.3     1  UNL1        0.0722
     20 N          -1.6549  -19.0285   20.7883 N.3     1  UNL1       -0.2727
     21 C          -1.4400  -17.5508   20.9312 C.3     1  UNL1        0.0722
     22 C          -2.2787  -16.7605   21.8914 C.3     1  UNL1        0.0210
     23 C          -2.0897  -18.5535   21.3012 C.3     1  UNL1        0.0722
     24 C          -2.8480  -17.8387   22.1694 C.3     1  UNL1        0.0210
@<TRIPOS>BOND
     1     1     2    2
     2     2    15    1
     3    15    16    1
     4    16    17    1
     5    17    18    1
     6    18    19    1
     7    19    20    1
     8    20    21    1
     9    21    22    1
    10    20    23    1
    11    23    24    1
    12     2     3    1
    13     3     4    2
    14     4     5    1
    15     5     6    2
    16     6     7    1
    17     7     8    1
    18     8     9    1
    19     8    10    2
    20    10    11    1
    21    10    12    1
    22    12    13    2
    23    22    17    1
    24    13     3    1
    25    24    17    1
    26    13     6    1
    27     9    14    1
@<TRIPOS>MOLECULE
*****
 24 27 0 0 0
SMALL
GASTEIGER

@<TRIPOS>ATOM
      1 O          -9.4071  -19.1259   20.1144 O.2     1  UNL1       -0.2448
      2 C          -8.4490  -18.4704   21.0643 C.2     1  UNL1        0.3428
      3 C          -8.9219  -18.0194   22.4144 C.2     1  UNL1        0.0959
      4 C         -10.2451  -18.3477   23.0401 C.2     1  UNL1        0.1049
      5 N         -10.2956  -17.6921   24.3883 N.2     1  UNL1       -0.2475
      6 C          -9.0037  -16.9587   24.5959 C.2     1  UNL1        0.0670
      7 C          -8.4907  -16.1328   25.7381 C.3     1  UNL1        0.1116
      8 C          -7.1286  -15.5092   25.6604 C.2     1  UNL1        0.1443
      9 O          -6.6156  -14.6833   26.8026 O.2     1  UNL1       -0.5071
     10 C          -6.2796  -15.7114   24.4404 C.2     1  UNL1        0.1698
     11 F          -4.9176  -15.0879   24.3627 F       1  UNL1       -0.2013
     12 C          -6.7927  -16.5374   23.2982 C.2     1  UNL1        0.0339
     13 C          -8.1547  -17.1610   23.3759 C.2     1  UNL1        0.0241
     14 H          -7.1460  -14.5569   27.5647 H       1  UNL1        0.2918
     15 O          -7.0179  -18.2658   20.6640 O.3     1  UNL1       -0.4454
     16 C          -6.0782  -19.4341   20.6156 C.3     1  UNL1        0.2087
     17 C          -4.5988  -19.2116   20.7242 C.3     1  UNL1        0.0445
     18 C          -3.7775  -19.0113   19.4851 C.3     1  UNL1        0.0210
     19 C          -2.2981  -18.7888   19.5937 C.3     1  UNL1        0.0722
     20 N          -1.6400  -18.7666   20.9414 N.3     1  UNL1       -0.2727
     21 C          -2.4613  -18.9668   22.1805 C.3     1  UNL1        0.0722
     22 C          -3.9407  -19.1893   22.0719 C.3     1  UNL1        0.0210
     23 C          -2.4537  -18.8919   20.9321 C.3     1  UNL1        0.0722
     24 C          -3.7914  -19.0931   20.8340 C.3     1  UNL1        0.0210
@<TRIPOS>BOND
     1     1     2    2
     2     2    15    1
     3    15    16    1
     4    16    17    1
     5    17    18    1
     6    18    19    1
     7    19    20    1
     8    20    21    1
     9    21    22    1
    10    20    23    1
    11    23    24    1
    12     2     3    1
    13     3     4    2
    14     4     5    1
    15     5     6    2
    16     6     7    1
    17     7     8    1
    18     8     9    1
    19     8    10    2
    20    10    11    1
    21    10    12    1
    22    12    13    2
    23    22    17    1
    24    13     3    1
    25    24    17    1
    26    13     6    1
    27     9    14    1
@<TRIPOS>MOLECULE
*****
 24 27 0 0 0
SMALL
GASTEIGER

@<TRIPOS>ATOM
      1 O          -5.6045  -20.9015   20.2638 O.2     1  UNL1       -0.2448
      2 C          -6.3783  -19.8591   21.0152 C.2     1  UNL1        0.3428
      3 C          -7.8168  -19.6032   20.6760 C.2     1  UNL1        0.0959
      4 C          -8.4139  -19.6155   19.3000 C.2     1  UNL1        0.1049
      5 N          -9.8769  -19.3100   19.4268 N.2     1  UNL1       -0.2475
      6 C         -10.1841  -19.1089   20.8812 C.2     1  UNL1        0.0670
      7 C         -11.4587  -18.7841   21.6022 C.3     1  UNL1        0.1116
      8 C         -11.4601  -18.6406   23.0954 C.2     1  UNL1        0.1443
      9 O         -12.7347  -18.3158   23.8164 O.2     1  UNL1       -0.5071
     10 C         -10.1869  -18.8218   23.8674 C.2     1  UNL1        0.1698
     11 F         -10.1882  -18.6783   25.3605 F       1  UNL1       -0.2013
     12 C          -8.9122  -19.1466   23.1463 C.2     1  UNL1        0.0339
     13 C          -8.9109  -19.2901   21.6532 C.2     1  UNL1        0.0241
     14 H         -13.5300  -18.2026   23.3342 H       1  UNL1        0.2918
     15 O          -5.7135  -19.0726   22.1059 O.3     1  UNL1       -0.4454
     16 C          -4.2676  -19.3097   22.4272 C.3     1  UNL1        0.2087
     17 C          -3.2037  -18.5221   21.7219 C.3     1  UNL1        0.0445
     18 C          -2.5334  -19.0885   20.5054 C.3     1  UNL1        0.0210
     19 C          -1.4694  -18.3007   19.8001 C.3     1  UNL1        0.0722
     20 N          -1.0757  -16.9466   20.3114 N.3     1  UNL1       -0.2727
     21 C          -1.7461  -16.3802   21.5278 C.3     1  UNL1        0.0722
     22 C          -2.8100  -17.1679   22.2331 C.3     1  UNL1        0.0210
     23 C          -1.6640  -17.3409   20.7312 C.3     1  UNL1        0.0722
     24 C          -2.6261  -18.0531   21.3690 C.3     1  UNL1        0.0210
@<TRIPOS>BOND
     1     1     2    2
     2     2    15    1
     3    15    16    1
     4    16    17    1
     5    17    18    1
     6    18    19    1
     7    19    20    1
     8    20    21    1
     9    21    22    1
    10    20    23    1
    11    23    24    1
    12     2     3    1
    13     3     4    2
    14     4     5    1
    15     5     6    2
    16     6     7    1
    17     7     8    1
    18     8     9    1
    19     8    10    2
    20    10    11    1
    21    10    12    1
    22    12    13    2
    23    22    17    1
    24    13     3    1
    25    24    17    1
    26    13     6    1
    27     9    14    1
