@<TRIPOS>MOLECULE
*****
 27 30 0 0 0
SMALL
GASTEIGER

@<TRIPOS>ATOM
      1 C          -9.1472  -16.3484   23.9826 C.ar    1  UNL1        0.0927
      2 C          -9.3177  -15.6233   25.2845 C.ar    1  UNL1        0.0573
      3 S          -7.9571  -15.4154   25.8809 S.2     1  UNL1       -0.0509
      4 C          -6.9457  -16.0119   24.9474 C.ar    1  UNL1        0.1635
      5 N          -7.6813  -16.5885   23.7742 N.ar    1  UNL1       -0.2239
      6 C         -11.1965  -17.8539   23.4495 C.ar    1  UNL1        0.1401
      7 C         -12.2984  -18.2663   22.5192 C.ar    1  UNL1        0.0375
      8 C         -12.4531  -17.5857   21.1915 C.ar    1  UNL1        0.0098
      9 C         -11.5059  -16.4926   20.7941 C.ar    1  UNL1        0.0348
     10 BR        -11.6606  -15.8120   19.4664 Br      1  UNL1       -0.0490
     11 C         -10.4040  -16.0802   21.7245 C.ar    1  UNL1        0.0112
     12 C         -10.2492  -16.7608   23.0522 C.ar    1  UNL1        0.0527
     13 C         -10.1650  -19.7452   24.9018 C.3     1  UNL1        0.2525
     14 O         -11.0418  -18.5345   24.7772 O.3     1  UNL1       -0.4714
     15 N          -5.4598  -16.0289   25.1514 N.pl3   1  UNL1       -0.2927
     16 H          -5.0808  -15.7968   26.0299 H       1  UNL1        0.1541
     17 C          -4.5512  -16.3995   24.0168 C.ar    1  UNL1        0.0498
     18 C          -3.9831  -15.3305   23.1310 C.ar    1  UNL1        0.0161
     19 C          -3.0746  -15.7011   21.9966 C.ar    1  UNL1        0.0188
     20 C          -2.7342  -17.1406   21.7478 C.ar    1  UNL1        0.0656
     21 C          -3.3023  -18.2095   22.6335 C.ar    1  UNL1        0.0188
     22 C          -4.2108  -17.8390   23.7681 C.ar    1  UNL1        0.0161
     23 N          -1.8256  -17.5113   20.6132 N.ar    1  UNL1       -0.2864
     24 C          -0.3428  -17.7192   20.7029 C.ar    1  UNL1        0.1022
     25 C           0.1588  -18.0755   19.3349 C.ar    1  UNL1        0.1196
     26 N          -1.0139  -18.0878   18.3998 N.ar    1  UNL1       -0.2220
     27 C          -2.2404  -17.7391   19.1898 C.ar    1  UNL1        0.1828
@<TRIPOS>BOND
     1    13    14    1
     2    14     6    1
     3     6     7   ar
     4     7     8   ar
     5     8     9   ar
     6     9    10    1
     7     9    11   ar
     8    11    12   ar
     9    12     1    1
    10     1     2   ar
    11     2     3   ar
    12     3     4   ar
    13     4    15    1
    14    15    17    1
    15    17    18   ar
    16    18    19   ar
    17    19    20   ar
    18    20    23    1
    19    23    24   ar
    20    24    25   ar
    21    25    26   ar
    22    26    27   ar
    23    20    21   ar
    24    21    22   ar
    25     4     5   ar
    26    12     6   ar
    27     5     1   ar
    28    22    17   ar
    29    27    23   ar
    30    15    16    1
@<TRIPOS>MOLECULE
*****
 27 30 0 0 0
SMALL
GASTEIGER

@<TRIPOS>ATOM
      1 C          -1.7224    3.5295   21.6166 C.ar    1  UNL1        0.0927
      2 C          -0.5885    4.5104   21.5717 C.ar    1  UNL1        0.0573
      3 S           0.3345    4.1015   20.4622 S.2     1  UNL1       -0.0509
      4 C          -0.2290    2.8678   19.8214 C.ar    1  UNL1        0.1635
      5 N          -1.5002    2.5143   20.5349 N.ar    1  UNL1       -0.2239
      6 C          -4.2772    3.3885   22.0674 C.ar    1  UNL1        0.1401
      7 C          -5.4307    3.4176   23.0258 C.ar    1  UNL1        0.0375
      8 C          -5.1830    3.6168   24.4917 C.ar    1  UNL1        0.0098
      9 C          -3.7818    3.7869   24.9993 C.ar    1  UNL1        0.0348
     10 BR         -3.5341    3.9861   26.4652 Br      1  UNL1       -0.0490
     11 C          -2.6283    3.7578   24.0409 C.ar    1  UNL1        0.0112
     12 C          -2.8760    3.5586   22.5750 C.ar    1  UNL1        0.0527
     13 C          -5.7191    3.8211   19.9500 C.3     1  UNL1        0.2525
     14 O          -4.5249    3.1893   20.6015 O.3     1  UNL1       -0.4714
     15 N           0.3730    2.1191   18.6694 N.pl3   1  UNL1       -0.2927
     16 H           0.1554    2.3798   17.7454 H       1  UNL1        0.1541
     17 C           1.3065    0.9732   18.9255 C.ar    1  UNL1        0.0498
     18 C           0.9361   -0.0885   19.9182 C.ar    1  UNL1        0.0161
     19 C           1.8695   -1.2343   20.1742 C.ar    1  UNL1        0.0188
     20 C           3.1734   -1.3185   19.4375 C.ar    1  UNL1        0.0656
     21 C           3.5438   -0.2568   18.4448 C.ar    1  UNL1        0.0188
     22 C           2.6103    0.8890   18.1887 C.ar    1  UNL1        0.0161
     23 N           4.1070   -2.4644   19.6935 N.ar    1  UNL1       -0.2864
     24 C           5.4713   -2.3695   20.3095 C.ar    1  UNL1        0.1022
     25 C           6.0475   -3.7528   20.3751 C.ar    1  UNL1        0.1196
     26 N           5.0394   -4.7027   19.7996 N.ar    1  UNL1       -0.2220
     27 C           3.8400   -3.9064   19.3783 C.ar    1  UNL1        0.1828
@<TRIPOS>BOND
     1    13    14    1
     2    14     6    1
     3     6     7   ar
     4     7     8   ar
     5     8     9   ar
     6     9    10    1
     7     9    11   ar
     8    11    12   ar
     9    12     1    1
    10     1     2   ar
    11     2     3   ar
    12     3     4   ar
    13     4    15    1
    14    15    17    1
    15    17    18   ar
    16    18    19   ar
    17    19    20   ar
    18    20    23    1
    19    23    24   ar
    20    24    25   ar
    21    25    26   ar
    22    26    27   ar
    23    20    21   ar
    24    21    22   ar
    25     4     5   ar
    26    12     6   ar
    27     5     1   ar
    28    22    17   ar
    29    27    23   ar
    30    15    16    1
@<TRIPOS>MOLECULE
*****
 27 30 0 0 0
SMALL
GASTEIGER

@<TRIPOS>ATOM
      1 C         -10.0131  -18.7937   21.3202 C.ar    1  UNL1        0.0927
      2 C          -9.8931  -19.1066   19.8581 C.ar    1  UNL1        0.0573
      3 S          -8.6301  -19.8896   19.6538 S.2     1  UNL1       -0.0509
      4 C          -7.9695  -20.0606   20.9897 C.ar    1  UNL1        0.1635
      5 N          -8.8243  -19.3833   22.0195 N.ar    1  UNL1       -0.2239
      6 C         -11.4310  -16.6262   21.5241 C.ar    1  UNL1        0.1401
      7 C         -12.5444  -15.8585   22.1730 C.ar    1  UNL1        0.0375
      8 C         -13.3532  -16.4905   23.2667 C.ar    1  UNL1        0.0098
      9 C         -13.0487  -17.8903   23.7116 C.ar    1  UNL1        0.0348
     10 BR        -13.8576  -18.5223   24.8054 Br      1  UNL1       -0.0490
     11 C         -11.9354  -18.6579   23.0628 C.ar    1  UNL1        0.0112
     12 C         -11.1265  -18.0259   21.9690 C.ar    1  UNL1        0.0527
     13 C         -11.2949  -15.5295   19.1728 C.3     1  UNL1        0.2525
     14 O         -10.6222  -15.9941   20.4304 O.3     1  UNL1       -0.4714
     15 N          -6.6805  -20.7823   21.2500 N.pl3   1  UNL1       -0.2927
     16 H          -6.6932  -21.7199   21.5499 H       1  UNL1        0.1541
     17 C          -5.3723  -20.0753   21.0534 C.ar    1  UNL1        0.0498
     18 C          -4.6635  -20.1623   19.7343 C.ar    1  UNL1        0.0161
     19 C          -3.3553  -19.4553   19.5378 C.ar    1  UNL1        0.0188
     20 C          -2.7559  -18.6613   20.6604 C.ar    1  UNL1        0.0656
     21 C          -3.4646  -18.5742   21.9794 C.ar    1  UNL1        0.0188
     22 C          -4.7729  -19.2812   22.1760 C.ar    1  UNL1        0.0161
     23 N          -1.4476  -17.9542   20.4638 N.ar    1  UNL1       -0.2864
     24 C          -0.1570  -18.5897   20.0387 C.ar    1  UNL1        0.1022
     25 C           0.8879  -17.5158   19.9701 C.ar    1  UNL1        0.1196
     26 N           0.2433  -16.2166   20.3528 N.ar    1  UNL1       -0.2220
     27 C          -1.2002  -16.4875   20.6579 C.ar    1  UNL1        0.1828
@<TRIPOS>BOND
     1    13    14    1
     2    14     6    1
     3     6     7   ar
     4     7     8   ar
     5     8     9   ar
     6     9    10    1
     7     9    11   ar
     8    11    12   ar
     9    12     1    1
    10     1     2   ar
    11     2     3   ar
    12     3     4   ar
    13     4    15    1
    14    15    17    1
    15    17    18   ar
    16    18    19   ar
    17    19    20   ar
    18    20    23    1
    19    23    24   ar
    20    24    25   ar
    21    25    26   ar
    22    26    27   ar
    23    20    21   ar
    24    21    22   ar
    25     4     5   ar
    26    12     6   ar
    27     5     1   ar
    28    22    17   ar
    29    27    23   ar
    30    15    16    1
@<TRIPOS>MOLECULE
*****
 27 30 0 0 0
SMALL
GASTEIGER

@<TRIPOS>ATOM
      1 C           6.9853   -3.9237   22.0010 C.ar    1  UNL1        0.0927
      2 C           7.8972   -2.9496   21.3158 C.ar    1  UNL1        0.0573
      3 S           7.2129   -2.4722   20.0692 S.2     1  UNL1       -0.0509
      4 C           5.8781   -3.1513   19.9840 C.ar    1  UNL1        0.1635
      5 N           5.7374   -4.0483   21.1779 N.ar    1  UNL1       -0.2239
      6 C           6.6202   -4.1972   24.5588 C.ar    1  UNL1        0.1401
      7 C           6.9060   -4.9198   25.8418 C.ar    1  UNL1        0.0375
      8 C           7.8425   -6.0915   25.8501 C.ar    1  UNL1        0.0098
      9 C           8.4932   -6.5406   24.5754 C.ar    1  UNL1        0.0348
     10 BR          9.4297   -7.7123   24.5838 Br      1  UNL1       -0.0490
     11 C           8.2075   -5.8180   23.2925 C.ar    1  UNL1        0.0112
     12 C           7.2710   -4.6463   23.2841 C.ar    1  UNL1        0.0527
     13 C           6.1885   -1.6594   24.9093 C.3     1  UNL1        0.2525
     14 O           5.6837   -3.0255   24.5504 O.3     1  UNL1       -0.4714
     15 N           4.8624   -2.9658   18.8960 N.pl3   1  UNL1       -0.2927
     16 H           4.8649   -3.5630   18.1132 H       1  UNL1        0.1541
     17 C           3.8429   -1.8705   19.0005 C.ar    1  UNL1        0.0498
     18 C           2.8939   -1.8375   20.1617 C.ar    1  UNL1        0.0161
     19 C           1.8745   -0.7422   20.2661 C.ar    1  UNL1        0.0188
     20 C           1.8040    0.3200   19.2094 C.ar    1  UNL1        0.0656
     21 C           2.7529    0.2870   18.0483 C.ar    1  UNL1        0.0188
     22 C           3.7724   -0.8083   17.9438 C.ar    1  UNL1        0.0161
     23 N           0.7844    1.4154   19.3139 N.ar    1  UNL1       -0.2864
     24 C          -0.0783    1.7062   20.5060 C.ar    1  UNL1        0.1022
     25 C          -0.9472    2.8827   20.1734 C.ar    1  UNL1        0.1196
     26 N          -0.6216    3.3192   18.7758 N.ar    1  UNL1       -0.2220
     27 C           0.4487    2.4123   18.2445 C.ar    1  UNL1        0.1828
@<TRIPOS>BOND
     1    13    14    1
     2    14     6    1
     3     6     7   ar
     4     7     8   ar
     5     8     9   ar
     6     9    10    1
     7     9    11   ar
     8    11    12   ar
     9    12     1    1
    10     1     2   ar
    11     2     3   ar
    12     3     4   ar
    13     4    15    1
    14    15    17    1
    15    17    18   ar
    16    18    19   ar
    17    19    20   ar
    18    20    23    1
    19    23    24   ar
    20    24    25   ar
    21    25    26   ar
    22    26    27   ar
    23    20    21   ar
    24    21    22   ar
    25     4     5   ar
    26    12     6   ar
    27     5     1   ar
    28    22    17   ar
    29    27    23   ar
    30    15    16    1
@<TRIPOS>MOLECULE
*****
 27 30 0 0 0
SMALL
GASTEIGER

@<TRIPOS>ATOM
      1 C          -2.0476    3.6321   22.1026 C.ar    1  UNL1        0.0927
      2 C          -0.7516    4.3706   22.2605 C.ar    1  UNL1        0.0573
      3 S           0.1607    3.9493   21.1469 S.2     1  UNL1       -0.0509
      4 C          -0.5714    2.9503   20.3007 C.ar    1  UNL1        0.1635
      5 N          -1.9362    2.7543   20.8913 N.ar    1  UNL1       -0.2239
      6 C          -3.1080    3.4964   24.4705 C.ar    1  UNL1        0.1401
      7 C          -4.3052    3.6148   25.3664 C.ar    1  UNL1        0.0375
      8 C          -5.6392    3.9873   24.7903 C.ar    1  UNL1        0.0098
      9 C          -5.7759    4.2413   23.3184 C.ar    1  UNL1        0.0348
     10 BR         -7.1099    4.6138   22.7423 Br      1  UNL1       -0.0490
     11 C          -4.5787    4.1229   22.4225 C.ar    1  UNL1        0.0112
     12 C          -3.2448    3.7505   22.9985 C.ar    1  UNL1        0.0527
     13 C          -1.0867    4.0494   26.0062 C.3     1  UNL1        0.2525
     14 O          -1.7741    3.1239   25.0466 O.3     1  UNL1       -0.4714
     15 N          -0.0332    2.2674   19.0784 N.pl3   1  UNL1       -0.2927
     16 H          -0.3198    2.5616   18.1837 H       1  UNL1        0.1541
     17 C           0.9417    1.1362   19.2194 C.ar    1  UNL1        0.0498
     18 C           2.1601    1.0827   18.3460 C.ar    1  UNL1        0.0161
     19 C           3.1349   -0.0485   18.4871 C.ar    1  UNL1        0.0188
     20 C           2.8914   -1.1263   19.5015 C.ar    1  UNL1        0.0656
     21 C           1.6732   -1.0729   20.3748 C.ar    1  UNL1        0.0188
     22 C           0.6983    0.0583   20.2338 C.ar    1  UNL1        0.0161
     23 N           3.8664   -2.2576   19.6425 N.ar    1  UNL1       -0.2864
     24 C           5.3057   -2.1359   20.0468 C.ar    1  UNL1        0.1022
     25 C           5.9019   -3.5123   20.0581 C.ar    1  UNL1        0.1196
     26 N           4.8311   -4.4846   19.6609 N.ar    1  UNL1       -0.2220
     27 C           3.5730   -3.7092   19.4040 C.ar    1  UNL1        0.1828
@<TRIPOS>BOND
     1    13    14    1
     2    14     6    1
     3     6     7   ar
     4     7     8   ar
     5     8     9   ar
     6     9    10    1
     7     9    11   ar
     8    11    12   ar
     9    12     1    1
    10     1     2   ar
    11     2     3   ar
    12     3     4   ar
    13     4    15    1
    14    15    17    1
    15    17    18   ar
    16    18    19   ar
    17    19    20   ar
    18    20    23    1
    19    23    24   ar
    20    24    25   ar
    21    25    26   ar
    22    26    27   ar
    23    20    21   ar
    24    21    22   ar
    25     4     5   ar
    26    12     6   ar
    27     5     1   ar
    28    22    17   ar
    29    27    23   ar
    30    15    16    1
@<TRIPOS>MOLECULE
*****
 27 30 0 0 0
SMALL
GASTEIGER

@<TRIPOS>ATOM
      1 C           5.8623   -2.9385   21.5778 C.ar    1  UNL1        0.0927
      2 C           7.1580   -2.6566   20.8766 C.ar    1  UNL1        0.0573
      3 S           8.1653   -3.6667   21.3402 S.2     1  UNL1       -0.0509
      4 C           7.4921   -4.5730   22.3279 C.ar    1  UNL1        0.1635
      5 N           6.0688   -4.1230   22.4748 N.ar    1  UNL1       -0.2239
      6 C           3.7757   -2.3234   20.1572 C.ar    1  UNL1        0.1401
      7 C           2.4979   -1.5558   19.9908 C.ar    1  UNL1        0.0375
      8 C           2.0287   -0.6355   21.0784 C.ar    1  UNL1        0.0098
      9 C           2.8373   -0.4829   22.3325 C.ar    1  UNL1        0.0348
     10 BR          2.3681    0.4373   23.4202 Br      1  UNL1       -0.0490
     11 C           4.1152   -1.2506   22.4990 C.ar    1  UNL1        0.0112
     12 C           4.5844   -2.1708   21.4113 C.ar    1  UNL1        0.0527
     13 C           3.8338   -4.6862   19.0784 C.3     1  UNL1        0.2525
     14 O           4.2449   -3.2437   19.0696 O.3     1  UNL1       -0.4714
     15 N           8.1303   -5.7268   23.0432 N.pl3   1  UNL1       -0.2927
     16 H           8.5828   -6.4346   22.5300 H       1  UNL1        0.1541
     17 C           8.0789   -5.8020   24.5404 C.ar    1  UNL1        0.0498
     18 C           8.2545   -4.5583   25.3604 C.ar    1  UNL1        0.0161
     19 C           8.2032   -4.6336   26.8575 C.ar    1  UNL1        0.0188
     20 C           7.9762   -5.9526   27.5348 C.ar    1  UNL1        0.0656
     21 C           7.8006   -7.1963   26.7149 C.ar    1  UNL1        0.0188
     22 C           7.8520   -7.1210   25.2177 C.ar    1  UNL1        0.0161
     23 N           7.9249   -6.0279   29.0321 N.ar    1  UNL1       -0.2864
     24 C           6.8126   -5.5230   29.9027 C.ar    1  UNL1        0.1022
     25 C           7.1771   -5.8044   31.3302 C.ar    1  UNL1        0.1196
     26 N           8.5146   -6.4831   31.3420 N.ar    1  UNL1       -0.2220
     27 C           8.9768   -6.6213   29.9216 C.ar    1  UNL1        0.1828
@<TRIPOS>BOND
     1    13    14    1
     2    14     6    1
     3     6     7   ar
     4     7     8   ar
     5     8     9   ar
     6     9    10    1
     7     9    11   ar
     8    11    12   ar
     9    12     1    1
    10     1     2   ar
    11     2     3   ar
    12     3     4   ar
    13     4    15    1
    14    15    17    1
    15    17    18   ar
    16    18    19   ar
    17    19    20   ar
    18    20    23    1
    19    23    24   ar
    20    24    25   ar
    21    25    26   ar
    22    26    27   ar
    23    20    21   ar
    24    21    22   ar
    25     4     5   ar
    26    12     6   ar
    27     5     1   ar
    28    22    17   ar
    29    27    23   ar
    30    15    16    1
@<TRIPOS>MOLECULE
*****
 27 30 0 0 0
SMALL
GASTEIGER

@<TRIPOS>ATOM
      1 C           2.2642    0.0144   19.9652 C.ar    1  UNL1        0.0927
      2 C           0.8855    0.2832   19.4391 C.ar    1  UNL1        0.0573
      3 S           0.2198    1.2608   20.3616 S.2     1  UNL1       -0.0509
      4 C           1.1871    1.5963   21.4579 C.ar    1  UNL1        0.1635
      5 N           2.4507    0.8260   21.2128 N.ar    1  UNL1       -0.2239
      6 C           4.3642   -0.3479   18.4789 C.ar    1  UNL1        0.1401
      7 C           5.3785   -1.2669   17.8652 C.ar    1  UNL1        0.0375
      8 C           5.3070   -2.7427   18.1240 C.ar    1  UNL1        0.0098
      9 C           4.2214   -3.2994   18.9965 C.ar    1  UNL1        0.0348
     10 BR          4.1499   -4.7752   19.2552 Br      1  UNL1       -0.0490
     11 C           3.2071   -2.3804   19.6102 C.ar    1  UNL1        0.0112
     12 C           3.2786   -0.9046   19.3514 C.ar    1  UNL1        0.0527
     13 C           5.7689    1.8049   18.1014 C.3     1  UNL1        0.2525
     14 O           4.4357    1.1279   18.2202 O.3     1  UNL1       -0.4714
     15 N           0.9352    2.5370   22.5987 N.pl3   1  UNL1       -0.2927
     16 H           0.6516    3.4627   22.4201 H       1  UNL1        0.1541
     17 C           1.1153    2.0672   24.0118 C.ar    1  UNL1        0.0498
     18 C           2.4940    1.9275   24.5858 C.ar    1  UNL1        0.0161
     19 C           2.6740    1.4578   25.9989 C.ar    1  UNL1        0.0188
     20 C           1.4753    1.1277   26.8380 C.ar    1  UNL1        0.0656
     21 C           0.0966    1.2673   26.2641 C.ar    1  UNL1        0.0188
     22 C          -0.0834    1.7371   24.8509 C.ar    1  UNL1        0.0161
     23 N           1.6554    0.6579   28.2512 N.ar    1  UNL1       -0.2864
     24 C           2.4941   -0.5043   28.6939 C.ar    1  UNL1        0.1022
     25 C           2.3853   -0.6126   30.1860 C.ar    1  UNL1        0.1196
     26 N           1.4795    0.4826   30.6655 N.ar    1  UNL1       -0.2220
     27 C           1.0283    1.2678   29.4697 C.ar    1  UNL1        0.1828
@<TRIPOS>BOND
     1    13    14    1
     2    14     6    1
     3     6     7   ar
     4     7     8   ar
     5     8     9   ar
     6     9    10    1
     7     9    11   ar
     8    11    12   ar
     9    12     1    1
    10     1     2   ar
    11     2     3   ar
    12     3     4   ar
    13     4    15    1
    14    15    17    1
    15    17    18   ar
    16    18    19   ar
    17    19    20   ar
    18    20    23    1
    19    23    24   ar
    20    24    25   ar
    21    25    26   ar
    22    26    27   ar
    23    20    21   ar
    24    21    22   ar
    25     4     5   ar
    26    12     6   ar
    27     5     1   ar
    28    22    17   ar
    29    27    23   ar
    30    15    16    1
@<TRIPOS>MOLECULE
*****
 27 30 0 0 0
SMALL
GASTEIGER

@<TRIPOS>ATOM
      1 C          -9.0020  -16.1815   24.0711 C.ar    1  UNL1        0.0927
      2 C          -9.1177  -15.5439   25.4239 C.ar    1  UNL1        0.0573
      3 S          -7.7398  -15.4417   26.0076 S.2     1  UNL1       -0.0509
      4 C          -6.7723  -16.0163   25.0156 C.ar    1  UNL1        0.1635
      5 N          -7.5525  -16.4735   23.8188 N.ar    1  UNL1       -0.2239
      6 C         -10.0375  -16.0845   21.6903 C.ar    1  UNL1        0.1401
      7 C         -11.1721  -16.3786   20.7542 C.ar    1  UNL1        0.0375
      8 C         -12.4057  -17.0637   21.2629 C.ar    1  UNL1        0.0098
      9 C         -12.5048  -17.4548   22.7076 C.ar    1  UNL1        0.0348
     10 BR        -13.7385  -18.1399   23.2162 Br      1  UNL1       -0.0490
     11 C         -11.3703  -17.1607   23.6436 C.ar    1  UNL1        0.0112
     12 C         -10.1366  -16.4756   23.1350 C.ar    1  UNL1        0.0527
     13 C          -8.9225  -14.1279   20.3948 C.3     1  UNL1        0.2525
     14 O          -8.8039  -15.3994   21.1816 O.3     1  UNL1       -0.4714
     15 N          -5.2859  -16.1161   25.1898 N.pl3   1  UNL1       -0.2927
     16 H          -4.8813  -15.9495   26.0717 H       1  UNL1        0.1541
     17 C          -4.4158  -16.4698   24.0203 C.ar    1  UNL1        0.0498
     18 C          -4.0299  -17.8989   23.7775 C.ar    1  UNL1        0.0161
     19 C          -3.1599  -18.2525   22.6080 C.ar    1  UNL1        0.0188
     20 C          -2.6756  -17.1771   21.6812 C.ar    1  UNL1        0.0656
     21 C          -3.0614  -15.7481   21.9239 C.ar    1  UNL1        0.0188
     22 C          -3.9315  -15.3944   23.0935 C.ar    1  UNL1        0.0161
     23 N          -1.8054  -17.5307   20.5116 N.ar    1  UNL1       -0.2864
     24 C          -0.3318  -17.8066   20.5605 C.ar    1  UNL1        0.1022
     25 C           0.1281  -18.1169   19.1669 C.ar    1  UNL1        0.1196
     26 N          -1.0611  -18.0328   18.2567 N.ar    1  UNL1       -0.2220
     27 C          -2.2562  -17.6705   19.0878 C.ar    1  UNL1        0.1828
@<TRIPOS>BOND
     1    13    14    1
     2    14     6    1
     3     6     7   ar
     4     7     8   ar
     5     8     9   ar
     6     9    10    1
     7     9    11   ar
     8    11    12   ar
     9    12     1    1
    10     1     2   ar
    11     2     3   ar
    12     3     4   ar
    13     4    15    1
    14    15    17    1
    15    17    18   ar
    16    18    19   ar
    17    19    20   ar
    18    20    23    1
    19    23    24   ar
    20    24    25   ar
    21    25    26   ar
    22    26    27   ar
    23    20    21   ar
    24    21    22   ar
    25     4     5   ar
    26    12     6   ar
    27     5     1   ar
    28    22    17   ar
    29    27    23   ar
    30    15    16    1
@<TRIPOS>MOLECULE
*****
 27 30 0 0 0
SMALL
GASTEIGER

@<TRIPOS>ATOM
      1 C           1.3815    0.9492   20.8681 C.ar    1  UNL1        0.0927
      2 C           1.8290    2.3450   20.5498 C.ar    1  UNL1        0.0573
      3 S           0.6060    3.1978   20.3856 S.2     1  UNL1       -0.0509
      4 C          -0.5975    2.3290   20.6026 C.ar    1  UNL1        0.1635
      5 N          -0.1182    0.9393   20.9008 N.ar    1  UNL1       -0.2239
      6 C           2.8376   -0.4758   22.4803 C.ar    1  UNL1        0.1401
      7 C           3.7325   -1.6548   22.7233 C.ar    1  UNL1        0.0375
      8 C           4.0662   -2.5878   21.5972 C.ar    1  UNL1        0.0098
      9 C           3.5051   -2.3418   20.2281 C.ar    1  UNL1        0.0348
     10 BR          3.8388   -3.2748   19.1020 Br      1  UNL1       -0.0490
     11 C           2.6101   -1.1629   19.9851 C.ar    1  UNL1        0.0112
     12 C           2.2764   -0.2299   21.1112 C.ar    1  UNL1        0.0527
     13 C           3.5559    1.3727   24.1587 C.3     1  UNL1        0.2525
     14 O           2.5038    0.4572   23.6064 O.3     1  UNL1       -0.4714
     15 N          -2.0288    2.7722   20.5335 N.pl3   1  UNL1       -0.2927
     16 H          -2.5203    2.7182   19.6821 H       1  UNL1        0.1541
     17 C          -2.7114    3.2976   21.7615 C.ar    1  UNL1        0.0498
     18 C          -4.1957    3.5145   21.7598 C.ar    1  UNL1        0.0161
     19 C          -4.8781    4.0399   22.9879 C.ar    1  UNL1        0.0188
     20 C          -4.0764    4.3483   24.2175 C.ar    1  UNL1        0.0656
     21 C          -2.5923    4.1314   24.2192 C.ar    1  UNL1        0.0188
     22 C          -1.9097    3.6060   22.9911 C.ar    1  UNL1        0.0161
     23 N          -4.7590    4.8738   25.4456 N.ar    1  UNL1       -0.2864
     24 C          -6.1047    5.5347   25.4919 C.ar    1  UNL1        0.1022
     25 C          -6.3930    5.8998   26.9179 C.ar    1  UNL1        0.1196
     26 N          -5.2255    5.4647   27.7530 N.ar    1  UNL1       -0.2220
     27 C          -4.2155    4.8305   26.8431 C.ar    1  UNL1        0.1828
@<TRIPOS>BOND
     1    13    14    1
     2    14     6    1
     3     6     7   ar
     4     7     8   ar
     5     8     9   ar
     6     9    10    1
     7     9    11   ar
     8    11    12   ar
     9    12     1    1
    10     1     2   ar
    11     2     3   ar
    12     3     4   ar
    13     4    15    1
    14    15    17    1
    15    17    18   ar
    16    18    19   ar
    17    19    20   ar
    18    20    23    1
    19    23    24   ar
    20    24    25   ar
    21    25    26   ar
    22    26    27   ar
    23    20    21   ar
    24    21    22   ar
    25     4     5   ar
    26    12     6   ar
    27     5     1   ar
    28    22    17   ar
    29    27    23   ar
    30    15    16    1
