@<TRIPOS>MOLECULE
*****
 26 29 0 0 0
SMALL
GASTEIGER

@<TRIPOS>ATOM
      1 C         -14.0811   -5.6046   19.2264 C.3     1  UNL1        0.1270
      2 C         -12.6142   -5.5222   18.9238 C.ar    1  UNL1        0.0249
      3 C         -11.8722   -4.2388   19.1525 C.ar    1  UNL1       -0.0005
      4 C         -10.4054   -4.1564   18.8499 C.ar    1  UNL1       -0.0001
      5 C          -9.6806   -5.3574   18.3185 C.ar    1  UNL1        0.0031
      6 C         -10.4225   -6.6407   18.0898 C.ar    1  UNL1        0.0372
      7 C         -11.8894   -6.7231   18.3925 C.ar    1  UNL1        0.1420
      8 O         -12.6314   -8.0066   18.1638 O.3     1  UNL1       -0.4541
      9 C         -14.0982   -8.0890   18.4664 C.ar    1  UNL1        0.1420
     10 C         -14.8403   -9.3724   18.2377 C.ar    1  UNL1        0.0372
     11 C         -16.3071   -9.4548   18.5403 C.ar    1  UNL1        0.0031
     12 C         -17.0319   -8.2538   19.0717 C.ar    1  UNL1       -0.0001
     13 C         -16.2900   -6.9705   19.3004 C.ar    1  UNL1       -0.0005
     14 C         -14.8231   -6.8880   18.9977 C.ar    1  UNL1        0.0249
     15 N         -15.6917   -3.6008   18.8519 N.am    1  UNL1       -0.2636
     16 C         -14.8059   -4.4037   19.7578 C.2     1  UNL1        0.2355
     17 O         -14.6448   -4.0056   21.1950 O.2     1  UNL1       -0.2740
     18 H         -15.7974   -3.8620   17.9086 H       1  UNL1        0.1568
     19 C         -16.8920   -0.1607   20.1901 C.ar    1  UNL1        0.0671
     20 C         -18.1719   -0.9427   20.2117 C.ar    1  UNL1        0.0528
     21 S         -17.8780   -2.3265   19.7130 S.2     1  UNL1       -0.0512
     22 C         -16.4165   -2.3998   19.3832 C.ar    1  UNL1        0.1652
     23 N         -15.8072   -1.0613   19.6781 N.ar    1  UNL1       -0.2283
     24 C         -15.9488    2.2185   19.7428 C.3     1  UNL1        0.0063
     25 C         -16.7261    1.2705   20.6073 C.3     1  UNL1        0.0409
     26 C         -17.3374    1.7539   21.8889 C.3     1  UNL1        0.0063
@<TRIPOS>BOND
     1    24    25    1
     2    25    26    1
     3    25    19    1
     4    19    20   ar
     5    20    21   ar
     6    21    22   ar
     7    22    15    1
     8    15    16   am
     9    16    17    2
    10    16     1    1
    11     1     2    1
    12     2     3   ar
    13     3     4   ar
    14     4     5   ar
    15     5     6   ar
    16     6     7   ar
    17     7     8    1
    18     8     9    1
    19     9    10   ar
    20    10    11   ar
    21    11    12   ar
    22    12    13   ar
    23    13    14   ar
    24    22    23   ar
    25    23    19   ar
    26    14     1    1
    27     7     2   ar
    28    14     9   ar
    29    15    18    1
@<TRIPOS>MOLECULE
*****
 26 29 0 0 0
SMALL
GASTEIGER

@<TRIPOS>ATOM
      1 C         -14.0845   -5.6147   19.2293 C.3     1  UNL1        0.1270
      2 C         -14.8285   -6.8969   18.9998 C.ar    1  UNL1        0.0249
      3 C         -16.2958   -6.9767   19.3005 C.ar    1  UNL1       -0.0005
      4 C         -17.0398   -8.2588   19.0710 C.ar    1  UNL1       -0.0001
      5 C         -16.3164   -9.4610   18.5407 C.ar    1  UNL1        0.0031
      6 C         -14.8490   -9.3812   18.2400 C.ar    1  UNL1        0.0372
      7 C         -14.1051   -8.0991   18.4695 C.ar    1  UNL1        0.1420
      8 O         -12.6377   -8.0193   18.1688 O.3     1  UNL1       -0.4541
      9 C         -11.8937   -6.7372   18.3983 C.ar    1  UNL1        0.1420
     10 C         -10.4263   -6.6573   18.0976 C.ar    1  UNL1        0.0372
     11 C          -9.6824   -5.3752   18.3271 C.ar    1  UNL1        0.0031
     12 C         -10.4058   -4.1729   18.8574 C.ar    1  UNL1       -0.0001
     13 C         -11.8731   -4.2527   19.1581 C.ar    1  UNL1       -0.0005
     14 C         -12.6171   -5.5349   18.9286 C.ar    1  UNL1        0.0249
     15 N         -15.6869   -3.6050   18.8511 N.am    1  UNL1       -0.2636
     16 C         -14.8079   -4.4124   19.7596 C.2     1  UNL1        0.2355
     17 O         -14.6522   -4.0176   21.1983 O.2     1  UNL1       -0.2740
     18 H         -15.7891   -3.8641   17.9069 H       1  UNL1        0.1568
     19 C         -16.8839   -0.1611   20.1826 C.ar    1  UNL1        0.0671
     20 C         -18.1632   -0.9438   20.2121 C.ar    1  UNL1        0.0528
     21 S         -17.8705   -2.3292   19.7169 S.2     1  UNL1       -0.0512
     22 C         -16.4103   -2.4027   19.3814 C.ar    1  UNL1        0.1652
     23 N         -15.8006   -1.0627   19.6692 N.ar    1  UNL1       -0.2283
     24 C         -17.3393    1.7634   21.8675 C.3     1  UNL1        0.0063
     25 C         -16.7172    1.2716   20.5943 C.3     1  UNL1        0.0409
     26 C         -15.9284    2.2125   19.7327 C.3     1  UNL1        0.0063
@<TRIPOS>BOND
     1    24    25    1
     2    25    26    1
     3    25    19    1
     4    19    20   ar
     5    20    21   ar
     6    21    22   ar
     7    22    15    1
     8    15    16   am
     9    16    17    2
    10    16     1    1
    11     1     2    1
    12     2     3   ar
    13     3     4   ar
    14     4     5   ar
    15     5     6   ar
    16     6     7   ar
    17     7     8    1
    18     8     9    1
    19     9    10   ar
    20    10    11   ar
    21    11    12   ar
    22    12    13   ar
    23    13    14   ar
    24    22    23   ar
    25    23    19   ar
    26    14     1    1
    27     7     2   ar
    28    14     9   ar
    29    15    18    1
@<TRIPOS>MOLECULE
*****
 26 29 0 0 0
SMALL
GASTEIGER

@<TRIPOS>ATOM
      1 C         -13.3074   -3.6766   19.0190 C.3     1  UNL1        0.1270
      2 C         -13.1978   -2.2089   18.7289 C.ar    1  UNL1        0.0249
      3 C         -14.3945   -1.3201   18.8955 C.ar    1  UNL1       -0.0005
      4 C         -14.2849    0.1475   18.6054 C.ar    1  UNL1       -0.0001
      5 C         -12.9786    0.7262   18.1485 C.ar    1  UNL1        0.0031
      6 C         -11.7819   -0.1627   17.9819 C.ar    1  UNL1        0.0372
      7 C         -11.8915   -1.6302   18.2721 C.ar    1  UNL1        0.1420
      8 O         -10.6948   -2.5192   18.1054 O.3     1  UNL1       -0.4541
      9 C         -10.8044   -3.9867   18.3956 C.ar    1  UNL1        0.1420
     10 C          -9.6076   -4.8756   18.2289 C.ar    1  UNL1        0.0372
     11 C          -9.7172   -6.3432   18.5191 C.ar    1  UNL1        0.0031
     12 C         -11.0235   -6.9219   18.9759 C.ar    1  UNL1       -0.0001
     13 C         -12.2202   -6.0330   19.1426 C.ar    1  UNL1       -0.0005
     14 C         -12.1107   -4.5654   18.8524 C.ar    1  UNL1        0.0249
     15 N         -15.5727   -4.8257   18.4735 N.am    1  UNL1       -0.2636
     16 C         -14.6137   -4.2553   19.4758 C.2     1  UNL1        0.2355
     17 O         -14.9609   -4.2635   20.9351 O.2     1  UNL1       -0.2740
     18 H         -15.3448   -4.8203   17.5157 H       1  UNL1        0.1568
     19 C         -18.5825   -6.9793   19.6434 C.ar    1  UNL1        0.0671
     20 C         -19.1960   -5.6106   19.6231 C.ar    1  UNL1        0.0528
     21 S         -18.1431   -4.6373   19.1824 S.2     1  UNL1       -0.0512
     22 C         -16.8790   -5.4044   18.9303 C.ar    1  UNL1        0.1652
     23 N         -17.1506   -6.8518   19.2152 N.ar    1  UNL1       -0.2283
     24 C         -18.9624   -9.5264   19.2997 C.3     1  UNL1        0.0063
     25 C         -19.2787   -8.2520   20.0249 C.3     1  UNL1        0.0409
     26 C         -20.2913   -8.2502   21.1315 C.3     1  UNL1        0.0063
@<TRIPOS>BOND
     1    24    25    1
     2    25    26    1
     3    25    19    1
     4    19    20   ar
     5    20    21   ar
     6    21    22   ar
     7    22    15    1
     8    15    16   am
     9    16    17    2
    10    16     1    1
    11     1     2    1
    12     2     3   ar
    13     3     4   ar
    14     4     5   ar
    15     5     6   ar
    16     6     7   ar
    17     7     8    1
    18     8     9    1
    19     9    10   ar
    20    10    11   ar
    21    11    12   ar
    22    12    13   ar
    23    13    14   ar
    24    22    23   ar
    25    23    19   ar
    26    14     1    1
    27     7     2   ar
    28    14     9   ar
    29    15    18    1
@<TRIPOS>MOLECULE
*****
 26 29 0 0 0
SMALL
GASTEIGER

@<TRIPOS>ATOM
      1 C         -13.5347   -5.1512   18.5140 C.3     1  UNL1        0.1270
      2 C         -13.9118   -3.6993   18.5186 C.ar    1  UNL1        0.0249
      3 C         -15.3421   -3.2952   18.3168 C.ar    1  UNL1       -0.0005
      4 C         -15.7190   -1.8434   18.3215 C.ar    1  UNL1       -0.0001
      5 C         -14.6657   -0.7957   18.5280 C.ar    1  UNL1        0.0031
      6 C         -13.2353   -1.1998   18.7298 C.ar    1  UNL1        0.0372
      7 C         -12.8584   -2.6516   18.7251 C.ar    1  UNL1        0.1420
      8 O         -11.4280   -3.0558   18.9270 O.3     1  UNL1       -0.4541
      9 C         -11.0510   -4.5076   18.9223 C.ar    1  UNL1        0.1420
     10 C          -9.6206   -4.9117   19.1241 C.ar    1  UNL1        0.0372
     11 C          -9.2436   -6.3636   19.1194 C.ar    1  UNL1        0.0031
     12 C         -10.2970   -7.4113   18.9130 C.ar    1  UNL1       -0.0001
     13 C         -11.7274   -7.0072   18.7111 C.ar    1  UNL1       -0.0005
     14 C         -12.1044   -5.5553   18.7158 C.ar    1  UNL1        0.0249
     15 N         -15.4072   -6.6781   19.4691 N.am    1  UNL1       -0.2636
     16 C         -14.5881   -6.1989   18.3075 C.2     1  UNL1        0.2355
     17 O         -14.8224   -6.7675   16.9392 O.2     1  UNL1       -0.2740
     18 H         -15.2534   -6.3050   20.3671 H       1  UNL1        0.1568
     19 C         -18.4500   -8.8767   18.4825 C.ar    1  UNL1        0.0671
     20 C         -17.7132   -9.7997   19.4072 C.ar    1  UNL1        0.0528
     21 S         -16.4837   -9.0885   19.8893 S.2     1  UNL1       -0.0512
     22 C         -16.4606   -7.7259   19.2626 C.ar    1  UNL1        0.1652
     23 N         -17.6758   -7.5950   18.3931 N.ar    1  UNL1       -0.2283
     24 C         -20.2968  -10.5724   17.8012 C.3     1  UNL1        0.0063
     25 C         -19.7353   -9.1817   17.7719 C.3     1  UNL1        0.0409
     26 C         -20.4591   -8.0961   17.0319 C.3     1  UNL1        0.0063
@<TRIPOS>BOND
     1    24    25    1
     2    25    26    1
     3    25    19    1
     4    19    20   ar
     5    20    21   ar
     6    21    22   ar
     7    22    15    1
     8    15    16   am
     9    16    17    2
    10    16     1    1
    11     1     2    1
    12     2     3   ar
    13     3     4   ar
    14     4     5   ar
    15     5     6   ar
    16     6     7   ar
    17     7     8    1
    18     8     9    1
    19     9    10   ar
    20    10    11   ar
    21    11    12   ar
    22    12    13   ar
    23    13    14   ar
    24    22    23   ar
    25    23    19   ar
    26    14     1    1
    27     7     2   ar
    28    14     9   ar
    29    15    18    1
@<TRIPOS>MOLECULE
*****
 26 29 0 0 0
SMALL
GASTEIGER

@<TRIPOS>ATOM
      1 C         -17.2117   -4.8516   19.2643 C.3     1  UNL1        0.1270
      2 C         -17.7199   -6.2446   19.4911 C.ar    1  UNL1        0.0249
      3 C         -16.8059   -7.4176   19.2948 C.ar    1  UNL1       -0.0005
      4 C         -17.3141   -8.8105   19.5215 C.ar    1  UNL1       -0.0001
      5 C         -18.7363   -9.0304   19.9446 C.ar    1  UNL1        0.0031
      6 C         -19.6503   -7.8574   20.1409 C.ar    1  UNL1        0.0372
      7 C         -19.1421   -6.4645   19.9142 C.ar    1  UNL1        0.1420
      8 O         -20.0561   -5.2914   20.1105 O.3     1  UNL1       -0.4541
      9 C         -19.5479   -3.8985   19.8838 C.ar    1  UNL1        0.1420
     10 C         -20.4619   -2.7254   20.0801 C.ar    1  UNL1        0.0372
     11 C         -19.9537   -1.3324   19.8533 C.ar    1  UNL1        0.0031
     12 C         -18.5315   -1.1125   19.4303 C.ar    1  UNL1       -0.0001
     13 C         -17.6175   -2.2856   19.2339 C.ar    1  UNL1       -0.0005
     14 C         -18.1257   -3.6786   19.4607 C.ar    1  UNL1        0.0249
     15 N         -14.7419   -4.3169   19.8675 N.am    1  UNL1       -0.2636
     16 C         -15.7895   -4.6317   18.8413 C.2     1  UNL1        0.2355
     17 O         -15.4150   -4.7266   17.3918 O.2     1  UNL1       -0.2740
     18 H         -14.9877   -4.2546   20.8188 H       1  UNL1        0.1568
     19 C         -11.0354   -4.4997   18.7298 C.ar    1  UNL1        0.0671
     20 C         -11.2268   -3.0174   18.8570 C.ar    1  UNL1        0.0528
     21 S         -12.6385   -2.7685   19.2987 S.2     1  UNL1       -0.0512
     22 C         -13.3197   -4.0970   19.4445 C.ar    1  UNL1        0.1652
     23 N         -12.3289   -5.1669   19.0929 N.ar    1  UNL1       -0.2283
     24 C          -9.0268   -4.7267   17.0976 C.3     1  UNL1        0.0063
     25 C          -9.7724   -5.1931   18.3128 C.3     1  UNL1        0.0409
     26 C          -9.2549   -6.3529   19.1109 C.3     1  UNL1        0.0063
@<TRIPOS>BOND
     1    24    25    1
     2    25    26    1
     3    25    19    1
     4    19    20   ar
     5    20    21   ar
     6    21    22   ar
     7    22    15    1
     8    15    16   am
     9    16    17    2
    10    16     1    1
    11     1     2    1
    12     2     3   ar
    13     3     4   ar
    14     4     5   ar
    15     5     6   ar
    16     6     7   ar
    17     7     8    1
    18     8     9    1
    19     9    10   ar
    20    10    11   ar
    21    11    12   ar
    22    12    13   ar
    23    13    14   ar
    24    22    23   ar
    25    23    19   ar
    26    14     1    1
    27     7     2   ar
    28    14     9   ar
    29    15    18    1
@<TRIPOS>MOLECULE
*****
 26 29 0 0 0
SMALL
GASTEIGER

@<TRIPOS>ATOM
      1 C           4.1655   -1.7482   21.4397 C.3     1  UNL1        0.1270
      2 C           3.9543   -1.3498   20.0091 C.ar    1  UNL1        0.0249
      3 C           4.5624   -2.1643   18.9061 C.ar    1  UNL1       -0.0005
      4 C           4.3511   -1.7659   17.4755 C.ar    1  UNL1       -0.0001
      5 C           3.5318   -0.5529   17.1479 C.ar    1  UNL1        0.0031
      6 C           2.9237    0.2617   18.2509 C.ar    1  UNL1        0.0372
      7 C           3.1350   -0.1368   19.6815 C.ar    1  UNL1        0.1420
      8 O           2.5269    0.6778   20.7846 O.3     1  UNL1       -0.4541
      9 C           2.7381    0.2794   22.2151 C.ar    1  UNL1        0.1420
     10 C           2.1300    1.0940   23.3182 C.ar    1  UNL1        0.0372
     11 C           2.3413    0.6956   24.7488 C.ar    1  UNL1        0.0031
     12 C           3.1606   -0.5174   25.0764 C.ar    1  UNL1       -0.0001
     13 C           3.7687   -1.3320   23.9734 C.ar    1  UNL1       -0.0005
     14 C           3.5575   -0.9336   22.5427 C.ar    1  UNL1        0.0249
     15 N           6.4213   -2.8092   22.1716 N.am    1  UNL1       -0.2636
     16 C           4.9849   -2.9612   21.7673 C.2     1  UNL1        0.2355
     17 O           4.3677   -4.3262   21.6906 O.2     1  UNL1       -0.2740
     18 H           6.8264   -1.9133   22.2219 H       1  UNL1        0.1568
     19 C           8.1237   -5.9704   23.6460 C.ar    1  UNL1        0.0671
     20 C           8.8793   -5.8072   22.3605 C.ar    1  UNL1        0.0528
     21 S           8.3336   -4.6031   21.6518 S.2     1  UNL1       -0.0512
     22 C           7.2407   -4.0222   22.4992 C.ar    1  UNL1        0.1652
     23 N           7.1110   -4.8672   23.7316 N.ar    1  UNL1       -0.2283
     24 C           9.5360   -7.9500   24.5607 C.3     1  UNL1        0.0063
     25 C           8.3424   -7.0477   24.6666 C.3     1  UNL1        0.0409
     26 C           7.3675   -7.2227   25.7930 C.3     1  UNL1        0.0063
@<TRIPOS>BOND
     1    24    25    1
     2    25    26    1
     3    25    19    1
     4    19    20   ar
     5    20    21   ar
     6    21    22   ar
     7    22    15    1
     8    15    16   am
     9    16    17    2
    10    16     1    1
    11     1     2    1
    12     2     3   ar
    13     3     4   ar
    14     4     5   ar
    15     5     6   ar
    16     6     7   ar
    17     7     8    1
    18     8     9    1
    19     9    10   ar
    20    10    11   ar
    21    11    12   ar
    22    12    13   ar
    23    13    14   ar
    24    22    23   ar
    25    23    19   ar
    26    14     1    1
    27     7     2   ar
    28    14     9   ar
    29    15    18    1
@<TRIPOS>MOLECULE
*****
 26 29 0 0 0
SMALL
GASTEIGER

@<TRIPOS>ATOM
      1 C           4.1857   -1.7344   21.4181 C.3     1  UNL1        0.1270
      2 C           3.5488   -0.9404   22.5200 C.ar    1  UNL1        0.0249
      3 C           3.7595   -1.3397   23.9505 C.ar    1  UNL1       -0.0005
      4 C           3.1227   -0.5458   25.0523 C.ar    1  UNL1       -0.0001
      5 C           2.2752    0.6475   24.7237 C.ar    1  UNL1        0.0031
      6 C           2.0646    1.0468   23.2933 C.ar    1  UNL1        0.0372
      7 C           2.7014    0.2529   22.1915 C.ar    1  UNL1        0.1420
      8 O           2.4908    0.6522   20.7609 O.3     1  UNL1       -0.4541
      9 C           3.1276   -0.1418   19.6591 C.ar    1  UNL1        0.1420
     10 C           2.9169    0.2575   18.2286 C.ar    1  UNL1        0.0372
     11 C           3.5538   -0.5364   17.1268 C.ar    1  UNL1        0.0031
     12 C           4.4012   -1.7297   17.4554 C.ar    1  UNL1       -0.0001
     13 C           4.6118   -2.1290   18.8858 C.ar    1  UNL1       -0.0005
     14 C           3.9750   -1.3350   19.9877 C.ar    1  UNL1        0.0249
     15 N           6.4837   -2.7475   22.0834 N.am    1  UNL1       -0.2636
     16 C           5.0331   -2.9276   21.7467 C.2     1  UNL1        0.2355
     17 O           4.4299   -4.3010   21.7386 O.2     1  UNL1       -0.2740
     18 H           6.8795   -1.8461   22.0887 H       1  UNL1        0.1568
     19 C           8.2268   -5.8971   23.5351 C.ar    1  UNL1        0.0671
     20 C           9.0437   -5.6570   22.3001 C.ar    1  UNL1        0.0528
     21 S           8.4901   -4.4480   21.6060 S.2     1  UNL1       -0.0512
     22 C           7.3311   -3.9408   22.4119 C.ar    1  UNL1        0.1652
     23 N           7.1684   -4.8364   23.6042 N.ar    1  UNL1       -0.2283
     24 C           9.5336   -8.0008   24.3204 C.3     1  UNL1        0.0063
     25 C           8.4322   -7.0035   24.5268 C.3     1  UNL1        0.0409
     26 C           7.5364   -7.1127   25.7249 C.3     1  UNL1        0.0063
@<TRIPOS>BOND
     1    24    25    1
     2    25    26    1
     3    25    19    1
     4    19    20   ar
     5    20    21   ar
     6    21    22   ar
     7    22    15    1
     8    15    16   am
     9    16    17    2
    10    16     1    1
    11     1     2    1
    12     2     3   ar
    13     3     4   ar
    14     4     5   ar
    15     5     6   ar
    16     6     7   ar
    17     7     8    1
    18     8     9    1
    19     9    10   ar
    20    10    11   ar
    21    11    12   ar
    22    12    13   ar
    23    13    14   ar
    24    22    23   ar
    25    23    19   ar
    26    14     1    1
    27     7     2   ar
    28    14     9   ar
    29    15    18    1
@<TRIPOS>MOLECULE
*****
 26 29 0 0 0
SMALL
GASTEIGER

@<TRIPOS>ATOM
      1 C           6.9993   -4.3003   26.3596 C.3     1  UNL1        0.1270
      2 C           6.6847   -3.4372   27.5455 C.ar    1  UNL1        0.0249
      3 C           6.1540   -2.0490   27.3431 C.ar    1  UNL1       -0.0005
      4 C           5.8394   -1.1860   28.5290 C.ar    1  UNL1       -0.0001
      5 C           6.0557   -1.7113   29.9172 C.ar    1  UNL1        0.0031
      6 C           6.5864   -3.0996   30.1197 C.ar    1  UNL1        0.0372
      7 C           6.9009   -3.9625   28.9338 C.ar    1  UNL1        0.1420
      8 O           7.4317   -5.3509   29.1362 O.3     1  UNL1       -0.4541
      9 C           7.7462   -6.2138   27.9503 C.ar    1  UNL1        0.1420
     10 C           8.2770   -7.6022   28.1527 C.ar    1  UNL1        0.0372
     11 C           8.5915   -8.4651   26.9668 C.ar    1  UNL1        0.0031
     12 C           8.3753   -7.9398   25.5785 C.ar    1  UNL1       -0.0001
     13 C           7.8445   -6.5516   25.3761 C.ar    1  UNL1       -0.0005
     14 C           7.5300   -5.6885   26.5620 C.ar    1  UNL1        0.0249
     15 N           5.4222   -3.8494   24.3448 N.am    1  UNL1       -0.2636
     16 C           6.7830   -3.7750   24.9713 C.2     1  UNL1        0.2355
     17 O           7.9277   -3.1753   24.2096 O.2     1  UNL1       -0.2740
     18 H           4.6710   -4.2430   24.8447 H       1  UNL1        0.1568
     19 C           5.0044   -3.1994   20.5410 C.ar    1  UNL1        0.0671
     20 C           4.7422   -1.8321   21.0992 C.ar    1  UNL1        0.0528
     21 S           4.8668   -1.9092   22.5920 S.2     1  UNL1       -0.0512
     22 C           5.2060   -3.3241   22.9565 C.ar    1  UNL1        0.1652
     23 N           5.2911   -4.1215   21.6888 N.ar    1  UNL1       -0.2283
     24 C           5.4070   -2.5843   18.0491 C.3     1  UNL1        0.0063
     25 C           4.9837   -3.5782   19.0898 C.3     1  UNL1        0.0409
     26 C           4.5395   -4.9508   18.6792 C.3     1  UNL1        0.0063
@<TRIPOS>BOND
     1    24    25    1
     2    25    26    1
     3    25    19    1
     4    19    20   ar
     5    20    21   ar
     6    21    22   ar
     7    22    15    1
     8    15    16   am
     9    16    17    2
    10    16     1    1
    11     1     2    1
    12     2     3   ar
    13     3     4   ar
    14     4     5   ar
    15     5     6   ar
    16     6     7   ar
    17     7     8    1
    18     8     9    1
    19     9    10   ar
    20    10    11   ar
    21    11    12   ar
    22    12    13   ar
    23    13    14   ar
    24    22    23   ar
    25    23    19   ar
    26    14     1    1
    27     7     2   ar
    28    14     9   ar
    29    15    18    1
@<TRIPOS>MOLECULE
*****
 26 29 0 0 0
SMALL
GASTEIGER

@<TRIPOS>ATOM
      1 C           6.9860   -4.2706   26.3658 C.3     1  UNL1        0.1270
      2 C           7.5073   -5.6625   26.5682 C.ar    1  UNL1        0.0249
      3 C           7.8196   -6.5262   25.3822 C.ar    1  UNL1       -0.0005
      4 C           8.3409   -7.9181   25.5846 C.ar    1  UNL1       -0.0001
      5 C           8.5499   -8.4462   26.9729 C.ar    1  UNL1        0.0031
      6 C           8.2376   -7.5825   28.1588 C.ar    1  UNL1        0.0372
      7 C           7.7163   -6.1907   27.9565 C.ar    1  UNL1        0.1420
      8 O           7.4039   -5.3269   29.1424 O.3     1  UNL1       -0.4541
      9 C           6.8827   -3.9351   28.9401 C.ar    1  UNL1        0.1420
     10 C           6.5703   -3.0713   30.1260 C.ar    1  UNL1        0.0372
     11 C           6.0490   -1.6795   29.9237 C.ar    1  UNL1        0.0031
     12 C           5.8401   -1.1513   28.5354 C.ar    1  UNL1       -0.0001
     13 C           6.1523   -2.0150   27.3494 C.ar    1  UNL1       -0.0005
     14 C           6.6737   -3.4069   27.5518 C.ar    1  UNL1        0.0249
     15 N           5.4206   -3.8202   24.3418 N.am    1  UNL1       -0.2636
     16 C           6.7770   -3.7425   24.9775 C.2     1  UNL1        0.2355
     17 O           7.9244   -3.1366   24.2250 O.2     1  UNL1       -0.2740
     18 H           4.6675   -4.2178   24.8358 H       1  UNL1        0.1568
     19 C           5.0048   -3.1661   20.5385 C.ar    1  UNL1        0.0671
     20 C           4.7753   -1.7924   21.0957 C.ar    1  UNL1        0.0528
     21 S           4.9031   -1.8703   22.5882 S.2     1  UNL1       -0.0512
     22 C           5.2116   -3.2920   22.9535 C.ar    1  UNL1        0.1652
     23 N           5.2744   -4.0928   21.6868 N.ar    1  UNL1       -0.2283
     24 C           4.4942   -4.9091   18.6807 C.3     1  UNL1        0.0063
     25 C           4.9706   -3.5462   19.0879 C.3     1  UNL1        0.0409
     26 C           5.4128   -2.5636   18.0445 C.3     1  UNL1        0.0063
@<TRIPOS>BOND
     1    24    25    1
     2    25    26    1
     3    25    19    1
     4    19    20   ar
     5    20    21   ar
     6    21    22   ar
     7    22    15    1
     8    15    16   am
     9    16    17    2
    10    16     1    1
    11     1     2    1
    12     2     3   ar
    13     3     4   ar
    14     4     5   ar
    15     5     6   ar
    16     6     7   ar
    17     7     8    1
    18     8     9    1
    19     9    10   ar
    20    10    11   ar
    21    11    12   ar
    22    12    13   ar
    23    13    14   ar
    24    22    23   ar
    25    23    19   ar
    26    14     1    1
    27     7     2   ar
    28    14     9   ar
    29    15    18    1
