@<TRIPOS>MOLECULE
*****
 30 33 0 0 0
SMALL
GASTEIGER

@<TRIPOS>ATOM
      1 C           7.1375   -3.2446   32.0983 C.ar    1  UNL1        0.1105
      2 C           5.6923   -3.1834   32.4951 C.ar    1  UNL1        0.0200
      3 C           5.1844   -2.0250   33.3015 C.ar    1  UNL1        0.0160
      4 C           6.1218   -0.9279   33.7110 C.ar    1  UNL1        0.0504
      5 C           7.5670   -0.9892   33.3142 C.ar    1  UNL1        0.0160
      6 C           8.0749   -2.1475   32.5079 C.ar    1  UNL1        0.0200
      7 N           5.6139    0.2305   34.5174 N.am    1  UNL1       -0.2839
      8 C           5.8669    0.2841   35.9949 C.2     1  UNL1        0.2260
      9 O           6.6279   -0.8206   36.6661 O.2     1  UNL1       -0.2748
     10 H           5.1144    0.9555   34.0769 H       1  UNL1        0.1549
     11 C           5.3590    1.4425   36.8013 C.3     1  UNL1        0.0812
     12 C           5.5755    2.7969   37.4085 C.3     1  UNL1        0.0143
     13 C           4.2628    2.0945   37.5908 C.3     1  UNL1        0.0330
     14 C           2.8720    2.0653   38.1518 C.ar    1  UNL1       -0.0029
     15 C           2.3962    0.8648   38.9151 C.ar    1  UNL1       -0.0011
     16 C           1.0054    0.8356   39.4761 C.ar    1  UNL1        0.0204
     17 C           0.0903    2.0069   39.2739 C.ar    1  UNL1        0.0989
     18 N           0.5661    3.2074   38.5107 N.ar    1  UNL1       -0.2426
     19 C           1.9570    3.2365   37.9496 C.ar    1  UNL1        0.0946
     20 S           7.6454   -4.4030   31.2919 S.O2    1  UNL1        0.0305
     21 O           6.8281   -5.3431   32.1274 O.2     1  UNL1       -0.1641
     22 O           8.4628   -3.4630   30.4564 O.2     1  UNL1       -0.1641
     23 N           8.4397   -7.1849   28.7044 N.ar    1  UNL1       -0.2500
     24 C           7.6504   -5.9851   29.1374 C.ar    1  UNL1        0.1153
     25 C           8.1534   -5.5613   30.4856 C.ar    1  UNL1        0.1497
     26 C           9.2534   -6.4992   30.8857 C.ar    1  UNL1        0.1404
     27 N           9.4304   -7.5027   29.7850 N.ar    1  UNL1       -0.1663
     28 C           7.2685   -7.4653   26.4023 C.3     1  UNL1        0.0263
     29 C           8.2683   -7.9353   27.4169 C.3     1  UNL1        0.1054
     30 C           9.0967   -9.1556   27.1440 C.3     1  UNL1        0.0263
@<TRIPOS>BOND
     1    28    29    1
     2    29    30    1
     3    29    23    1
     4    23    24   ar
     5    24    25   ar
     6    25    20    1
     7    20    21    2
     8    20    22    2
     9    20     1    1
    10     1     2   ar
    11     2     3   ar
    12     3     4   ar
    13     4     7    1
    14     7     8   am
    15     8     9    2
    16    11     8    1
    17    11    12    1
    18    12    13    1
    19    13    14    1
    20    14    15   ar
    21    15    16   ar
    22    16    17   ar
    23    17    18   ar
    24    18    19   ar
    25     4     5   ar
    26     5     6   ar
    27    25    26   ar
    28    26    27   ar
    29    27    23   ar
    30     6     1   ar
    31    13    11    1
    32    19    14   ar
    33     7    10    1
@<TRIPOS>MOLECULE
*****
 30 33 0 0 0
SMALL
GASTEIGER

@<TRIPOS>ATOM
      1 C           6.3472   -3.0200   32.2564 C.ar    1  UNL1        0.1105
      2 C           4.9987   -3.2305   32.8788 C.ar    1  UNL1        0.0200
      3 C           4.3578   -2.1291   33.6701 C.ar    1  UNL1        0.0160
      4 C           5.0653   -0.8173   33.8390 C.ar    1  UNL1        0.0504
      5 C           6.4138   -0.6069   33.2167 C.ar    1  UNL1        0.0160
      6 C           7.0547   -1.7082   32.4254 C.ar    1  UNL1        0.0200
      7 N           4.4243    0.2841   34.6304 N.am    1  UNL1       -0.2839
      8 C           4.7312    0.4347   36.0909 C.2     1  UNL1        0.2260
      9 O           5.6790   -0.5160   36.7601 O.2     1  UNL1       -0.2748
     10 H           3.8023    0.9080   34.1912 H       1  UNL1        0.1549
     11 C           4.0902    1.5361   36.8822 C.3     1  UNL1        0.0812
     12 C           3.8650    2.2341   38.1907 C.3     1  UNL1        0.0143
     13 C           3.2052    2.7456   36.9445 C.3     1  UNL1        0.0330
     14 C           2.3133    3.7392   36.2609 C.ar    1  UNL1       -0.0029
     15 C           1.7232    4.8774   37.0395 C.ar    1  UNL1       -0.0011
     16 C           0.8313    5.8710   36.3559 C.ar    1  UNL1        0.0204
     17 C           0.5296    5.7264   34.8937 C.ar    1  UNL1        0.0989
     18 N           1.1197    4.5882   34.1151 N.ar    1  UNL1       -0.2426
     19 C           2.0116    3.5946   34.7987 C.ar    1  UNL1        0.0946
     20 S           6.9881   -4.1214   31.4651 S.O2    1  UNL1        0.0305
     21 O           6.5205   -5.1225   32.4795 O.2     1  UNL1       -0.1641
     22 O           7.4558   -3.1203   30.4507 O.2     1  UNL1       -0.1641
     23 N           8.0979   -6.8333   28.9196 N.ar    1  UNL1       -0.2500
     24 C           7.1685   -5.7340   29.3409 C.ar    1  UNL1        0.1153
     25 C           7.6291   -5.2227   30.6737 C.ar    1  UNL1        0.1497
     26 C           8.8433   -6.0061   31.0763 C.ar    1  UNL1        0.1404
     27 N           9.1330   -7.0015   29.9922 N.ar    1  UNL1       -0.1663
     28 C           7.3124   -7.0474   26.4524 C.3     1  UNL1        0.0263
     29 C           8.0081   -7.6254   27.6490 C.3     1  UNL1        0.1054
     30 C           8.6139   -8.9956   27.5749 C.3     1  UNL1        0.0263
@<TRIPOS>BOND
     1    28    29    1
     2    29    30    1
     3    29    23    1
     4    23    24   ar
     5    24    25   ar
     6    25    20    1
     7    20    21    2
     8    20    22    2
     9    20     1    1
    10     1     2   ar
    11     2     3   ar
    12     3     4   ar
    13     4     7    1
    14     7     8   am
    15     8     9    2
    16    11     8    1
    17    11    12    1
    18    12    13    1
    19    13    14    1
    20    14    15   ar
    21    15    16   ar
    22    16    17   ar
    23    17    18   ar
    24    18    19   ar
    25     4     5   ar
    26     5     6   ar
    27    25    26   ar
    28    26    27   ar
    29    27    23   ar
    30     6     1   ar
    31    13    11    1
    32    19    14   ar
    33     7    10    1
@<TRIPOS>MOLECULE
*****
 30 33 0 0 0
SMALL
GASTEIGER

@<TRIPOS>ATOM
      1 C           3.4894    0.1215   30.5424 C.ar    1  UNL1        0.1105
      2 C           2.2603   -0.5511   30.0069 C.ar    1  UNL1        0.0200
      3 C           1.9593   -0.5041   28.5382 C.ar    1  UNL1        0.0160
      4 C           2.8874    0.2155   27.6050 C.ar    1  UNL1        0.0504
      5 C           4.1165    0.8881   28.1406 C.ar    1  UNL1        0.0160
      6 C           4.4175    0.8411   29.6093 C.ar    1  UNL1        0.0200
      7 N           2.5863    0.2625   26.1363 N.am    1  UNL1       -0.2839
      8 C           3.3533   -0.6077   25.1852 C.2     1  UNL1        0.2260
      9 O           4.4214   -1.5248   25.7029 O.2     1  UNL1       -0.2748
     10 H           1.8853    0.8644   25.7965 H       1  UNL1        0.1549
     11 C           3.0522   -0.5607   23.7165 C.3     1  UNL1        0.0812
     12 C           2.3923    0.1067   22.5464 C.3     1  UNL1        0.0143
     13 C           3.1907   -1.1467   22.3426 C.3     1  UNL1        0.0330
     14 C           3.7316   -2.2086   21.4318 C.ar    1  UNL1       -0.0029
     15 C           3.3804   -2.1962   19.9736 C.ar    1  UNL1       -0.0011
     16 C           3.9213   -3.2581   19.0627 C.ar    1  UNL1        0.0204
     17 C           4.8134   -4.3326   19.6102 C.ar    1  UNL1        0.0989
     18 N           5.1646   -4.3451   21.0684 N.ar    1  UNL1       -0.2426
     19 C           4.6237   -3.2831   21.9793 C.ar    1  UNL1        0.0946
     20 S           3.7905    0.0745   32.0112 S.O2    1  UNL1        0.0305
     21 O           4.3114    1.4798   31.9494 O.2     1  UNL1       -0.1641
     22 O           3.2697   -1.3308   32.0730 O.2     1  UNL1       -0.1641
     23 N           4.2948    0.6545   35.8158 N.ar    1  UNL1       -0.2500
     24 C           3.8478    1.1315   34.4657 C.ar    1  UNL1        0.1153
     25 C           4.0916    0.0275   33.4799 C.ar    1  UNL1        0.1497
     26 C           4.6893   -1.1318   34.2207 C.ar    1  UNL1        0.1404
     27 N           4.8149   -0.7443   35.6643 N.ar    1  UNL1       -0.1663
     28 C           3.2541    1.0535   38.1626 C.3     1  UNL1        0.0263
     29 C           4.2327    1.4386   37.0930 C.3     1  UNL1        0.1054
     30 C           5.1491    2.6078   37.3006 C.3     1  UNL1        0.0263
@<TRIPOS>BOND
     1    28    29    1
     2    29    30    1
     3    29    23    1
     4    23    24   ar
     5    24    25   ar
     6    25    20    1
     7    20    21    2
     8    20    22    2
     9    20     1    1
    10     1     2   ar
    11     2     3   ar
    12     3     4   ar
    13     4     7    1
    14     7     8   am
    15     8     9    2
    16    11     8    1
    17    11    12    1
    18    12    13    1
    19    13    14    1
    20    14    15   ar
    21    15    16   ar
    22    16    17   ar
    23    17    18   ar
    24    18    19   ar
    25     4     5   ar
    26     5     6   ar
    27    25    26   ar
    28    26    27   ar
    29    27    23   ar
    30     6     1   ar
    31    13    11    1
    32    19    14   ar
    33     7    10    1
@<TRIPOS>MOLECULE
*****
 30 33 0 0 0
SMALL
GASTEIGER

@<TRIPOS>ATOM
      1 C           3.9461   -1.6223   20.1121 C.ar    1  UNL1        0.1105
      2 C           4.1968   -1.0214   18.7608 C.ar    1  UNL1        0.0200
      3 C           3.1726   -0.1182   18.1400 C.ar    1  UNL1        0.0160
      4 C           1.8978    0.1840   18.8705 C.ar    1  UNL1        0.0504
      5 C           1.6471   -0.4170   20.2217 C.ar    1  UNL1        0.0160
      6 C           2.6713   -1.3201   20.8425 C.ar    1  UNL1        0.0200
      7 N           0.8737    1.0872   18.2496 N.am    1  UNL1       -0.2839
      8 C           0.8241    2.5375   18.6291 C.2     1  UNL1        0.2260
      9 O           1.7986    3.0846   19.6296 O.2     1  UNL1       -0.2748
     10 H           0.2341    0.7281   17.5929 H       1  UNL1        0.1549
     11 C          -0.2001    3.4407   18.0082 C.3     1  UNL1        0.0812
     12 C          -0.5604    4.5107   17.0208 C.3     1  UNL1        0.0143
     13 C          -1.6136    3.9350   17.9203 C.3     1  UNL1        0.0330
     14 C          -3.0377    3.8879   18.3889 C.ar    1  UNL1       -0.0029
     15 C          -4.1559    4.1047   17.4130 C.ar    1  UNL1       -0.0011
     16 C          -5.5800    4.0577   17.8816 C.ar    1  UNL1        0.0204
     17 C          -5.8860    3.7938   19.3262 C.ar    1  UNL1        0.0989
     18 N          -4.7677    3.5769   20.3022 N.ar    1  UNL1       -0.2426
     19 C          -3.3435    3.6240   19.8335 C.ar    1  UNL1        0.0946
     20 S           4.9702   -2.5255   20.7330 S.O2    1  UNL1        0.0305
     21 O           5.8526   -2.3502   19.5328 O.2     1  UNL1       -0.1641
     22 O           4.0878   -2.7009   21.9332 O.2     1  UNL1       -0.1641
     23 N           7.2124   -4.7721   22.9670 N.ar    1  UNL1       -0.2500
     24 C           6.0174   -3.8845   22.7828 C.ar    1  UNL1        0.1153
     25 C           5.9943   -3.4287   21.3539 C.ar    1  UNL1        0.1497
     26 C           7.1750   -4.0346   20.6549 C.ar    1  UNL1        0.1404
     27 N           7.9279   -4.8649   21.6518 N.ar    1  UNL1       -0.1663
     28 C           7.3293   -4.7980   25.5623 C.3     1  UNL1        0.0263
     29 C           7.6204   -5.4483   24.2423 C.3     1  UNL1        0.1054
     30 C           8.3193   -6.7746   24.1976 C.3     1  UNL1        0.0263
@<TRIPOS>BOND
     1    28    29    1
     2    29    30    1
     3    29    23    1
     4    23    24   ar
     5    24    25   ar
     6    25    20    1
     7    20    21    2
     8    20    22    2
     9    20     1    1
    10     1     2   ar
    11     2     3   ar
    12     3     4   ar
    13     4     7    1
    14     7     8   am
    15     8     9    2
    16    11     8    1
    17    11    12    1
    18    12    13    1
    19    13    14    1
    20    14    15   ar
    21    15    16   ar
    22    16    17   ar
    23    17    18   ar
    24    18    19   ar
    25     4     5   ar
    26     5     6   ar
    27    25    26   ar
    28    26    27   ar
    29    27    23   ar
    30     6     1   ar
    31    13    11    1
    32    19    14   ar
    33     7    10    1
@<TRIPOS>MOLECULE
*****
 30 33 0 0 0
SMALL
GASTEIGER

@<TRIPOS>ATOM
      1 C           3.2195    0.0511   30.4767 C.ar    1  UNL1        0.1105
      2 C           1.9926    0.0045   29.6150 C.ar    1  UNL1        0.0200
      3 C           2.0734   -0.5527   28.2246 C.ar    1  UNL1        0.0160
      4 C           3.3811   -1.0632   27.6960 C.ar    1  UNL1        0.0504
      5 C           4.6079   -1.0166   28.5578 C.ar    1  UNL1        0.0160
      6 C           4.5271   -0.4594   29.9481 C.ar    1  UNL1        0.0200
      7 N           3.4618   -1.6204   26.3056 N.am    1  UNL1       -0.2839
      8 C           3.5632   -0.6933   25.1309 C.2     1  UNL1        0.2260
      9 O           3.5838    0.7910   25.3464 O.2     1  UNL1       -0.2748
     10 H           3.4483   -2.5946   26.1642 H       1  UNL1        0.1549
     11 C           3.6439   -1.2504   23.7405 C.3     1  UNL1        0.0812
     12 C           4.1568   -2.2854   22.7835 C.3     1  UNL1        0.0143
     13 C           3.2709   -1.1805   22.2893 C.3     1  UNL1        0.0330
     14 C           2.5440   -0.5022   21.1661 C.ar    1  UNL1       -0.0029
     15 C           3.1131   -0.5314   19.7786 C.ar    1  UNL1       -0.0011
     16 C           2.3862    0.1469   18.6554 C.ar    1  UNL1        0.0204
     17 C           1.0902    0.8544   18.9198 C.ar    1  UNL1        0.0989
     18 N           0.5211    0.8835   20.3073 N.ar    1  UNL1       -0.2426
     19 C           1.2480    0.2052   21.4305 C.ar    1  UNL1        0.0946
     20 S           3.1387    0.6083   31.8671 S.O2    1  UNL1        0.0305
     21 O           4.5675    0.2193   32.1060 O.2     1  UNL1       -0.1641
     22 O           1.7099    0.9972   31.6282 O.2     1  UNL1       -0.1641
     23 N           3.5142    1.5947   35.6022 N.ar    1  UNL1       -0.2500
     24 C           3.9499    0.8003   34.4068 C.ar    1  UNL1        0.1153
     25 C           3.0579    1.1654   33.2574 C.ar    1  UNL1        0.1497
     26 C           2.0710    2.1855   33.7424 C.ar    1  UNL1        0.1404
     27 N           2.3530    2.4509   35.1916 N.ar    1  UNL1       -0.1663
     28 C           3.3141    1.0950   38.1439 C.3     1  UNL1        0.0263
     29 C           4.1314    1.5422   36.9683 C.3     1  UNL1        0.1054
     30 C           5.5658    1.9370   37.1590 C.3     1  UNL1        0.0263
@<TRIPOS>BOND
     1    28    29    1
     2    29    30    1
     3    29    23    1
     4    23    24   ar
     5    24    25   ar
     6    25    20    1
     7    20    21    2
     8    20    22    2
     9    20     1    1
    10     1     2   ar
    11     2     3   ar
    12     3     4   ar
    13     4     7    1
    14     7     8   am
    15     8     9    2
    16    11     8    1
    17    11    12    1
    18    12    13    1
    19    13    14    1
    20    14    15   ar
    21    15    16   ar
    22    16    17   ar
    23    17    18   ar
    24    18    19   ar
    25     4     5   ar
    26     5     6   ar
    27    25    26   ar
    28    26    27   ar
    29    27    23   ar
    30     6     1   ar
    31    13    11    1
    32    19    14   ar
    33     7    10    1
@<TRIPOS>MOLECULE
*****
 30 33 0 0 0
SMALL
GASTEIGER

@<TRIPOS>ATOM
      1 C           6.0666   -2.6746   32.3433 C.ar    1  UNL1        0.1105
      2 C           6.9697   -1.5381   32.7208 C.ar    1  UNL1        0.0200
      3 C           6.5318   -0.5439   33.7551 C.ar    1  UNL1        0.0160
      4 C           5.1907   -0.6862   34.4118 C.ar    1  UNL1        0.0504
      5 C           4.2876   -1.8227   34.0342 C.ar    1  UNL1        0.0160
      6 C           4.7255   -2.8170   33.0000 C.ar    1  UNL1        0.0200
      7 N           4.7528    0.3081   35.4461 N.am    1  UNL1       -0.2839
      8 C           3.8035    1.4083   35.0742 C.2     1  UNL1        0.2260
      9 O           3.2920    1.5143   33.6681 O.2     1  UNL1       -0.2748
     10 H           5.0884    0.2385   36.3690 H       1  UNL1        0.1549
     11 C           3.3656    2.4026   36.1085 C.3     1  UNL1        0.0812
     12 C           2.3906    3.4387   36.5836 C.3     1  UNL1        0.0143
     13 C           3.5821    3.0886   37.4248 C.3     1  UNL1        0.0330
     14 C           4.3950    3.2824   38.6703 C.ar    1  UNL1       -0.0029
     15 C           5.7785    2.7096   38.7597 C.ar    1  UNL1       -0.0011
     16 C           6.5914    2.9035   40.0053 C.ar    1  UNL1        0.0204
     17 C           6.0210    3.6702   41.1615 C.ar    1  UNL1        0.0989
     18 N           4.6375    4.2430   41.0721 N.ar    1  UNL1       -0.2426
     19 C           3.8246    4.0491   39.8265 C.ar    1  UNL1        0.0946
     20 S           6.5045   -3.6689   31.3090 S.O2    1  UNL1        0.0305
     21 O           6.5415   -4.7421   32.3563 O.2     1  UNL1       -0.1641
     22 O           6.4675   -2.5957   30.2617 O.2     1  UNL1       -0.1641
     23 N           7.2218   -5.8249   28.1622 N.ar    1  UNL1       -0.2500
     24 C           6.5615   -4.6518   28.8239 C.ar    1  UNL1        0.1153
     25 C           6.9424   -4.6631   30.2747 C.ar    1  UNL1        0.1497
     26 C           7.8380   -5.8432   30.5097 C.ar    1  UNL1        0.1404
     27 N           8.0107   -6.5612   29.2041 N.ar    1  UNL1       -0.1663
     28 C           6.8977   -5.1306   25.6796 C.3     1  UNL1        0.0263
     29 C           7.1123   -6.1965   26.7131 C.3     1  UNL1        0.1054
     30 C           7.2174   -7.6338   26.2973 C.3     1  UNL1        0.0263
@<TRIPOS>BOND
     1    28    29    1
     2    29    30    1
     3    29    23    1
     4    23    24   ar
     5    24    25   ar
     6    25    20    1
     7    20    21    2
     8    20    22    2
     9    20     1    1
    10     1     2   ar
    11     2     3   ar
    12     3     4   ar
    13     4     7    1
    14     7     8   am
    15     8     9    2
    16    11     8    1
    17    11    12    1
    18    12    13    1
    19    13    14    1
    20    14    15   ar
    21    15    16   ar
    22    16    17   ar
    23    17    18   ar
    24    18    19   ar
    25     4     5   ar
    26     5     6   ar
    27    25    26   ar
    28    26    27   ar
    29    27    23   ar
    30     6     1   ar
    31    13    11    1
    32    19    14   ar
    33     7    10    1
@<TRIPOS>MOLECULE
*****
 30 33 0 0 0
SMALL
GASTEIGER

@<TRIPOS>ATOM
      1 C           6.5470   -2.7840   32.1408 C.ar    1  UNL1        0.1105
      2 C           7.4960   -1.8028   32.7626 C.ar    1  UNL1        0.0200
      3 C           7.0091   -0.8537   33.8171 C.ar    1  UNL1        0.0160
      4 C           5.5732   -0.8858   34.2499 C.ar    1  UNL1        0.0504
      5 C           4.6243   -1.8670   33.6281 C.ar    1  UNL1        0.0160
      6 C           5.1112   -2.8161   32.5736 C.ar    1  UNL1        0.0200
      7 N           5.0864    0.0634   35.3045 N.am    1  UNL1       -0.2839
      8 C           4.4077    1.3410   34.9080 C.2     1  UNL1        0.2260
      9 O           4.2158    1.6694   33.4571 O.2     1  UNL1       -0.2748
     10 H           5.2123   -0.1521   36.2568 H       1  UNL1        0.1549
     11 C           3.9208    2.2902   35.9626 C.3     1  UNL1        0.0812
     12 C           3.8381    3.6797   36.5215 C.3     1  UNL1        0.0143
     13 C           3.1603    2.5447   37.2303 C.3     1  UNL1        0.0330
     14 C           2.3299    2.0363   38.3713 C.ar    1  UNL1       -0.0029
     15 C           2.0509    0.5681   38.5000 C.ar    1  UNL1       -0.0011
     16 C           1.2206    0.0597   39.6411 C.ar    1  UNL1        0.0204
     17 C           0.6691    1.0195   40.6534 C.ar    1  UNL1        0.0989
     18 N           0.9480    2.4877   40.5246 N.ar    1  UNL1       -0.2426
     19 C           1.7785    2.9961   39.3835 C.ar    1  UNL1        0.0946
     20 S           7.0339   -3.7332   31.0862 S.O2    1  UNL1        0.0305
     21 O           7.4082   -2.5719   30.2137 O.2     1  UNL1       -0.1641
     22 O           6.6596   -4.8945   31.9587 O.2     1  UNL1       -0.1641
     23 N           7.7076   -5.9323   27.9596 N.ar    1  UNL1       -0.2500
     24 C           6.8970   -4.8993   28.6849 C.ar    1  UNL1        0.1153
     25 C           7.5207   -4.6823   30.0317 C.ar    1  UNL1        0.1497
     26 C           8.7167   -5.5812   30.1389 C.ar    1  UNL1        0.1404
     27 N           8.8322   -6.3537   28.8583 N.ar    1  UNL1       -0.1663
     28 C           7.2679   -7.9252   26.3519 C.3     1  UNL1        0.0263
     29 C           7.4404   -6.4524   26.5783 C.3     1  UNL1        0.1054
     30 C           7.3456   -5.5000   25.4235 C.3     1  UNL1        0.0263
@<TRIPOS>BOND
     1    28    29    1
     2    29    30    1
     3    29    23    1
     4    23    24   ar
     5    24    25   ar
     6    25    20    1
     7    20    21    2
     8    20    22    2
     9    20     1    1
    10     1     2   ar
    11     2     3   ar
    12     3     4   ar
    13     4     7    1
    14     7     8   am
    15     8     9    2
    16    11     8    1
    17    11    12    1
    18    12    13    1
    19    13    14    1
    20    14    15   ar
    21    15    16   ar
    22    16    17   ar
    23    17    18   ar
    24    18    19   ar
    25     4     5   ar
    26     5     6   ar
    27    25    26   ar
    28    26    27   ar
    29    27    23   ar
    30     6     1   ar
    31    13    11    1
    32    19    14   ar
    33     7    10    1
@<TRIPOS>MOLECULE
*****
 30 33 0 0 0
SMALL
GASTEIGER

@<TRIPOS>ATOM
      1 C           3.8939   -0.9517   28.6294 C.ar    1  UNL1        0.1105
      2 C           2.6750   -0.5675   29.4146 C.ar    1  UNL1        0.0200
      3 C           2.7263   -0.5404   30.9135 C.ar    1  UNL1        0.0160
      4 C           3.9964   -0.8976   31.6271 C.ar    1  UNL1        0.0504
      5 C           5.2153   -1.2818   30.8418 C.ar    1  UNL1        0.0160
      6 C           5.1640   -1.3089   29.3430 C.ar    1  UNL1        0.0200
      7 N           4.0476   -0.8705   33.1260 N.am    1  UNL1       -0.2839
      8 C           4.6227    0.3194   33.8354 C.2     1  UNL1        0.2260
      9 O           5.1466    1.4823   33.0459 O.2     1  UNL1       -0.2748
     10 H           3.7037   -1.6337   33.6441 H       1  UNL1        0.1549
     11 C           4.6739    0.3465   35.3343 C.3     1  UNL1        0.0812
     12 C           5.3739    0.0061   36.6165 C.3     1  UNL1        0.0143
     13 C           4.0626    0.7338   36.6482 C.3     1  UNL1        0.0330
     14 C           2.9526    1.3775   37.4251 C.ar    1  UNL1       -0.0029
     15 C           2.3581    0.6724   38.6080 C.ar    1  UNL1       -0.0011
     16 C           1.2481    1.3162   39.3849 C.ar    1  UNL1        0.0204
     17 C           0.7326    2.6650   38.9788 C.ar    1  UNL1        0.0989
     18 N           1.3271    3.3701   37.7958 N.ar    1  UNL1       -0.2426
     19 C           2.4372    2.7263   37.0189 C.ar    1  UNL1        0.0946
     20 S           3.8427   -0.9788   27.1304 S.O2    1  UNL1        0.0305
     21 O           4.9721   -1.9656   27.1096 O.2     1  UNL1       -0.1641
     22 O           2.7132    0.0080   27.1512 O.2     1  UNL1       -0.1641
     23 N           3.1997   -0.5003   23.3327 N.ar    1  UNL1       -0.2500
     24 C           2.9315   -0.1364   24.7629 C.ar    1  UNL1        0.1153
     25 C           3.7915   -1.0059   25.6316 C.ar    1  UNL1        0.1497
     26 C           4.5912   -1.9071   24.7382 C.ar    1  UNL1        0.1404
     27 N           4.2255   -1.5947   23.3174 N.ar    1  UNL1       -0.1663
     28 C           2.0733   -0.7467   21.0045 C.3     1  UNL1        0.0263
     29 C           2.5554    0.1210   22.1291 C.3     1  UNL1        0.1054
     30 C           2.3930    1.6100   22.0500 C.3     1  UNL1        0.0263
@<TRIPOS>BOND
     1    28    29    1
     2    29    30    1
     3    29    23    1
     4    23    24   ar
     5    24    25   ar
     6    25    20    1
     7    20    21    2
     8    20    22    2
     9    20     1    1
    10     1     2   ar
    11     2     3   ar
    12     3     4   ar
    13     4     7    1
    14     7     8   am
    15     8     9    2
    16    11     8    1
    17    11    12    1
    18    12    13    1
    19    13    14    1
    20    14    15   ar
    21    15    16   ar
    22    16    17   ar
    23    17    18   ar
    24    18    19   ar
    25     4     5   ar
    26     5     6   ar
    27    25    26   ar
    28    26    27   ar
    29    27    23   ar
    30     6     1   ar
    31    13    11    1
    32    19    14   ar
    33     7    10    1
@<TRIPOS>MOLECULE
*****
 30 33 0 0 0
SMALL
GASTEIGER

@<TRIPOS>ATOM
      1 C           1.1421    1.2967   29.6055 C.ar    1  UNL1        0.1105
      2 C           1.1334    2.7486   29.2288 C.ar    1  UNL1        0.0200
      3 C           0.2467    3.2301   28.1189 C.ar    1  UNL1        0.0160
      4 C          -0.6314    2.2598   27.3858 C.ar    1  UNL1        0.0504
      5 C          -0.6227    0.8079   27.7625 C.ar    1  UNL1        0.0160
      6 C           0.2640    0.3264   28.8724 C.ar    1  UNL1        0.0200
      7 N          -1.5181    2.7414   26.2759 N.am    1  UNL1       -0.2839
      8 C          -0.9756    2.8663   24.8831 C.2     1  UNL1        0.2260
      9 O           0.4536    2.5096   24.6000 O.2     1  UNL1       -0.2748
     10 H          -2.4562    2.9755   26.4617 H       1  UNL1        0.1549
     11 C          -1.8624    3.3479   23.7732 C.3     1  UNL1        0.0812
     12 C          -2.0584    3.7075   22.3302 C.3     1  UNL1        0.0143
     13 C          -3.2022    3.8225   23.2938 C.3     1  UNL1        0.0330
     14 C          -4.6360    4.1629   23.5734 C.ar    1  UNL1       -0.0029
     15 C          -5.6899    3.8722   22.5464 C.ar    1  UNL1       -0.0011
     16 C          -7.1237    4.2126   22.8260 C.ar    1  UNL1        0.0204
     17 C          -7.5037    4.8437   24.1327 C.ar    1  UNL1        0.0989
     18 N          -6.4498    5.1344   25.1597 N.ar    1  UNL1       -0.2426
     19 C          -5.0159    4.7940   24.8801 C.ar    1  UNL1        0.0946
     20 S           2.0288    0.8151   30.7154 S.O2    1  UNL1        0.0305
     21 O           2.3305    2.2357   31.0908 O.2     1  UNL1       -0.1641
     22 O           1.7271   -0.6054   30.3400 O.2     1  UNL1       -0.1641
     23 N           4.0732    0.1786   33.9528 N.ar    1  UNL1       -0.2500
     24 C           3.1021    0.9989   33.1566 C.ar    1  UNL1        0.1153
     25 C           2.9155    0.3335   31.8252 C.ar    1  UNL1        0.1497
     26 C           3.7713   -0.8981   31.7986 C.ar    1  UNL1        0.1404
     27 N           4.4868   -0.9939   33.1135 N.ar    1  UNL1       -0.1663
     28 C           3.9323    1.6049   36.1198 C.3     1  UNL1        0.0263
     29 C           4.5475    0.4780   35.3439 C.3     1  UNL1        0.1054
     30 C           5.6368   -0.3493   35.9593 C.3     1  UNL1        0.0263
@<TRIPOS>BOND
     1    28    29    1
     2    29    30    1
     3    29    23    1
     4    23    24   ar
     5    24    25   ar
     6    25    20    1
     7    20    21    2
     8    20    22    2
     9    20     1    1
    10     1     2   ar
    11     2     3   ar
    12     3     4   ar
    13     4     7    1
    14     7     8   am
    15     8     9    2
    16    11     8    1
    17    11    12    1
    18    12    13    1
    19    13    14    1
    20    14    15   ar
    21    15    16   ar
    22    16    17   ar
    23    17    18   ar
    24    18    19   ar
    25     4     5   ar
    26     5     6   ar
    27    25    26   ar
    28    26    27   ar
    29    27    23   ar
    30     6     1   ar
    31    13    11    1
    32    19    14   ar
    33     7    10    1
