@<TRIPOS>MOLECULE
*****
 32 34 0 0 0
SMALL
GASTEIGER

@<TRIPOS>ATOM
      1 C          -5.9659  -19.7248   19.7134 C.2     1  UNL1        0.0619
      2 C          -4.9803  -20.7788   20.1227 C.2     1  UNL1        0.0072
      3 N          -9.9048  -19.5046   20.1452 N.am    1  UNL1       -0.2681
      4 C          -8.4466  -19.1683   20.2485 C.2     1  UNL1        0.3082
      5 O          -8.0110  -17.9394   20.9900 O.2     1  UNL1       -0.2521
      6 N          -7.4240  -20.0610   19.6101 N.am    1  UNL1       -0.2672
      7 H         -10.1906  -20.3112   19.6585 H       1  UNL1        0.1564
      8 H          -7.7099  -20.8676   19.1234 H       1  UNL1        0.1564
      9 C         -12.4846  -18.0460   22.7847 C.ar    1  UNL1        0.0359
     10 C         -12.9726  -16.8266   22.0601 C.ar    1  UNL1        0.0029
     11 C         -12.4379  -16.4999   20.6973 C.ar    1  UNL1        0.0014
     12 C         -11.4154  -17.3925   20.0589 C.ar    1  UNL1        0.0147
     13 C         -10.9274  -18.6119   20.7835 C.ar    1  UNL1        0.0517
     14 C         -11.4620  -18.9386   22.1464 C.ar    1  UNL1        0.0176
     15 C         -14.4703  -18.1521   24.4567 C.3     1  UNL1        0.0773
     16 C         -13.0192  -18.3727   24.1476 C.2     1  UNL1        0.1735
     17 O         -12.1027  -18.9199   25.2014 O.2     1  UNL1       -0.2913
     18 C          -3.5221  -20.4426   20.2260 C.3     1  UNL1        0.1002
     19 N          -3.0933  -19.1481   20.8507 N.3     1  UNL1       -0.2689
     20 C          -2.2421  -18.1868   20.0753 C.3     1  UNL1        0.0724
     21 C          -1.8132  -16.8922   20.7000 C.3     1  UNL1        0.0174
     22 C          -2.2357  -16.5589   22.1002 C.3     1  UNL1        0.0031
     23 C          -3.0870  -17.5202   22.8756 C.3     1  UNL1        0.0204
     24 C          -3.5158  -18.8148   22.2509 C.3     1  UNL1        0.0727
     25 C          -3.5095  -17.1870   24.2758 C.3     1  UNL1        0.0277
     26 C          -4.8573  -16.5785   24.5277 C.ar    1  UNL1       -0.0220
     27 C          -5.8972  -16.5854   23.4468 C.ar    1  UNL1       -0.0020
     28 C          -7.2450  -15.9769   23.6988 C.ar    1  UNL1        0.0293
     29 C          -7.5527  -15.3615   25.0317 C.ar    1  UNL1        0.1401
     30 F          -8.9003  -14.7530   25.2837 F       1  UNL1       -0.2042
     31 C          -6.5126  -15.3546   26.1126 C.ar    1  UNL1        0.0293
     32 C          -5.1650  -15.9631   25.8606 C.ar    1  UNL1       -0.0020
@<TRIPOS>BOND
     1    15    16    1
     2    16    17    2
     3    16     9    1
     4     9    10   ar
     5    10    11   ar
     6    11    12   ar
     7    12    13   ar
     8    13     3    1
     9     3     4   am
    10     4     5    2
    11     4     6   am
    12     6     1    1
    13     1     2    2
    14     2    18    1
    15    18    19    1
    16    19    20    1
    17    20    21    1
    18    21    22    1
    19    22    23    1
    20    23    25    1
    21    25    26    1
    22    26    27   ar
    23    27    28   ar
    24    28    29   ar
    25    29    30    1
    26    29    31   ar
    27    31    32   ar
    28    23    24    1
    29    13    14   ar
    30    14     9   ar
    31    24    19    1
    32    32    26   ar
    33     3     7    1
    34     6     8    1
@<TRIPOS>MOLECULE
*****
 32 34 0 0 0
SMALL
GASTEIGER

@<TRIPOS>ATOM
      1 C          -9.7601  -19.6294   19.8948 C.2     1  UNL1        0.0619
      2 C         -10.1804  -18.1958   19.7606 C.2     1  UNL1        0.0072
      3 N          -5.8149  -19.9829   19.6491 N.am    1  UNL1       -0.2681
      4 C          -7.1728  -19.5524   20.1188 C.2     1  UNL1        0.3082
      5 O          -7.3014  -18.6144   21.2822 O.2     1  UNL1       -0.2521
      6 N          -8.4021  -20.0599   19.4250 N.am    1  UNL1       -0.2672
      7 H          -5.7304  -20.5985   18.8854 H       1  UNL1        0.1564
      8 H          -8.3177  -20.6755   18.6614 H       1  UNL1        0.1564
      9 C          -2.1939  -18.4666   20.2317 C.ar    1  UNL1        0.0359
     10 C          -2.1269  -18.4604   21.7301 C.ar    1  UNL1        0.0029
     11 C          -3.2892  -18.9617   22.5349 C.ar    1  UNL1        0.0014
     12 C          -4.5185  -19.4692   21.8413 C.ar    1  UNL1        0.0147
     13 C          -4.5855  -19.4754   20.3428 C.ar    1  UNL1        0.0517
     14 C          -3.4232  -18.9741   19.5380 C.ar    1  UNL1        0.0176
     15 C           0.1970  -17.4560   20.1206 C.3     1  UNL1        0.0773
     16 C          -1.0315  -17.9654   19.4269 C.2     1  UNL1        0.1735
     17 O          -1.0977  -17.9734   17.9284 O.2     1  UNL1       -0.2913
     18 C         -11.5384  -17.7652   20.2304 C.3     1  UNL1        0.1002
     19 N         -11.9192  -17.9265   21.6722 N.3     1  UNL1       -0.2689
     20 C         -13.3573  -17.8187   22.0846 C.3     1  UNL1        0.0724
     21 C         -13.7383  -17.9800   23.5265 C.3     1  UNL1        0.0174
     22 C         -12.6810  -18.2490   24.5559 C.3     1  UNL1        0.0031
     23 C         -11.2428  -18.3568   24.1435 C.3     1  UNL1        0.0204
     24 C         -10.8619  -18.1955   22.7016 C.3     1  UNL1        0.0727
     25 C         -10.1855  -18.6258   25.1729 C.3     1  UNL1        0.0277
     26 C          -9.1612  -17.5762   25.4880 C.ar    1  UNL1       -0.0220
     27 C          -8.4590  -16.8556   24.3755 C.ar    1  UNL1       -0.0020
     28 C          -7.4347  -15.8060   24.6906 C.ar    1  UNL1        0.0293
     29 C          -7.1126  -15.4770   26.1182 C.ar    1  UNL1        0.1401
     30 F          -6.0884  -14.4275   26.4334 F       1  UNL1       -0.2042
     31 C          -7.8148  -16.1977   27.2307 C.ar    1  UNL1        0.0293
     32 C          -8.8391  -17.2472   26.9156 C.ar    1  UNL1       -0.0020
@<TRIPOS>BOND
     1    15    16    1
     2    16    17    2
     3    16     9    1
     4     9    10   ar
     5    10    11   ar
     6    11    12   ar
     7    12    13   ar
     8    13     3    1
     9     3     4   am
    10     4     5    2
    11     4     6   am
    12     6     1    1
    13     1     2    2
    14     2    18    1
    15    18    19    1
    16    19    20    1
    17    20    21    1
    18    21    22    1
    19    22    23    1
    20    23    25    1
    21    25    26    1
    22    26    27   ar
    23    27    28   ar
    24    28    29   ar
    25    29    30    1
    26    29    31   ar
    27    31    32   ar
    28    23    24    1
    29    13    14   ar
    30    14     9   ar
    31    24    19    1
    32    32    26   ar
    33     3     7    1
    34     6     8    1
@<TRIPOS>MOLECULE
*****
 32 34 0 0 0
SMALL
GASTEIGER

@<TRIPOS>ATOM
      1 C          -4.7863  -15.1879   23.4879 C.2     1  UNL1        0.0619
      2 C          -3.9068  -16.4025   23.5183 C.2     1  UNL1        0.0072
      3 N          -8.4649  -16.0062   24.7323 N.am    1  UNL1       -0.2681
      4 C          -7.2025  -16.0383   23.9229 C.2     1  UNL1        0.3082
      5 O          -7.0937  -16.9530   22.7390 O.2     1  UNL1       -0.2521
      6 N          -6.0488  -15.1558   24.2973 N.am    1  UNL1       -0.2672
      7 H          -8.5363  -15.4059   25.5093 H       1  UNL1        0.1564
      8 H          -6.1202  -14.5555   25.0743 H       1  UNL1        0.1564
      9 C         -11.6061  -17.4453   22.7797 C.ar    1  UNL1        0.0359
     10 C         -11.9259  -18.6537   23.6088 C.ar    1  UNL1        0.0029
     11 C         -11.0921  -18.9796   24.8124 C.ar    1  UNL1        0.0014
     12 C          -9.9385  -18.0972   25.1869 C.ar    1  UNL1        0.0147
     13 C          -9.6186  -16.8888   24.3578 C.ar    1  UNL1        0.0517
     14 C         -10.4524  -16.5628   23.1542 C.ar    1  UNL1        0.0176
     15 C         -11.9296  -16.1516   20.5500 C.3     1  UNL1        0.0773
     16 C         -12.4399  -17.1194   21.5762 C.2     1  UNL1        0.1735
     17 O         -13.7839  -17.7613   21.3987 O.2     1  UNL1       -0.2913
     18 C          -2.6442  -16.4347   22.7088 C.3     1  UNL1        0.1002
     19 N          -2.5616  -17.2936   21.4819 N.3     1  UNL1       -0.2689
     20 C          -1.4813  -17.0532   20.4695 C.3     1  UNL1        0.0724
     21 C          -1.3986  -17.9122   19.2425 C.3     1  UNL1        0.0174
     22 C          -2.3963  -19.0116   19.0281 C.3     1  UNL1        0.0031
     23 C          -3.4767  -19.2520   20.0406 C.3     1  UNL1        0.0204
     24 C          -3.5593  -18.3930   21.2675 C.3     1  UNL1        0.0727
     25 C          -4.4744  -20.3513   19.8261 C.3     1  UNL1        0.0277
     26 C          -5.8971  -20.1691   20.2651 C.ar    1  UNL1       -0.0220
     27 C          -6.9438  -19.7670   19.2688 C.ar    1  UNL1       -0.0020
     28 C          -8.3666  -19.5847   19.7078 C.ar    1  UNL1        0.0293
     29 C          -8.7426  -19.8046   21.1431 C.ar    1  UNL1        0.1401
     30 F         -10.1652  -19.6224   21.5822 F       1  UNL1       -0.2042
     31 C          -7.6958  -20.2068   22.1395 C.ar    1  UNL1        0.0293
     32 C          -6.2731  -20.3890   21.7005 C.ar    1  UNL1       -0.0020
@<TRIPOS>BOND
     1    15    16    1
     2    16    17    2
     3    16     9    1
     4     9    10   ar
     5    10    11   ar
     6    11    12   ar
     7    12    13   ar
     8    13     3    1
     9     3     4   am
    10     4     5    2
    11     4     6   am
    12     6     1    1
    13     1     2    2
    14     2    18    1
    15    18    19    1
    16    19    20    1
    17    20    21    1
    18    21    22    1
    19    22    23    1
    20    23    25    1
    21    25    26    1
    22    26    27   ar
    23    27    28   ar
    24    28    29   ar
    25    29    30    1
    26    29    31   ar
    27    31    32   ar
    28    23    24    1
    29    13    14   ar
    30    14     9   ar
    31    24    19    1
    32    32    26   ar
    33     3     7    1
    34     6     8    1
@<TRIPOS>MOLECULE
*****
 32 34 0 0 0
SMALL
GASTEIGER

@<TRIPOS>ATOM
      1 C          -7.5889  -14.7242   24.1885 C.2     1  UNL1        0.0619
      2 C          -8.5166  -15.8544   24.5233 C.2     1  UNL1        0.0072
      3 N          -4.0053  -16.2685   23.4655 N.am    1  UNL1       -0.2681
      4 C          -5.4897  -16.0553   23.4324 C.2     1  UNL1        0.3082
      5 O          -6.3592  -16.9598   22.6104 O.2     1  UNL1       -0.2521
      6 N          -6.1046  -14.9375   24.2215 N.am    1  UNL1       -0.2672
      7 H          -3.4346  -15.6748   24.0050 H       1  UNL1        0.1564
      8 H          -5.5339  -14.3438   24.7610 H       1  UNL1        0.1564
      9 C          -1.8012  -18.1988   20.7885 C.ar    1  UNL1        0.0359
     10 C          -2.1606  -19.6217   21.0984 C.ar    1  UNL1        0.0029
     11 C          -3.1350  -19.9269   22.1972 C.ar    1  UNL1        0.0014
     12 C          -3.7499  -18.8092   22.9862 C.ar    1  UNL1        0.0147
     13 C          -3.3904  -17.3863   22.6764 C.ar    1  UNL1        0.0517
     14 C          -2.4160  -17.0811   21.5776 C.ar    1  UNL1        0.0176
     15 C           0.5594  -17.4284   20.0243 C.3     1  UNL1        0.0773
     16 C          -0.8268  -17.8935   19.6897 C.2     1  UNL1        0.1735
     17 O          -1.2386  -18.0535   18.2563 O.2     1  UNL1       -0.2913
     18 C         -10.0010  -15.6412   24.4903 C.3     1  UNL1        0.1002
     19 N         -10.8346  -16.3295   23.4505 N.3     1  UNL1       -0.2689
     20 C         -12.1314  -15.7211   23.0055 C.3     1  UNL1        0.0724
     21 C         -12.9651  -16.4094   21.9656 C.3     1  UNL1        0.0174
     22 C         -12.5019  -17.7062   21.3708 C.3     1  UNL1        0.0031
     23 C         -11.2051  -18.3147   21.8159 C.3     1  UNL1        0.0204
     24 C         -10.3715  -17.6263   22.8557 C.3     1  UNL1        0.0727
     25 C         -10.7419  -19.6114   21.2210 C.3     1  UNL1        0.0277
     26 C          -9.2978  -19.7977   20.8601 C.ar    1  UNL1       -0.0220
     27 C          -8.8732  -19.7589   19.4220 C.ar    1  UNL1       -0.0020
     28 C          -7.4292  -19.9451   19.0611 C.ar    1  UNL1        0.0293
     29 C          -6.4099  -20.1701   20.1384 C.ar    1  UNL1        0.1401
     30 F          -4.9659  -20.3563   19.7775 F       1  UNL1       -0.2042
     31 C          -6.8346  -20.2088   21.5765 C.ar    1  UNL1        0.0293
     32 C          -8.2785  -20.0226   21.9374 C.ar    1  UNL1       -0.0020
@<TRIPOS>BOND
     1    15    16    1
     2    16    17    2
     3    16     9    1
     4     9    10   ar
     5    10    11   ar
     6    11    12   ar
     7    12    13   ar
     8    13     3    1
     9     3     4   am
    10     4     5    2
    11     4     6   am
    12     6     1    1
    13     1     2    2
    14     2    18    1
    15    18    19    1
    16    19    20    1
    17    20    21    1
    18    21    22    1
    19    22    23    1
    20    23    25    1
    21    25    26    1
    22    26    27   ar
    23    27    28   ar
    24    28    29   ar
    25    29    30    1
    26    29    31   ar
    27    31    32   ar
    28    23    24    1
    29    13    14   ar
    30    14     9   ar
    31    24    19    1
    32    32    26   ar
    33     3     7    1
    34     6     8    1
@<TRIPOS>MOLECULE
*****
 32 34 0 0 0
SMALL
GASTEIGER

@<TRIPOS>ATOM
      1 C           7.6867   -5.6577   31.2053 C.2     1  UNL1        0.0619
      2 C           7.4252   -5.9370   29.7550 C.2     1  UNL1        0.0072
      3 N           5.0068   -3.4101   33.0805 N.am    1  UNL1       -0.2681
      4 C           6.1354   -3.8151   32.1794 C.2     1  UNL1        0.3082
      5 O           6.8416   -2.7828   31.3514 O.2     1  UNL1       -0.2521
      6 N           6.5580   -5.2526   32.1064 N.am    1  UNL1       -0.2672
      7 H           4.5433   -4.0876   33.6240 H       1  UNL1        0.1564
      8 H           6.0945   -5.9301   32.6499 H       1  UNL1        0.1564
      9 C           3.3057    0.0508   32.1431 C.ar    1  UNL1        0.0359
     10 C           3.7391    0.9021   33.2995 C.ar    1  UNL1        0.0029
     11 C           4.5951    0.3161   34.3830 C.ar    1  UNL1        0.0014
     12 C           5.0177   -1.1213   34.3100 C.ar    1  UNL1        0.0147
     13 C           4.5842   -1.9726   33.1535 C.ar    1  UNL1        0.0517
     14 C           3.7282   -1.3866   32.0701 C.ar    1  UNL1        0.0176
     15 C           2.4459    2.1185   30.8257 C.3     1  UNL1        0.0773
     16 C           2.4497    0.6369   31.0597 C.2     1  UNL1        0.1735
     17 O           1.5974   -0.2587   30.2102 O.2     1  UNL1       -0.2913
     18 C           8.5539   -6.3421   28.8538 C.3     1  UNL1        0.1002
     19 N           8.3493   -6.3851   27.3685 N.3     1  UNL1       -0.2689
     20 C           8.2776   -7.7048   26.6591 C.3     1  UNL1        0.0724
     21 C           8.0730   -7.7477   25.1737 C.3     1  UNL1        0.0174
     22 C           7.9402   -6.4709   24.3977 C.3     1  UNL1        0.0031
     23 C           8.0119   -5.1512   25.1071 C.3     1  UNL1        0.0204
     24 C           8.2165   -5.1083   26.5925 C.3     1  UNL1        0.0727
     25 C           7.8790   -3.8744   24.3311 C.3     1  UNL1        0.0277
     26 C           6.9075   -3.7870   23.1916 C.ar    1  UNL1       -0.0220
     27 C           7.3993   -3.8817   21.7777 C.ar    1  UNL1       -0.0020
     28 C           6.4277   -3.7942   20.6382 C.ar    1  UNL1        0.0293
     29 C           4.9643   -3.6121   20.9126 C.ar    1  UNL1        0.1401
     30 F           3.9928   -3.5247   19.7732 F       1  UNL1       -0.2042
     31 C           4.4725   -3.5174   22.3266 C.ar    1  UNL1        0.0293
     32 C           5.4441   -3.6048   23.4660 C.ar    1  UNL1       -0.0020
@<TRIPOS>BOND
     1    15    16    1
     2    16    17    2
     3    16     9    1
     4     9    10   ar
     5    10    11   ar
     6    11    12   ar
     7    12    13   ar
     8    13     3    1
     9     3     4   am
    10     4     5    2
    11     4     6   am
    12     6     1    1
    13     1     2    2
    14     2    18    1
    15    18    19    1
    16    19    20    1
    17    20    21    1
    18    21    22    1
    19    22    23    1
    20    23    25    1
    21    25    26    1
    22    26    27   ar
    23    27    28   ar
    24    28    29   ar
    25    29    30    1
    26    29    31   ar
    27    31    32   ar
    28    23    24    1
    29    13    14   ar
    30    14     9   ar
    31    24    19    1
    32    32    26   ar
    33     3     7    1
    34     6     8    1
@<TRIPOS>MOLECULE
*****
 32 34 0 0 0
SMALL
GASTEIGER

@<TRIPOS>ATOM
      1 C          -2.8052    3.3501   19.9307 C.2     1  UNL1        0.0619
      2 C          -1.3370    3.0610   20.0343 C.2     1  UNL1        0.0072
      3 N          -5.4640    3.2105   22.8737 N.am    1  UNL1       -0.2681
      4 C          -4.5186    3.7509   21.8421 C.2     1  UNL1        0.3082
      5 O          -4.3413    5.2327   21.6904 O.2     1  UNL1       -0.2521
      6 N          -3.7506    2.8096   20.9623 N.am    1  UNL1       -0.2672
      7 H          -5.5804    2.2380   22.9733 H       1  UNL1        0.1564
      8 H          -3.8670    1.8371   21.0618 H       1  UNL1        0.1564
      9 C          -6.4104    5.5543   25.9333 C.ar    1  UNL1        0.0359
     10 C          -7.7681    6.0343   25.5133 C.ar    1  UNL1        0.0029
     11 C          -8.3577    5.5730   24.2135 C.ar    1  UNL1        0.0014
     12 C          -7.5897    4.6318   23.3336 C.ar    1  UNL1        0.0147
     13 C          -6.2321    4.1518   23.7536 C.ar    1  UNL1        0.0517
     14 C          -5.6424    4.6131   25.0534 C.ar    1  UNL1        0.0176
     15 C          -6.5139    7.0755   28.0368 C.3     1  UNL1        0.0773
     16 C          -5.8208    6.0156   27.2331 C.2     1  UNL1        0.1735
     17 O          -4.5380    5.4169   27.7291 O.2     1  UNL1       -0.2913
     18 C          -0.3915    3.6014   19.0027 C.3     1  UNL1        0.1002
     19 N           0.9485    2.9577   18.8031 N.3     1  UNL1       -0.2689
     20 C           2.1541    3.8060   18.5259 C.3     1  UNL1        0.0724
     21 C           3.4943    3.1623   18.3262 C.3     1  UNL1        0.0174
     22 C           3.6287    1.6703   18.4037 C.3     1  UNL1        0.0031
     23 C           2.4229    0.8221   18.6809 C.3     1  UNL1        0.0204
     24 C           1.0829    1.4658   18.8806 C.3     1  UNL1        0.0727
     25 C           2.5573   -0.6699   18.7585 C.3     1  UNL1        0.0277
     26 C           3.1025   -1.3103   20.0006 C.ar    1  UNL1       -0.0220
     27 C           2.8898   -0.6595   21.3352 C.ar    1  UNL1       -0.0020
     28 C           3.4349   -1.2999   22.5773 C.ar    1  UNL1        0.0293
     29 C           4.1927   -2.5911   22.4847 C.ar    1  UNL1        0.1401
     30 F           4.7378   -3.2315   23.7268 F       1  UNL1       -0.2042
     31 C           4.4054   -3.2419   21.1501 C.ar    1  UNL1        0.0293
     32 C           3.8603   -2.6015   19.9080 C.ar    1  UNL1       -0.0020
@<TRIPOS>BOND
     1    15    16    1
     2    16    17    2
     3    16     9    1
     4     9    10   ar
     5    10    11   ar
     6    11    12   ar
     7    12    13   ar
     8    13     3    1
     9     3     4   am
    10     4     5    2
    11     4     6   am
    12     6     1    1
    13     1     2    2
    14     2    18    1
    15    18    19    1
    16    19    20    1
    17    20    21    1
    18    21    22    1
    19    22    23    1
    20    23    25    1
    21    25    26    1
    22    26    27   ar
    23    27    28   ar
    24    28    29   ar
    25    29    30    1
    26    29    31   ar
    27    31    32   ar
    28    23    24    1
    29    13    14   ar
    30    14     9   ar
    31    24    19    1
    32    32    26   ar
    33     3     7    1
    34     6     8    1
@<TRIPOS>MOLECULE
*****
 32 34 0 0 0
SMALL
GASTEIGER

@<TRIPOS>ATOM
      1 C           7.5910   -5.5656   31.2005 C.2     1  UNL1        0.0619
      2 C           7.2683   -5.9321   29.7823 C.2     1  UNL1        0.0072
      3 N           4.9503   -3.3497   33.1667 N.am    1  UNL1       -0.2681
      4 C           6.0497   -3.7421   32.2248 C.2     1  UNL1        0.3082
      5 O           6.7071   -2.7034   31.3651 O.2     1  UNL1       -0.2521
      6 N           6.4916   -5.1732   32.1424 N.am    1  UNL1       -0.2672
      7 H           4.5187   -4.0314   33.7309 H       1  UNL1        0.1564
      8 H           6.0601   -5.8549   32.7066 H       1  UNL1        0.1564
      9 C           4.3309    0.3087   34.5748 C.ar    1  UNL1        0.0359
     10 C           3.6244    0.9435   33.4138 C.ar    1  UNL1        0.0029
     11 C           3.3599    0.1472   32.1704 C.ar    1  UNL1        0.0014
     12 C           3.8018   -1.2838   32.0880 C.ar    1  UNL1        0.0147
     13 C           4.5083   -1.9186   33.2490 C.ar    1  UNL1        0.0517
     14 C           4.7728   -1.1223   34.4924 C.ar    1  UNL1        0.0176
     15 C           6.0055    1.4169   36.2232 C.3     1  UNL1        0.0773
     16 C           4.5954    1.1050   35.8182 C.2     1  UNL1        0.1735
     17 O           3.4497    1.5893   36.6565 O.2     1  UNL1       -0.2913
     18 C           8.3678   -6.3245   28.8402 C.3     1  UNL1        0.1002
     19 N           8.1307   -6.3004   27.3593 N.3     1  UNL1       -0.2689
     20 C           8.4585   -7.5049   26.5277 C.3     1  UNL1        0.0724
     21 C           8.2215   -7.4809   25.0466 C.3     1  UNL1        0.0174
     22 C           7.6567   -6.2522   24.3974 C.3     1  UNL1        0.0031
     23 C           7.3290   -5.0477   25.2291 C.3     1  UNL1        0.0204
     24 C           7.5660   -5.0718   26.7100 C.3     1  UNL1        0.0727
     25 C           6.7642   -3.8191   24.5798 C.3     1  UNL1        0.0277
     26 C           6.4199   -3.8332   23.1199 C.ar    1  UNL1       -0.0220
     27 C           7.5116   -3.8816   22.0923 C.ar    1  UNL1       -0.0020
     28 C           7.1673   -3.8957   20.6324 C.ar    1  UNL1        0.0293
     29 C           5.7314   -3.8614   20.2001 C.ar    1  UNL1        0.1401
     30 F           5.3871   -3.8755   18.7402 F       1  UNL1       -0.2042
     31 C           4.6397   -3.8130   21.2277 C.ar    1  UNL1        0.0293
     32 C           4.9840   -3.7989   22.6876 C.ar    1  UNL1       -0.0020
@<TRIPOS>BOND
     1    15    16    1
     2    16    17    2
     3    16     9    1
     4     9    10   ar
     5    10    11   ar
     6    11    12   ar
     7    12    13   ar
     8    13     3    1
     9     3     4   am
    10     4     5    2
    11     4     6   am
    12     6     1    1
    13     1     2    2
    14     2    18    1
    15    18    19    1
    16    19    20    1
    17    20    21    1
    18    21    22    1
    19    22    23    1
    20    23    25    1
    21    25    26    1
    22    26    27   ar
    23    27    28   ar
    24    28    29   ar
    25    29    30    1
    26    29    31   ar
    27    31    32   ar
    28    23    24    1
    29    13    14   ar
    30    14     9   ar
    31    24    19    1
    32    32    26   ar
    33     3     7    1
    34     6     8    1
@<TRIPOS>MOLECULE
*****
 32 34 0 0 0
SMALL
GASTEIGER

@<TRIPOS>ATOM
      1 C          -0.9985    3.0985   19.8836 C.2     1  UNL1        0.0619
      2 C          -1.0117    4.5978   19.9263 C.2     1  UNL1        0.0072
      3 N           2.0685    0.6272   20.3690 N.am    1  UNL1       -0.2681
      4 C           0.9486    1.3861   19.7211 C.2     1  UNL1        0.3082
      5 O           0.6559    1.1916   18.2629 O.2     1  UNL1       -0.2521
      6 N           0.1214    2.3396   20.5314 N.am    1  UNL1       -0.2672
      7 H           2.2607    0.7549   21.3261 H       1  UNL1        0.1564
      8 H           0.3135    2.4673   21.4885 H       1  UNL1        0.1564
      9 C           3.9872   -2.6650   19.2597 C.ar    1  UNL1        0.0359
     10 C           4.5502   -2.2333   17.9381 C.ar    1  UNL1        0.0029
     11 C           4.2860   -0.8481   17.4268 C.ar    1  UNL1        0.0014
     12 C           3.4588    0.1054   18.2371 C.ar    1  UNL1        0.0147
     13 C           2.8958   -0.3263   19.5586 C.ar    1  UNL1        0.0517
     14 C           3.1600   -1.7115   20.0700 C.ar    1  UNL1        0.0176
     15 C           4.4545   -5.1800   18.8055 C.3     1  UNL1        0.0773
     16 C           4.2514   -4.0502   19.7710 C.2     1  UNL1        0.1735
     17 O           4.3125   -4.3055   21.2478 O.2     1  UNL1       -0.2913
     18 C          -2.1316    5.3568   19.2784 C.3     1  UNL1        0.1002
     19 N          -3.5165    4.7809   19.2611 N.3     1  UNL1       -0.2689
     20 C          -4.0111    4.0533   18.0462 C.3     1  UNL1        0.0724
     21 C          -5.3961    3.4774   18.0290 C.3     1  UNL1        0.0174
     22 C          -6.2864    3.6290   19.2266 C.3     1  UNL1        0.0031
     23 C          -5.7917    4.3566   20.4416 C.3     1  UNL1        0.0204
     24 C          -4.4068    4.9325   20.4588 C.3     1  UNL1        0.0727
     25 C          -6.6820    4.5082   21.6392 C.3     1  UNL1        0.0277
     26 C          -6.1095    4.3823   23.0200 C.ar    1  UNL1       -0.0220
     27 C          -5.1508    3.2729   23.3362 C.ar    1  UNL1       -0.0020
     28 C          -4.5783    3.1470   24.7170 C.ar    1  UNL1        0.0293
     29 C          -4.9647    4.1306   25.7816 C.ar    1  UNL1        0.1401
     30 F          -4.3923    4.0047   27.1623 F       1  UNL1       -0.2042
     31 C          -5.9235    5.2400   25.4654 C.ar    1  UNL1        0.0293
     32 C          -6.4959    5.3658   24.0846 C.ar    1  UNL1       -0.0020
@<TRIPOS>BOND
     1    15    16    1
     2    16    17    2
     3    16     9    1
     4     9    10   ar
     5    10    11   ar
     6    11    12   ar
     7    12    13   ar
     8    13     3    1
     9     3     4   am
    10     4     5    2
    11     4     6   am
    12     6     1    1
    13     1     2    2
    14     2    18    1
    15    18    19    1
    16    19    20    1
    17    20    21    1
    18    21    22    1
    19    22    23    1
    20    23    25    1
    21    25    26    1
    22    26    27   ar
    23    27    28   ar
    24    28    29   ar
    25    29    30    1
    26    29    31   ar
    27    31    32   ar
    28    23    24    1
    29    13    14   ar
    30    14     9   ar
    31    24    19    1
    32    32    26   ar
    33     3     7    1
    34     6     8    1
@<TRIPOS>MOLECULE
*****
 32 34 0 0 0
SMALL
GASTEIGER

@<TRIPOS>ATOM
      1 C          -1.3374    2.9300   20.1277 C.2     1  UNL1        0.0619
      2 C          -1.6488    3.2664   21.5559 C.2     1  UNL1        0.0072
      3 N           2.1733    1.1125   19.7794 N.am    1  UNL1       -0.2681
      4 C           0.7595    1.3974   20.1916 C.2     1  UNL1        0.3082
      5 O           0.0289    0.4348   21.0801 O.2     1  UNL1       -0.2521
      6 N           0.0764    2.6451   19.7154 N.am    1  UNL1       -0.2672
      7 H           2.6529    1.7443   19.1962 H       1  UNL1        0.1564
      8 H           0.5559    3.2769   19.1323 H       1  UNL1        0.1564
      9 C           4.1182   -2.3467   19.7386 C.ar    1  UNL1        0.0359
     10 C           4.2228   -2.6304   21.2078 C.ar    1  UNL1        0.0029
     11 C           3.6442   -1.6665   22.2009 C.ar    1  UNL1        0.0014
     12 C           2.9610   -0.4189   21.7247 C.ar    1  UNL1        0.0147
     13 C           2.8565   -0.1352   20.2556 C.ar    1  UNL1        0.0517
     14 C           3.4351   -1.0991   19.2625 C.ar    1  UNL1        0.0176
     15 C           4.3658   -4.7707   18.8372 C.3     1  UNL1        0.0773
     16 C           4.6968   -3.3106   18.7456 C.2     1  UNL1        0.1735
     17 O           5.6063   -2.8143   17.6609 O.2     1  UNL1       -0.2913
     18 C          -3.0626    3.5514   21.9682 C.3     1  UNL1        0.1002
     19 N          -3.4070    3.6874   23.4218 N.3     1  UNL1       -0.2689
     20 C          -4.8416    3.6563   23.8587 C.3     1  UNL1        0.0724
     21 C          -5.1861    3.7923   25.3123 C.3     1  UNL1        0.0174
     22 C          -4.0959    3.9593   26.3289 C.3     1  UNL1        0.0031
     23 C          -2.6613    3.9904   25.8920 C.3     1  UNL1        0.0204
     24 C          -2.3169    3.8544   24.4384 C.3     1  UNL1        0.0727
     25 C          -1.5711    4.1574   26.9086 C.3     1  UNL1        0.0277
     26 C          -0.7061    2.9893   27.2796 C.ar    1  UNL1       -0.0220
     27 C           0.7875    3.1258   27.2592 C.ar    1  UNL1       -0.0020
     28 C           1.6525    1.9577   27.6301 C.ar    1  UNL1        0.0293
     29 C           1.0238    0.6533   28.0214 C.ar    1  UNL1        0.1401
     30 F           1.8887   -0.5148   28.3923 F       1  UNL1       -0.2042
     31 C          -0.4699    0.5168   28.0417 C.ar    1  UNL1        0.0293
     32 C          -1.3348    1.6849   27.6708 C.ar    1  UNL1       -0.0020
@<TRIPOS>BOND
     1    15    16    1
     2    16    17    2
     3    16     9    1
     4     9    10   ar
     5    10    11   ar
     6    11    12   ar
     7    12    13   ar
     8    13     3    1
     9     3     4   am
    10     4     5    2
    11     4     6   am
    12     6     1    1
    13     1     2    2
    14     2    18    1
    15    18    19    1
    16    19    20    1
    17    20    21    1
    18    21    22    1
    19    22    23    1
    20    23    25    1
    21    25    26    1
    22    26    27   ar
    23    27    28   ar
    24    28    29   ar
    25    29    30    1
    26    29    31   ar
    27    31    32   ar
    28    23    24    1
    29    13    14   ar
    30    14     9   ar
    31    24    19    1
    32    32    26   ar
    33     3     7    1
    34     6     8    1
