@<TRIPOS>MOLECULE
*****
 40 46 0 0 0
SMALL
GASTEIGER

@<TRIPOS>ATOM
      1 N           2.9093    1.1121   20.6613 N.ar    1  UNL1       -0.2984
      2 C           2.9564    0.5594   19.2677 C.ar    1  UNL1        0.2013
      3 N           1.6450    0.8608   18.6050 N.ar    1  UNL1       -0.2135
      4 C           0.7874    1.5997   19.5890 C.ar    1  UNL1        0.1030
      5 C          -0.6042    2.1513   19.4921 C.ar    1  UNL1        0.0429
      6 C          -1.2144    2.8581   20.6660 C.ar    1  UNL1        0.1194
      7 N          -0.4329    3.0134   21.9369 N.ar    1  UNL1       -0.2406
      8 C           0.9586    2.4619   22.0339 C.ar    1  UNL1        0.1001
      9 C           1.5688    1.7550   20.8599 C.ar    1  UNL1        0.0977
     10 N           4.1121   -0.1672   18.6459 N.pl3   1  UNL1       -0.2762
     11 C           5.1473    0.5937   17.8717 C.3     1  UNL1        0.1256
     12 C           6.3030   -0.1329   17.2499 C.3     1  UNL1        0.1635
     13 O           6.4234   -1.6202   17.4024 O.3     1  UNL1       -0.3527
     14 C           5.3882   -2.3810   18.1767 C.3     1  UNL1        0.1333
     15 C           5.2430   -3.8400   18.4934 C.3     1  UNL1        0.0313
     16 C           3.9976   -4.0152   19.3109 C.3     1  UNL1        0.0043
     17 C           3.3731   -2.6644   19.4994 C.3     1  UNL1        0.0224
     18 C           4.2326   -1.6545   18.7984 C.3     1  UNL1        0.1026
     19 C          -2.6059    3.4096   20.5690 C.ar    1  UNL1        0.1937
     20 N          -3.8693    2.6816   20.9207 N.ar    1  UNL1       -0.1955
     21 O          -5.0226    3.6080   20.6723 O.2     1  UNL1       -0.3201
     22 C          -4.4720    4.9086   20.1671 C.ar    1  UNL1        0.4608
     23 O          -5.2741    6.1192   19.7916 O.2     1  UNL1       -0.2188
     24 N          -2.9784    4.7860   20.1032 N.ar    1  UNL1       -0.1516
     25 H          -3.9308    1.7579   21.2558 H       1  UNL1        0.2093
     26 C           1.7401    2.6172   23.3048 C.ar    1  UNL1        0.0391
     27 C           2.5189    3.8740   23.5575 C.ar    1  UNL1        0.1004
     28 N           3.3003    4.0294   24.8285 N.ar    1  UNL1       -0.2414
     29 C           3.3029    2.9279   25.8467 C.ar    1  UNL1        0.1102
     30 C           2.5240    1.6711   25.5940 C.ar    1  UNL1        0.0769
     31 CL          2.5266    0.5696   26.6122 Cl      1  UNL1       -0.0806
     32 C           1.7426    1.5157   24.3230 C.ar    1  UNL1        0.0161
     33 C           4.0097    1.0352   21.6779 C.3     1  UNL1        0.1087
     34 C           6.4489   -4.2685   23.0638 C.3     1  UNL1        0.0000
     35 C           5.8391   -2.9425   22.7173 C.3     1  UNL1        0.0000
     36 C           4.4289   -2.6356   23.1265 C.3     1  UNL1        0.0001
     37 C           3.8191   -1.3098   22.7800 C.3     1  UNL1        0.0019
     38 C           4.6194   -0.2906   22.0244 C.3     1  UNL1        0.0227
     39 C           6.0296   -0.5975   21.6151 C.3     1  UNL1        0.0019
     40 C           6.6394   -1.9235   21.9616 C.3     1  UNL1        0.0001
@<TRIPOS>BOND
     1    35    34    1
     2    35    36    1
     3    36    37    1
     4    37    38    1
     5    38    33    1
     6    33     1    1
     7     1     2   ar
     8     2    10    1
     9    10    11    1
    10    11    12    1
    11    12    13    1
    12    13    14    1
    13    14    15    1
    14    15    16    1
    15    16    17    1
    16    18    17    1
    17     2     3   ar
    18     3     4   ar
    19     4     5   ar
    20     5     6   ar
    21     6    19    1
    22    19    20   ar
    23    20    21   ar
    24    21    22   ar
    25    22    23    2
    26    22    24   ar
    27     6     7   ar
    28     7     8   ar
    29     8    26    1
    30    26    27   ar
    31    27    28   ar
    32    28    29   ar
    33    29    30   ar
    34    30    31    1
    35    30    32   ar
    36     8     9   ar
    37    38    39    1
    38    39    40    1
    39    40    35    1
    40     9     1   ar
    41    18    10    1
    42     9     4   ar
    43    18    14    1
    44    24    19   ar
    45    32    26   ar
    46    20    25    1
@<TRIPOS>MOLECULE
*****
 40 46 0 0 0
SMALL
GASTEIGER

@<TRIPOS>ATOM
      1 N           6.2073   -1.9290   23.5462 N.ar    1  UNL1       -0.2984
      2 C           6.7310   -2.9217   22.5510 C.ar    1  UNL1        0.2013
      3 N           7.2383   -4.1131   23.3078 N.ar    1  UNL1       -0.2135
      4 C           7.0283   -3.8569   24.7707 C.ar    1  UNL1        0.1030
      5 C           7.3348   -4.6784   25.9878 C.ar    1  UNL1        0.0429
      6 C           7.0043   -4.1500   27.3522 C.ar    1  UNL1        0.1194
      7 N           6.3670   -2.8000   27.4994 N.ar    1  UNL1       -0.2406
      8 C           6.0605   -1.9786   26.2824 C.ar    1  UNL1        0.1001
      9 C           6.3911   -2.5070   24.9181 C.ar    1  UNL1        0.0977
     10 N           6.7448   -2.7525   21.0606 N.pl3   1  UNL1       -0.2762
     11 C           7.9121   -2.0889   20.3919 C.3     1  UNL1        0.1256
     12 C           7.9260   -1.9197   18.9016 C.3     1  UNL1        0.1635
     13 O           6.7725   -2.4140   18.0799 O.3     1  UNL1       -0.3527
     14 C           5.6052   -3.0776   18.7487 C.3     1  UNL1        0.1333
     15 C           4.3351   -3.6610   18.2041 C.3     1  UNL1        0.0313
     16 C           3.5363   -4.1909   19.3578 C.3     1  UNL1        0.0043
     17 C           4.3128   -3.9348   20.6155 C.3     1  UNL1        0.0224
     18 C           5.5914   -3.2468   20.2389 C.3     1  UNL1        0.1026
     19 C           7.3109   -4.9714   28.5692 C.ar    1  UNL1        0.1937
     20 N           8.4458   -5.9412   28.7153 N.ar    1  UNL1       -0.1955
     21 O           8.3728   -6.5365   30.0901 O.2     1  UNL1       -0.3201
     22 C           7.1927   -5.9347   30.7938 C.ar    1  UNL1        0.4608
     23 O           6.7472   -6.2455   32.1919 O.2     1  UNL1       -0.2188
     24 N           6.5364   -4.9674   29.8538 N.ar    1  UNL1       -0.1516
     25 H           9.1203   -6.1503   28.0292 H       1  UNL1        0.2093
     26 C           5.4233   -0.6287   26.4297 C.ar    1  UNL1        0.0391
     27 C           6.2795    0.5881   26.6199 C.ar    1  UNL1        0.1004
     28 N           5.6424    1.9381   26.7673 N.ar    1  UNL1       -0.2414
     29 C           4.1489    2.0712   26.7244 C.ar    1  UNL1        0.1102
     30 C           3.2926    0.8543   26.5343 C.ar    1  UNL1        0.0769
     31 CL          1.7991    0.9874   26.4914 Cl      1  UNL1       -0.0806
     32 C           3.9298   -0.4956   26.3869 C.ar    1  UNL1        0.0161
     33 C           5.6056   -0.5929   23.2257 C.3     1  UNL1        0.1087
     34 C           1.6606   -0.0789   18.7343 C.3     1  UNL1        0.0000
     35 C           2.6468   -0.2074   19.8572 C.3     1  UNL1        0.0000
     36 C           4.0311    0.3506   19.7071 C.3     1  UNL1        0.0001
     37 C           5.0173    0.2221   20.8299 C.3     1  UNL1        0.0019
     38 C           4.6194   -0.4643   22.1029 C.3     1  UNL1        0.0227
     39 C           3.2351   -1.0224   22.2530 C.3     1  UNL1        0.0019
     40 C           2.2488   -0.8938   21.1301 C.3     1  UNL1        0.0001
@<TRIPOS>BOND
     1    35    34    1
     2    35    36    1
     3    36    37    1
     4    37    38    1
     5    38    33    1
     6    33     1    1
     7     1     2   ar
     8     2    10    1
     9    10    11    1
    10    11    12    1
    11    12    13    1
    12    13    14    1
    13    14    15    1
    14    15    16    1
    15    16    17    1
    16    18    17    1
    17     2     3   ar
    18     3     4   ar
    19     4     5   ar
    20     5     6   ar
    21     6    19    1
    22    19    20   ar
    23    20    21   ar
    24    21    22   ar
    25    22    23    2
    26    22    24   ar
    27     6     7   ar
    28     7     8   ar
    29     8    26    1
    30    26    27   ar
    31    27    28   ar
    32    28    29   ar
    33    29    30   ar
    34    30    31    1
    35    30    32   ar
    36     8     9   ar
    37    38    39    1
    38    39    40    1
    39    40    35    1
    40     9     1   ar
    41    18    10    1
    42     9     4   ar
    43    18    14    1
    44    24    19   ar
    45    32    26   ar
    46    20    25    1
@<TRIPOS>MOLECULE
*****
 40 46 0 0 0
SMALL
GASTEIGER

@<TRIPOS>ATOM
      1 N           1.0659    2.5868   21.7910 N.ar    1  UNL1       -0.2984
      2 C           1.1866    2.2498   20.3343 C.ar    1  UNL1        0.2013
      3 N          -0.1651    2.4179   19.7062 N.ar    1  UNL1       -0.2135
      4 C          -1.1212    2.8587   20.7745 C.ar    1  UNL1        0.1030
      5 C          -2.5863    3.1786   20.7406 C.ar    1  UNL1        0.0429
      6 C          -3.2906    3.6028   21.9952 C.ar    1  UNL1        0.1194
      7 N          -2.5298    3.7072   23.2837 N.ar    1  UNL1       -0.2406
      8 C          -1.0647    3.3873   23.3176 C.ar    1  UNL1        0.1001
      9 C          -0.3604    2.9631   22.0630 C.ar    1  UNL1        0.0977
     10 N           2.4392    1.8202   19.6296 N.pl3   1  UNL1       -0.2762
     11 C           3.3134    2.8416   18.9644 C.3     1  UNL1        0.1256
     12 C           4.5659    2.4120   18.2596 C.3     1  UNL1        0.1635
     13 O           4.9442    0.9611   18.2201 O.3     1  UNL1       -0.3527
     14 C           4.0699   -0.0603   18.8854 C.3     1  UNL1        0.1333
     15 C           4.1846   -1.5506   19.0112 C.3     1  UNL1        0.0313
     16 C           3.0031   -2.0421   19.7936 C.3     1  UNL1        0.0043
     17 C           2.1581   -0.8555   20.1514 C.3     1  UNL1        0.0224
     18 C           2.8175    0.3693   19.5900 C.3     1  UNL1        0.1026
     19 C          -4.7557    3.9226   21.9612 C.ar    1  UNL1        0.1937
     20 N          -5.5463    4.3070   20.7458 N.ar    1  UNL1       -0.1955
     21 O          -6.9666    4.5361   21.1701 O.2     1  UNL1       -0.3201
     22 C          -7.0540    4.2935   22.6477 C.ar    1  UNL1        0.4608
     23 O          -8.2906    4.4096   23.4887 O.2     1  UNL1       -0.2188
     24 N          -5.6875    3.9143   23.1367 N.ar    1  UNL1       -0.1516
     25 H          -5.1947    4.3936   19.8303 H       1  UNL1        0.2093
     26 C          -0.3039    3.4917   24.6061 C.ar    1  UNL1        0.0391
     27 C           0.3537    4.7852   24.9862 C.ar    1  UNL1        0.1004
     28 N           1.1145    4.8897   26.2747 N.ar    1  UNL1       -0.2414
     29 C           1.2177    3.7006   27.1832 C.ar    1  UNL1        0.1102
     30 C           0.5601    2.4070   26.8032 C.ar    1  UNL1        0.0769
     31 CL          0.6633    1.2179   27.7117 Cl      1  UNL1       -0.0806
     32 C          -0.2007    2.3026   25.5146 C.ar    1  UNL1        0.0161
     33 C           2.1766    2.5533   22.7986 C.3     1  UNL1        0.1087
     34 C           5.4047   -2.4496   23.5401 C.3     1  UNL1        0.0000
     35 C           4.5976   -1.1988   23.3548 C.3     1  UNL1        0.0000
     36 C           5.1999   -0.0137   22.6597 C.3     1  UNL1        0.0001
     37 C           4.3929    1.2369   22.4744 C.3     1  UNL1        0.0019
     38 C           2.9836    1.3027   22.9840 C.3     1  UNL1        0.0227
     39 C           2.3813    0.1175   23.6790 C.3     1  UNL1        0.0019
     40 C           3.1884   -1.1332   23.8643 C.3     1  UNL1        0.0001
@<TRIPOS>BOND
     1    35    34    1
     2    35    36    1
     3    36    37    1
     4    37    38    1
     5    38    33    1
     6    33     1    1
     7     1     2   ar
     8     2    10    1
     9    10    11    1
    10    11    12    1
    11    12    13    1
    12    13    14    1
    13    14    15    1
    14    15    16    1
    15    16    17    1
    16    18    17    1
    17     2     3   ar
    18     3     4   ar
    19     4     5   ar
    20     5     6   ar
    21     6    19    1
    22    19    20   ar
    23    20    21   ar
    24    21    22   ar
    25    22    23    2
    26    22    24   ar
    27     6     7   ar
    28     7     8   ar
    29     8    26    1
    30    26    27   ar
    31    27    28   ar
    32    28    29   ar
    33    29    30   ar
    34    30    31    1
    35    30    32   ar
    36     8     9   ar
    37    38    39    1
    38    39    40    1
    39    40    35    1
    40     9     1   ar
    41    18    10    1
    42     9     4   ar
    43    18    14    1
    44    24    19   ar
    45    32    26   ar
    46    20    25    1
@<TRIPOS>MOLECULE
*****
 40 46 0 0 0
SMALL
GASTEIGER

@<TRIPOS>ATOM
      1 N           5.1568   -0.2367   23.9476 N.ar    1  UNL1       -0.2984
      2 C           4.1082    0.7670   23.5694 C.ar    1  UNL1        0.2013
      3 N           3.3235    1.1045   24.8023 N.ar    1  UNL1       -0.2135
      4 C           3.8870    0.3094   25.9426 C.ar    1  UNL1        0.1030
      5 C           3.5149    0.2331   27.3937 C.ar    1  UNL1        0.0429
      6 C           4.2758   -0.6721   28.3166 C.ar    1  UNL1        0.1194
      7 N           5.4088   -1.5011   27.7883 N.ar    1  UNL1       -0.2406
      8 C           5.7809   -1.4247   26.3372 C.ar    1  UNL1        0.1001
      9 C           5.0201   -0.5195   25.4143 C.ar    1  UNL1        0.0977
     10 N           3.8838    1.3337   22.1988 N.pl3   1  UNL1       -0.2762
     11 C           4.4756    2.6618   21.8302 C.3     1  UNL1        0.1256
     12 C           4.2512    3.2284   20.4596 C.3     1  UNL1        0.1635
     13 O           3.4350    2.4670   19.4576 O.3     1  UNL1       -0.3527
     14 C           2.8432    1.1388   19.8263 C.3     1  UNL1        0.1333
     15 C           2.0008    0.1665   19.0549 C.3     1  UNL1        0.0313
     16 C           1.7045   -1.0010   19.9487 C.3     1  UNL1        0.0043
     17 C           2.3639   -0.7503   21.2726 C.3     1  UNL1        0.0224
     18 C           3.0676    0.5722   21.1968 C.3     1  UNL1        0.1026
     19 C           3.9036   -0.7484   29.7677 C.ar    1  UNL1        0.1937
     20 N           2.5781   -0.3695   30.3589 N.ar    1  UNL1       -0.1955
     21 O           2.6468   -0.6039   31.8389 O.2     1  UNL1       -0.3201
     22 C           4.0147   -1.1276   32.1623 C.ar    1  UNL1        0.4608
     23 O           4.5176   -1.4971   33.5263 O.2     1  UNL1       -0.2188
     24 N           4.7914   -1.2169   30.8822 N.ar    1  UNL1       -0.1516
     25 H           1.7998   -0.0272   29.8628 H       1  UNL1        0.2093
     26 C           6.9140   -2.2537   25.8089 C.ar    1  UNL1        0.0391
     27 C           8.2970   -1.6770   25.7406 C.ar    1  UNL1        0.1004
     28 N           9.4301   -2.5059   25.2124 N.ar    1  UNL1       -0.2414
     29 C           9.1802   -3.9116   24.7525 C.ar    1  UNL1        0.1102
     30 C           7.7971   -4.4884   24.8208 C.ar    1  UNL1        0.0769
     31 CL          7.5472   -5.8941   24.3609 Cl      1  UNL1       -0.0806
     32 C           6.6641   -3.6594   25.3491 C.ar    1  UNL1        0.0161
     33 C           6.1650   -0.8500   23.0216 C.3     1  UNL1        0.1087
     34 C           4.4035   -4.7882   18.8519 C.3     1  UNL1        0.0000
     35 C           4.8439   -3.8036   19.8943 C.3     1  UNL1        0.0000
     36 C           4.5140   -4.0420   21.3381 C.3     1  UNL1        0.0001
     37 C           4.9543   -3.0575   22.3805 C.3     1  UNL1        0.0019
     38 C           5.7246   -1.8345   21.9793 C.3     1  UNL1        0.0227
     39 C           6.0545   -1.5961   20.5355 C.3     1  UNL1        0.0019
     40 C           5.6142   -2.5807   19.4930 C.3     1  UNL1        0.0001
@<TRIPOS>BOND
     1    35    34    1
     2    35    36    1
     3    36    37    1
     4    37    38    1
     5    38    33    1
     6    33     1    1
     7     1     2   ar
     8     2    10    1
     9    10    11    1
    10    11    12    1
    11    12    13    1
    12    13    14    1
    13    14    15    1
    14    15    16    1
    15    16    17    1
    16    18    17    1
    17     2     3   ar
    18     3     4   ar
    19     4     5   ar
    20     5     6   ar
    21     6    19    1
    22    19    20   ar
    23    20    21   ar
    24    21    22   ar
    25    22    23    2
    26    22    24   ar
    27     6     7   ar
    28     7     8   ar
    29     8    26    1
    30    26    27   ar
    31    27    28   ar
    32    28    29   ar
    33    29    30   ar
    34    30    31    1
    35    30    32   ar
    36     8     9   ar
    37    38    39    1
    38    39    40    1
    39    40    35    1
    40     9     1   ar
    41    18    10    1
    42     9     4   ar
    43    18    14    1
    44    24    19   ar
    45    32    26   ar
    46    20    25    1
@<TRIPOS>MOLECULE
*****
 40 46 0 0 0
SMALL
GASTEIGER

@<TRIPOS>ATOM
      1 N          -0.9927    4.1790   19.9277 N.ar    1  UNL1       -0.2984
      2 C          -1.5181    4.2892   18.5270 C.ar    1  UNL1        0.2013
      3 N          -0.7349    3.3460   17.6627 N.ar    1  UNL1       -0.2135
      4 C           0.2744    2.6529   18.5292 C.ar    1  UNL1        0.1030
      5 C           1.3180    1.6194   18.2244 C.ar    1  UNL1        0.0429
      6 C           2.2023    1.1008   19.3194 C.ar    1  UNL1        0.1194
      7 N           2.0429    1.6157   20.7193 N.ar    1  UNL1       -0.2406
      8 C           0.9993    2.6491   21.0240 C.ar    1  UNL1        0.1001
      9 C           0.1151    3.1677   19.9290 C.ar    1  UNL1        0.0977
     10 N          -2.6311    5.1852   18.0708 N.pl3   1  UNL1       -0.2762
     11 C          -2.3193    6.5342   17.4936 C.3     1  UNL1        0.1256
     12 C          -3.4324    7.4302   17.0373 C.3     1  UNL1        0.1635
     13 O          -4.8573    6.9774   17.1583 O.3     1  UNL1       -0.3527
     14 C          -5.1690    5.6284   17.7356 C.3     1  UNL1        0.1333
     15 C          -6.4666    4.9160   17.9780 C.3     1  UNL1        0.0313
     16 C          -6.1555    3.5796   18.5840 C.3     1  UNL1        0.0043
     17 C          -4.6656    3.4662   18.7161 C.3     1  UNL1        0.0224
     18 C          -4.0560    4.7324   18.1918 C.3     1  UNL1        0.1026
     19 C           3.2459    0.0673   19.0146 C.ar    1  UNL1        0.1937
     20 N           3.3308   -1.3041   19.6163 N.ar    1  UNL1       -0.1955
     21 O           4.5251   -1.9951   19.0282 O.2     1  UNL1       -0.3201
     22 C           5.1784   -1.0509   18.0630 C.ar    1  UNL1        0.4608
     23 O           6.4066   -1.3319   17.2490 O.2     1  UNL1       -0.2188
     24 N           4.3877    0.2238   18.0546 N.ar    1  UNL1       -0.1516
     25 H           2.7114   -1.6839   20.2806 H       1  UNL1        0.2093
     26 C           0.8400    3.1639   22.4239 C.ar    1  UNL1        0.0391
     27 C           1.6106    4.3704   22.8715 C.ar    1  UNL1        0.1004
     28 N           1.4514    4.8853   24.2714 N.ar    1  UNL1       -0.2414
     29 C           0.5215    4.1936   25.2236 C.ar    1  UNL1        0.1102
     30 C          -0.2492    2.9870   24.7760 C.ar    1  UNL1        0.0769
     31 CL         -1.1791    2.2953   25.7282 Cl      1  UNL1       -0.0806
     32 C          -0.0899    2.4722   23.3761 C.ar    1  UNL1        0.0161
     33 C          -1.4883    4.9455   21.1180 C.3     1  UNL1        0.1087
     34 C          -7.1686    4.3106   22.9429 C.3     1  UNL1        0.0000
     35 C          -5.7485    4.4694   22.4866 C.3     1  UNL1        0.0000
     36 C          -4.7963    3.3142   22.5825 C.3     1  UNL1        0.0001
     37 C          -3.3763    3.4729   22.1263 C.3     1  UNL1        0.0019
     38 C          -2.9083    4.7868   21.5742 C.3     1  UNL1        0.0227
     39 C          -3.8604    5.9420   21.4784 C.3     1  UNL1        0.0019
     40 C          -5.2805    5.7832   21.9346 C.3     1  UNL1        0.0001
@<TRIPOS>BOND
     1    35    34    1
     2    35    36    1
     3    36    37    1
     4    37    38    1
     5    38    33    1
     6    33     1    1
     7     1     2   ar
     8     2    10    1
     9    10    11    1
    10    11    12    1
    11    12    13    1
    12    13    14    1
    13    14    15    1
    14    15    16    1
    15    16    17    1
    16    18    17    1
    17     2     3   ar
    18     3     4   ar
    19     4     5   ar
    20     5     6   ar
    21     6    19    1
    22    19    20   ar
    23    20    21   ar
    24    21    22   ar
    25    22    23    2
    26    22    24   ar
    27     6     7   ar
    28     7     8   ar
    29     8    26    1
    30    26    27   ar
    31    27    28   ar
    32    28    29   ar
    33    29    30   ar
    34    30    31    1
    35    30    32   ar
    36     8     9   ar
    37    38    39    1
    38    39    40    1
    39    40    35    1
    40     9     1   ar
    41    18    10    1
    42     9     4   ar
    43    18    14    1
    44    24    19   ar
    45    32    26   ar
    46    20    25    1
@<TRIPOS>MOLECULE
*****
 40 46 0 0 0
SMALL
GASTEIGER

@<TRIPOS>ATOM
      1 N           3.8860    1.1908   31.9358 N.ar    1  UNL1       -0.2984
      2 C           3.5223    1.1539   33.3906 C.ar    1  UNL1        0.2013
      3 N           4.0025   -0.1499   33.9555 N.ar    1  UNL1       -0.2135
      4 C           4.6630   -0.9189   32.8499 C.ar    1  UNL1        0.1030
      5 C           5.3208   -2.2667   32.8185 C.ar    1  UNL1        0.0429
      6 C           5.9065   -2.7858   31.5388 C.ar    1  UNL1        0.1194
      7 N           5.8344   -1.9571   30.2906 N.ar    1  UNL1       -0.2406
      8 C           5.1767   -0.6094   30.3220 C.ar    1  UNL1        0.1001
      9 C           4.5910   -0.0903   31.6016 C.ar    1  UNL1        0.0977
     10 N           2.8043    2.2318   34.1475 N.pl3   1  UNL1       -0.2762
     11 C           1.9091    3.1903   33.4197 C.3     1  UNL1        0.1256
     12 C           1.1912    4.2682   34.1766 C.3     1  UNL1        0.1635
     13 O           1.3685    4.3874   35.6613 O.3     1  UNL1       -0.3527
     14 C           2.2638    3.4288   36.3890 C.3     1  UNL1        0.1333
     15 C           2.6309    3.3010   37.8378 C.3     1  UNL1        0.0313
     16 C           3.5757    2.1442   37.9763 C.3     1  UNL1        0.0043
     17 C           3.7925    1.5571   36.6131 C.3     1  UNL1        0.0224
     18 C           2.9817    2.3510   35.6322 C.3     1  UNL1        0.1026
     19 C           6.5642   -4.1335   31.5075 C.ar    1  UNL1        0.1937
     20 N           6.2972   -5.2670   32.4529 N.ar    1  UNL1       -0.1955
     21 O           7.1724   -6.4184   32.0550 O.2     1  UNL1       -0.3201
     22 C           7.9802   -5.9966   30.8636 C.ar    1  UNL1        0.4608
     23 O           8.9871   -6.8390   30.1380 O.2     1  UNL1       -0.2188
     24 N           7.6043   -4.5844   30.5252 N.ar    1  UNL1       -0.1516
     25 H           5.6596   -5.2570   33.2030 H       1  UNL1        0.2093
     26 C           5.1047    0.2193   29.0737 C.ar    1  UNL1        0.0391
     27 C           6.0796    1.3389   28.8595 C.ar    1  UNL1        0.1004
     28 N           6.0077    2.1676   27.6112 N.ar    1  UNL1       -0.2414
     29 C           4.9608    1.8766   26.5772 C.ar    1  UNL1        0.1102
     30 C           3.9858    0.7569   26.7914 C.ar    1  UNL1        0.0769
     31 CL          2.9388    0.4659   25.7574 Cl      1  UNL1       -0.0806
     32 C           4.0578   -0.0717   28.0397 C.ar    1  UNL1        0.0161
     33 C           3.5956    2.3120   30.9826 C.3     1  UNL1        0.1087
     34 C          -1.0911    1.9426   27.2546 C.3     1  UNL1        0.0000
     35 C           0.0806    2.0350   28.1866 C.3     1  UNL1        0.0000
     36 C           0.2059    1.0739   29.3315 C.3     1  UNL1        0.0001
     37 C           1.3775    1.1662   30.2634 C.3     1  UNL1        0.0019
     38 C           2.4240    2.2196   30.0506 C.3     1  UNL1        0.0227
     39 C           2.2987    3.1807   28.9057 C.3     1  UNL1        0.0019
     40 C           1.1270    3.0884   27.9737 C.3     1  UNL1        0.0001
@<TRIPOS>BOND
     1    35    34    1
     2    35    36    1
     3    36    37    1
     4    37    38    1
     5    38    33    1
     6    33     1    1
     7     1     2   ar
     8     2    10    1
     9    10    11    1
    10    11    12    1
    11    12    13    1
    12    13    14    1
    13    14    15    1
    14    15    16    1
    15    16    17    1
    16    18    17    1
    17     2     3   ar
    18     3     4   ar
    19     4     5   ar
    20     5     6   ar
    21     6    19    1
    22    19    20   ar
    23    20    21   ar
    24    21    22   ar
    25    22    23    2
    26    22    24   ar
    27     6     7   ar
    28     7     8   ar
    29     8    26    1
    30    26    27   ar
    31    27    28   ar
    32    28    29   ar
    33    29    30   ar
    34    30    31    1
    35    30    32   ar
    36     8     9   ar
    37    38    39    1
    38    39    40    1
    39    40    35    1
    40     9     1   ar
    41    18    10    1
    42     9     4   ar
    43    18    14    1
    44    24    19   ar
    45    32    26   ar
    46    20    25    1
@<TRIPOS>MOLECULE
*****
 40 46 0 0 0
SMALL
GASTEIGER

@<TRIPOS>ATOM
      1 N           5.9355   -1.3366   30.5962 N.ar    1  UNL1       -0.2984
      2 C           6.0611   -1.7742   32.0255 C.ar    1  UNL1        0.2013
      3 N           6.4482   -3.2233   32.0342 N.ar    1  UNL1       -0.2135
      4 C           6.5618   -3.6814   30.6105 C.ar    1  UNL1        0.1030
      5 C           6.9129   -5.0097   30.0084 C.ar    1  UNL1        0.0429
      6 C           6.9470   -5.1720   28.5176 C.ar    1  UNL1        0.1194
      7 N           6.6301   -4.0059   27.6288 N.ar    1  UNL1       -0.2406
      8 C           6.2791   -2.6777   28.2309 C.ar    1  UNL1        0.1001
      9 C           6.2449   -2.5154   29.7217 C.ar    1  UNL1        0.0977
     10 N           5.8387   -0.9136   33.2338 N.pl3   1  UNL1       -0.2762
     11 C           4.4621   -0.4111   33.5535 C.3     1  UNL1        0.1256
     12 C           4.2397    0.4495   34.7618 C.3     1  UNL1        0.1635
     13 O           5.3939    0.8076   35.6503 O.3     1  UNL1       -0.3527
     14 C           6.7706    0.3050   35.3305 C.3     1  UNL1        0.1333
     15 C           8.0916    0.4915   36.0161 C.3     1  UNL1        0.0313
     16 C           9.1305   -0.2537   35.2317 C.3     1  UNL1        0.0043
     17 C           8.4514   -0.9009   34.0611 C.3     1  UNL1        0.0224
     18 C           6.9930   -0.5556   34.1223 C.3     1  UNL1        0.1026
     19 C           7.2981   -6.5003   27.9156 C.ar    1  UNL1        0.1937
     20 N           6.6213   -7.1424   26.7411 N.ar    1  UNL1       -0.1955
     21 O           7.2924   -8.4586   26.4820 O.2     1  UNL1       -0.3201
     22 C           8.3840   -8.6299   27.4964 C.ar    1  UNL1        0.4608
     23 O           9.3096   -9.8052   27.6056 O.2     1  UNL1       -0.2188
     24 N           8.3875   -7.4196   28.3824 N.ar    1  UNL1       -0.1516
     25 H           5.8687   -6.7661   26.2299 H       1  UNL1        0.2093
     26 C           5.9621   -1.5116   27.3421 C.ar    1  UNL1        0.0391
     27 C           7.0017   -0.4618   27.0830 C.ar    1  UNL1        0.1004
     28 N           6.6848    0.7043   26.1942 N.ar    1  UNL1       -0.2414
     29 C           5.3284    0.8205   25.5645 C.ar    1  UNL1        0.1102
     30 C           4.2888   -0.2295   25.8235 C.ar    1  UNL1        0.0769
     31 CL          2.9324   -0.1134   25.1937 Cl      1  UNL1       -0.0806
     32 C           4.6057   -1.3955   26.7123 C.ar    1  UNL1        0.0161
     33 C           5.5653    0.0383   30.1243 C.3     1  UNL1        0.1087
     34 C          -0.0602    1.2026   28.3931 C.3     1  UNL1        0.0000
     35 C           1.3462    0.9115   28.8259 C.3     1  UNL1        0.0000
     36 C           2.4476    1.8741   28.4937 C.3     1  UNL1        0.0001
     37 C           3.8539    1.5830   28.9265 C.3     1  UNL1        0.0019
     38 C           4.1590    0.3294   29.6915 C.3     1  UNL1        0.0227
     39 C           3.0576   -0.6333   30.0237 C.3     1  UNL1        0.0019
     40 C           1.6512   -0.3422   29.5909 C.3     1  UNL1        0.0001
@<TRIPOS>BOND
     1    35    34    1
     2    35    36    1
     3    36    37    1
     4    37    38    1
     5    38    33    1
     6    33     1    1
     7     1     2   ar
     8     2    10    1
     9    10    11    1
    10    11    12    1
    11    12    13    1
    12    13    14    1
    13    14    15    1
    14    15    16    1
    15    16    17    1
    16    18    17    1
    17     2     3   ar
    18     3     4   ar
    19     4     5   ar
    20     5     6   ar
    21     6    19    1
    22    19    20   ar
    23    20    21   ar
    24    21    22   ar
    25    22    23    2
    26    22    24   ar
    27     6     7   ar
    28     7     8   ar
    29     8    26    1
    30    26    27   ar
    31    27    28   ar
    32    28    29   ar
    33    29    30   ar
    34    30    31    1
    35    30    32   ar
    36     8     9   ar
    37    38    39    1
    38    39    40    1
    39    40    35    1
    40     9     1   ar
    41    18    10    1
    42     9     4   ar
    43    18    14    1
    44    24    19   ar
    45    32    26   ar
    46    20    25    1
@<TRIPOS>MOLECULE
*****
 40 46 0 0 0
SMALL
GASTEIGER

@<TRIPOS>ATOM
      1 N           5.0511   -0.4321   23.5555 N.ar    1  UNL1       -0.2984
      2 C           3.8437    0.3478   23.9841 C.ar    1  UNL1        0.2013
      3 N           3.5912    0.0522   25.4328 N.ar    1  UNL1       -0.2135
      4 C           4.6425   -0.9104   25.8996 C.ar    1  UNL1        0.1030
      5 C           4.8950   -1.5531   27.2313 C.ar    1  UNL1        0.0429
      6 C           6.0496   -2.4951   27.4027 C.ar    1  UNL1        0.1194
      7 N           6.9519   -2.7945   26.2423 N.ar    1  UNL1       -0.2406
      8 C           6.6995   -2.1518   24.9107 C.ar    1  UNL1        0.1001
      9 C           5.5449   -1.2098   24.7393 C.ar    1  UNL1        0.0977
     10 N           3.0314    1.2627   23.1163 N.pl3   1  UNL1       -0.2762
     11 C           3.0296    2.7396   23.3786 C.3     1  UNL1        0.1256
     12 C           2.2173    3.6545   22.5108 C.3     1  UNL1        0.1635
     13 O           1.4068    3.0926   21.3807 O.3     1  UNL1       -0.3527
     14 C           1.4086    1.6156   21.1184 C.3     1  UNL1        0.1333
     15 C           0.7134    0.7788   20.0857 C.3     1  UNL1        0.0313
     16 C           1.0961   -0.6532   20.3151 C.3     1  UNL1        0.0043
     17 C           2.0278   -0.7015   21.4898 C.3     1  UNL1        0.0224
     18 C           2.2208    0.7008   21.9862 C.3     1  UNL1        0.1026
     19 C           6.3019   -3.1378   28.7343 C.ar    1  UNL1        0.1937
     20 N           6.3950   -2.4278   30.0524 N.ar    1  UNL1       -0.1955
     21 O           6.6561   -3.4544   31.1144 O.2     1  UNL1       -0.3201
     22 C           6.7242   -4.7988   30.4528 C.ar    1  UNL1        0.4608
     23 O           6.9684   -6.1090   31.1412 O.2     1  UNL1       -0.2188
     24 N           6.5054   -4.6031   28.9818 N.ar    1  UNL1       -0.1516
     25 H           6.3013   -1.4583   30.1953 H       1  UNL1        0.2093
     26 C           7.6018   -2.4512   23.7505 C.ar    1  UNL1        0.0391
     27 C           8.6336   -1.4491   23.3247 C.ar    1  UNL1        0.1004
     28 N           9.5360   -1.7484   22.1644 N.ar    1  UNL1       -0.2414
     29 C           9.4065   -3.0499   21.4299 C.ar    1  UNL1        0.1102
     30 C           8.3747   -4.0520   21.8558 C.ar    1  UNL1        0.0769
     31 CL          8.2453   -5.3535   21.1213 Cl      1  UNL1       -0.0806
     32 C           7.4724   -3.7527   23.0160 C.ar    1  UNL1        0.0161
     33 C           5.6582   -0.4341   22.1838 C.3     1  UNL1        0.1087
     34 C           4.8332   -5.1327   18.5448 C.3     1  UNL1        0.0000
     35 C           5.0395   -3.9580   19.4546 C.3     1  UNL1        0.0000
     36 C           5.9813   -2.8594   19.0592 C.3     1  UNL1        0.0001
     37 C           6.1875   -1.6848   19.9690 C.3     1  UNL1        0.0019
     38 C           5.4520   -1.6087   21.2741 C.3     1  UNL1        0.0227
     39 C           4.5102   -2.7073   21.6694 C.3     1  UNL1        0.0019
     40 C           4.3040   -3.8819   20.7597 C.3     1  UNL1        0.0001
@<TRIPOS>BOND
     1    35    34    1
     2    35    36    1
     3    36    37    1
     4    37    38    1
     5    38    33    1
     6    33     1    1
     7     1     2   ar
     8     2    10    1
     9    10    11    1
    10    11    12    1
    11    12    13    1
    12    13    14    1
    13    14    15    1
    14    15    16    1
    15    16    17    1
    16    18    17    1
    17     2     3   ar
    18     3     4   ar
    19     4     5   ar
    20     5     6   ar
    21     6    19    1
    22    19    20   ar
    23    20    21   ar
    24    21    22   ar
    25    22    23    2
    26    22    24   ar
    27     6     7   ar
    28     7     8   ar
    29     8    26    1
    30    26    27   ar
    31    27    28   ar
    32    28    29   ar
    33    29    30   ar
    34    30    31    1
    35    30    32   ar
    36     8     9   ar
    37    38    39    1
    38    39    40    1
    39    40    35    1
    40     9     1   ar
    41    18    10    1
    42     9     4   ar
    43    18    14    1
    44    24    19   ar
    45    32    26   ar
    46    20    25    1
@<TRIPOS>MOLECULE
*****
 40 46 0 0 0
SMALL
GASTEIGER

@<TRIPOS>ATOM
      1 N           0.6333    2.3970   22.3678 N.ar    1  UNL1       -0.2984
      2 C          -0.5891    2.4088   21.4985 C.ar    1  UNL1        0.2013
      3 N          -0.4192    1.3542   20.4455 N.ar    1  UNL1       -0.2135
      4 C           0.9081    0.6906   20.6639 C.ar    1  UNL1        0.1030
      5 C           1.6086   -0.4172   19.9345 C.ar    1  UNL1        0.0429
      6 C           2.9596   -0.8806   20.3931 C.ar    1  UNL1        0.1194
      7 N           3.6100   -0.2360   21.5812 N.ar    1  UNL1       -0.2406
      8 C           2.9095    0.8718   22.3106 C.ar    1  UNL1        0.1001
      9 C           1.5586    1.3351   21.8520 C.ar    1  UNL1        0.0977
     10 N          -1.7735    3.3159   21.6549 N.pl3   1  UNL1       -0.2762
     11 C          -2.3688    3.5448   23.0125 C.3     1  UNL1        0.1256
     12 C          -3.5532    4.4519   23.1689 C.3     1  UNL1        0.1635
     13 O          -4.1422    5.1302   21.9677 O.3     1  UNL1       -0.3527
     14 C          -3.5467    4.9012   20.6100 C.3     1  UNL1        0.1333
     15 C          -3.9092    5.4283   19.2532 C.3     1  UNL1        0.0313
     16 C          -2.9490    4.8470   18.2583 C.3     1  UNL1        0.0043
     17 C          -1.9930    3.9606   19.0003 C.3     1  UNL1        0.0224
     18 C          -2.3625    3.9942   20.4537 C.3     1  UNL1        0.1026
     19 C           3.6600   -1.9884   19.6637 C.ar    1  UNL1        0.1937
     20 N           4.5502   -1.8312   18.4667 N.ar    1  UNL1       -0.1955
     21 O           5.0335   -3.1935   18.0663 O.2     1  UNL1       -0.3201
     22 C           4.4421   -4.1928   19.0159 C.ar    1  UNL1        0.4608
     23 O           4.6611   -5.6764   18.9838 O.2     1  UNL1       -0.2188
     24 N           3.5932   -3.4480   20.0031 N.ar    1  UNL1       -0.1516
     25 H           4.7773   -0.9827   18.0219 H       1  UNL1        0.2093
     26 C           3.5600    1.5163   23.4987 C.ar    1  UNL1        0.0391
     27 C           4.2810    2.8223   23.3423 C.ar    1  UNL1        0.1004
     28 N           4.9315    3.4669   24.5304 N.ar    1  UNL1       -0.2414
     29 C           4.8611    2.8053   25.8748 C.ar    1  UNL1        0.1102
     30 C           4.1401    1.4992   26.0311 C.ar    1  UNL1        0.0769
     31 CL          4.0697    0.8376   27.3755 Cl      1  UNL1       -0.0806
     32 C           3.4896    0.8547   24.8430 C.ar    1  UNL1        0.0161
     33 C           0.8859    3.2903   23.5460 C.3     1  UNL1        0.1087
     34 C          -0.0002    1.2355   29.1131 C.3     1  UNL1        0.0000
     35 C           0.2213    1.7492   27.7213 C.3     1  UNL1        0.0000
     36 C           0.9357    3.0507   27.5070 C.3     1  UNL1        0.0001
     37 C           1.1572    3.5644   26.1153 C.3     1  UNL1        0.0019
     38 C           0.6644    2.7766   24.9377 C.3     1  UNL1        0.0227
     39 C          -0.0500    1.4751   25.1520 C.3     1  UNL1        0.0019
     40 C          -0.2715    0.9614   26.5438 C.3     1  UNL1        0.0001
@<TRIPOS>BOND
     1    35    34    1
     2    35    36    1
     3    36    37    1
     4    37    38    1
     5    38    33    1
     6    33     1    1
     7     1     2   ar
     8     2    10    1
     9    10    11    1
    10    11    12    1
    11    12    13    1
    12    13    14    1
    13    14    15    1
    14    15    16    1
    15    16    17    1
    16    18    17    1
    17     2     3   ar
    18     3     4   ar
    19     4     5   ar
    20     5     6   ar
    21     6    19    1
    22    19    20   ar
    23    20    21   ar
    24    21    22   ar
    25    22    23    2
    26    22    24   ar
    27     6     7   ar
    28     7     8   ar
    29     8    26    1
    30    26    27   ar
    31    27    28   ar
    32    28    29   ar
    33    29    30   ar
    34    30    31    1
    35    30    32   ar
    36     8     9   ar
    37    38    39    1
    38    39    40    1
    39    40    35    1
    40     9     1   ar
    41    18    10    1
    42     9     4   ar
    43    18    14    1
    44    24    19   ar
    45    32    26   ar
    46    20    25    1
