@<TRIPOS>MOLECULE
*****
 30 33 0 0 0
SMALL
GASTEIGER

@<TRIPOS>ATOM
      1 O          -9.3422  -18.5828   21.5038 O.2     1  UNL1       -0.2733
      2 C          -7.8812  -18.2662   21.6274 C.2     1  UNL1        0.2422
      3 N          -7.3784  -17.4955   22.8121 N.am    1  UNL1       -0.2722
      4 C          -5.9175  -17.1788   22.9357 C.3     1  UNL1        0.0987
      5 C          -5.4147  -16.4082   24.1203 C.3     1  UNL1        0.0476
      6 C          -6.3729  -15.9542   25.1814 C.ar    1  UNL1       -0.0226
      7 C          -5.8701  -15.1836   26.3660 C.ar    1  UNL1       -0.0045
      8 C          -6.8283  -14.7296   27.4269 C.ar    1  UNL1       -0.0003
      9 C          -8.2893  -15.0463   27.3033 C.ar    1  UNL1       -0.0003
     10 C          -8.7920  -15.8169   26.1188 C.ar    1  UNL1       -0.0027
     11 C          -7.8339  -16.2709   25.0578 C.ar    1  UNL1       -0.0040
     12 C          -8.3366  -17.0415   23.8731 C.3     1  UNL1        0.1202
     13 C          -9.7976  -17.3582   23.7495 C.ar    1  UNL1       -0.0001
     14 C         -10.3599  -18.5777   24.4180 C.ar    1  UNL1       -0.0023
     15 C         -11.8208  -18.8943   24.2944 C.ar    1  UNL1       -0.0003
     16 C         -12.7195  -17.9915   23.5023 C.ar    1  UNL1       -0.0000
     17 C         -12.1573  -16.7721   22.8338 C.ar    1  UNL1       -0.0003
     18 C         -10.6963  -16.4555   22.9574 C.ar    1  UNL1       -0.0023
     19 C          -6.9230  -18.7201   20.5665 C.3     1  UNL1        0.1552
     20 N          -6.1321  -19.9800   20.7595 N.3     1  UNL1       -0.2879
     21 H          -6.6705  -20.7339   20.3326 H       1  UNL1        0.1238
     22 C          -4.7381  -20.0812   20.2151 C.3     1  UNL1        0.0961
     23 C          -3.6331  -19.2726   20.8276 C.3     1  UNL1        0.1027
     24 O          -4.1822  -19.9359   22.0559 O.3     1  UNL1       -0.3854
     25 C          -3.4678  -18.8902   19.3866 C.3     1  UNL1        0.0283
     26 C          -2.3883  -17.9295   18.9847 C.3     1  UNL1        0.0024
     27 C          -1.4740  -17.3512   20.0238 C.3     1  UNL1        0.0002
     28 C          -1.6392  -17.7336   21.4647 C.3     1  UNL1        0.0024
     29 C          -2.7188  -18.6943   21.8666 C.3     1  UNL1        0.0283
     30 H          -4.9256  -20.5082   21.8094 H       1  UNL1        0.2103
@<TRIPOS>BOND
     1     1     2    2
     2     2    19    1
     3    19    20    1
     4    20    22    1
     5    22    23    1
     6    23    24    1
     7    23    25    1
     8    25    26    1
     9    26    27    1
    10    27    28    1
    11    28    29    1
    12     2     3   am
    13     3     4    1
    14     4     5    1
    15     5     6    1
    16     6     7   ar
    17     7     8   ar
    18     8     9   ar
    19     9    10   ar
    20    10    11   ar
    21    11    12    1
    22    12    13    1
    23    13    14   ar
    24    14    15   ar
    25    15    16   ar
    26    16    17   ar
    27    17    18   ar
    28    29    23    1
    29    12     3    1
    30    18    13   ar
    31    11     6   ar
    32    20    21    1
    33    24    30    1
@<TRIPOS>MOLECULE
*****
 30 33 0 0 0
SMALL
GASTEIGER

@<TRIPOS>ATOM
      1 O          -5.8739  -17.7914   23.3710 O.2     1  UNL1       -0.2733
      2 C          -6.4063  -18.5201   22.1729 C.2     1  UNL1        0.2422
      3 N          -7.8343  -18.3315   21.7538 N.am    1  UNL1       -0.2722
      4 C          -8.3667  -19.0603   20.5557 C.3     1  UNL1        0.0987
      5 C          -9.7945  -18.8717   20.1366 C.3     1  UNL1        0.0476
      6 C         -10.6900  -17.9544   20.9155 C.ar    1  UNL1       -0.0226
      7 C         -12.1178  -17.7658   20.4964 C.ar    1  UNL1       -0.0045
      8 C         -13.0132  -16.8485   21.2754 C.ar    1  UNL1       -0.0003
      9 C         -12.4807  -16.1198   22.4735 C.ar    1  UNL1       -0.0003
     10 C         -11.0529  -16.3083   22.8926 C.ar    1  UNL1       -0.0027
     11 C         -10.1575  -17.2256   22.1136 C.ar    1  UNL1       -0.0040
     12 C          -8.7296  -17.4142   22.5327 C.3     1  UNL1        0.1202
     13 C          -8.1972  -16.6855   23.7308 C.ar    1  UNL1       -0.0001
     14 C          -8.6178  -17.1009   25.1095 C.ar    1  UNL1       -0.0023
     15 C          -8.0854  -16.3722   26.3076 C.ar    1  UNL1       -0.0003
     16 C          -7.1322  -15.2280   26.1270 C.ar    1  UNL1       -0.0000
     17 C          -6.7116  -14.8127   24.7485 C.ar    1  UNL1       -0.0003
     18 C          -7.2441  -15.5414   23.5504 C.ar    1  UNL1       -0.0023
     19 C          -5.5110  -19.4374   21.3939 C.3     1  UNL1        0.1552
     20 N          -4.3652  -20.1245   22.0759 N.3     1  UNL1       -0.2879
     21 H          -4.0288  -20.8428   21.4346 H       1  UNL1        0.1238
     22 C          -3.1661  -19.3336   22.5079 C.3     1  UNL1        0.0961
     23 C          -2.1649  -18.8732   21.4902 C.3     1  UNL1        0.1027
     24 O          -2.1364  -20.3509   21.2338 O.3     1  UNL1       -0.3854
     25 C          -2.5412  -17.5555   22.1000 C.3     1  UNL1        0.0283
     26 C          -1.9064  -16.2905   21.6032 C.3     1  UNL1        0.0024
     27 C          -0.8953  -16.3434   20.4964 C.3     1  UNL1        0.0002
     28 C          -0.5190  -17.6611   19.8866 C.3     1  UNL1        0.0024
     29 C          -1.1538  -18.9260   20.3834 C.3     1  UNL1        0.0283
     30 H          -2.7531  -20.7956   21.8361 H       1  UNL1        0.2103
@<TRIPOS>BOND
     1     1     2    2
     2     2    19    1
     3    19    20    1
     4    20    22    1
     5    22    23    1
     6    23    24    1
     7    23    25    1
     8    25    26    1
     9    26    27    1
    10    27    28    1
    11    28    29    1
    12     2     3   am
    13     3     4    1
    14     4     5    1
    15     5     6    1
    16     6     7   ar
    17     7     8   ar
    18     8     9   ar
    19     9    10   ar
    20    10    11   ar
    21    11    12    1
    22    12    13    1
    23    13    14   ar
    24    14    15   ar
    25    15    16   ar
    26    16    17   ar
    27    17    18   ar
    28    29    23    1
    29    12     3    1
    30    18    13   ar
    31    11     6   ar
    32    20    21    1
    33    24    30    1
@<TRIPOS>MOLECULE
*****
 30 33 0 0 0
SMALL
GASTEIGER

@<TRIPOS>ATOM
      1 O          -5.3543  -18.5996   21.0480 O.2     1  UNL1       -0.2733
      2 C          -6.7902  -18.5713   21.4809 C.2     1  UNL1        0.2422
      3 N          -7.1857  -17.8224   22.7190 N.am    1  UNL1       -0.2722
      4 C          -8.6216  -17.7940   23.1518 C.3     1  UNL1        0.0987
      5 C          -9.0171  -17.0451   24.3898 C.3     1  UNL1        0.0476
      6 C          -7.9766  -16.3246   25.1951 C.ar    1  UNL1       -0.0226
      7 C          -8.3721  -15.5757   26.4331 C.ar    1  UNL1       -0.0045
      8 C          -7.3317  -14.8552   27.2383 C.ar    1  UNL1       -0.0003
      9 C          -5.8958  -14.8836   26.8055 C.ar    1  UNL1       -0.0003
     10 C          -5.5003  -15.6324   25.5674 C.ar    1  UNL1       -0.0027
     11 C          -6.5407  -16.3529   24.7623 C.ar    1  UNL1       -0.0040
     12 C          -6.1453  -17.1019   23.5242 C.3     1  UNL1        0.1202
     13 C          -4.7094  -17.1302   23.0913 C.ar    1  UNL1       -0.0001
     14 C          -4.0872  -15.9117   22.4761 C.ar    1  UNL1       -0.0023
     15 C          -2.6513  -15.9401   22.0433 C.ar    1  UNL1       -0.0003
     16 C          -1.8375  -17.1870   22.2256 C.ar    1  UNL1       -0.0000
     17 C          -2.4596  -18.4054   22.8408 C.ar    1  UNL1       -0.0003
     18 C          -3.8956  -18.3770   23.2736 C.ar    1  UNL1       -0.0023
     19 C          -7.8306  -19.2918   20.6757 C.3     1  UNL1        0.1552
     20 N          -8.9122  -18.5170   19.9829 N.3     1  UNL1       -0.2879
     21 H          -8.6484  -18.4582   18.9994 H       1  UNL1        0.1238
     22 C         -10.3292  -19.0076   20.0225 C.3     1  UNL1        0.0961
     23 C         -11.2167  -18.6442   21.1758 C.3     1  UNL1        0.1027
     24 O         -11.1048  -20.1246   21.3898 O.3     1  UNL1       -0.3854
     25 C         -11.0204  -17.2900   20.5613 C.3     1  UNL1        0.0283
     26 C         -11.6728  -16.0865   21.1744 C.3     1  UNL1        0.0024
     27 C         -12.5215  -16.2372   22.4020 C.3     1  UNL1        0.0002
     28 C         -12.7178  -17.5913   23.0165 C.3     1  UNL1        0.0024
     29 C         -12.0654  -18.7948   22.4035 C.3     1  UNL1        0.0283
     30 H         -10.5432  -20.5096   20.6989 H       1  UNL1        0.2103
@<TRIPOS>BOND
     1     1     2    2
     2     2    19    1
     3    19    20    1
     4    20    22    1
     5    22    23    1
     6    23    24    1
     7    23    25    1
     8    25    26    1
     9    26    27    1
    10    27    28    1
    11    28    29    1
    12     2     3   am
    13     3     4    1
    14     4     5    1
    15     5     6    1
    16     6     7   ar
    17     7     8   ar
    18     8     9   ar
    19     9    10   ar
    20    10    11   ar
    21    11    12    1
    22    12    13    1
    23    13    14   ar
    24    14    15   ar
    25    15    16   ar
    26    16    17   ar
    27    17    18   ar
    28    29    23    1
    29    12     3    1
    30    18    13   ar
    31    11     6   ar
    32    20    21    1
    33    24    30    1
@<TRIPOS>MOLECULE
*****
 30 33 0 0 0
SMALL
GASTEIGER

@<TRIPOS>ATOM
      1 O          -9.1153  -16.4930   23.9635 O.2     1  UNL1       -0.2733
      2 C          -7.7990  -16.9899   23.4434 C.2     1  UNL1        0.2422
      3 N          -7.7577  -17.8868   22.2418 N.am    1  UNL1       -0.2722
      4 C          -6.4414  -18.3837   21.7217 C.3     1  UNL1        0.0987
      5 C          -6.4000  -19.2806   20.5202 C.3     1  UNL1        0.0476
      6 C          -7.6749  -19.6806   19.8386 C.ar    1  UNL1       -0.0226
      7 C          -7.6336  -20.5775   18.6370 C.ar    1  UNL1       -0.0045
      8 C          -8.9085  -20.9775   17.9555 C.ar    1  UNL1       -0.0003
      9 C         -10.2248  -20.4807   18.4755 C.ar    1  UNL1       -0.0003
     10 C         -10.2662  -19.5838   19.6771 C.ar    1  UNL1       -0.0027
     11 C          -8.9912  -19.1838   20.3586 C.ar    1  UNL1       -0.0040
     12 C          -9.0326  -18.2868   21.5603 C.3     1  UNL1        0.1202
     13 C         -10.3489  -17.7900   22.0803 C.ar    1  UNL1       -0.0001
     14 C         -10.8871  -16.4681   21.6185 C.ar    1  UNL1       -0.0023
     15 C         -12.2034  -15.9712   22.1385 C.ar    1  UNL1       -0.0003
     16 C         -12.9815  -16.7962   23.1204 C.ar    1  UNL1       -0.0000
     17 C         -12.4433  -18.1180   23.5822 C.ar    1  UNL1       -0.0003
     18 C         -11.1270  -18.6148   23.0621 C.ar    1  UNL1       -0.0023
     19 C          -6.5241  -16.5899   24.1250 C.3     1  UNL1        0.1552
     20 N          -5.3548  -16.1192   23.3119 N.3     1  UNL1       -0.2879
     21 H          -5.2405  -15.1249   23.5085 H       1  UNL1        0.1238
     22 C          -4.0085  -16.7546   23.4965 C.3     1  UNL1        0.0961
     23 C          -3.0799  -16.8974   22.3272 C.3     1  UNL1        0.1027
     24 O          -3.2295  -15.4052   22.3604 O.3     1  UNL1       -0.3854
     25 C          -3.2528  -18.3399   22.7002 C.3     1  UNL1        0.0283
     26 C          -2.5491  -19.4070   21.9154 C.3     1  UNL1        0.0024
     27 C          -1.6724  -19.0316   20.7576 C.3     1  UNL1        0.0002
     28 C          -1.4994  -17.5891   20.3846 C.3     1  UNL1        0.0024
     29 C          -2.2032  -16.5219   21.1694 C.3     1  UNL1        0.0283
     30 H          -3.8205  -15.1555   23.0878 H       1  UNL1        0.2103
@<TRIPOS>BOND
     1     1     2    2
     2     2    19    1
     3    19    20    1
     4    20    22    1
     5    22    23    1
     6    23    24    1
     7    23    25    1
     8    25    26    1
     9    26    27    1
    10    27    28    1
    11    28    29    1
    12     2     3   am
    13     3     4    1
    14     4     5    1
    15     5     6    1
    16     6     7   ar
    17     7     8   ar
    18     8     9   ar
    19     9    10   ar
    20    10    11   ar
    21    11    12    1
    22    12    13    1
    23    13    14   ar
    24    14    15   ar
    25    15    16   ar
    26    16    17   ar
    27    17    18   ar
    28    29    23    1
    29    12     3    1
    30    18    13   ar
    31    11     6   ar
    32    20    21    1
    33    24    30    1
@<TRIPOS>MOLECULE
*****
 30 33 0 0 0
SMALL
GASTEIGER

@<TRIPOS>ATOM
      1 O          -8.2369  -19.2922   19.6505 O.2     1  UNL1       -0.2733
      2 C          -9.0696  -18.2403   20.3214 C.2     1  UNL1        0.2422
      3 N          -8.5187  -17.4814   21.4922 N.am    1  UNL1       -0.2722
      4 C          -9.3514  -16.4296   22.1631 C.3     1  UNL1        0.0987
      5 C          -8.8006  -15.6707   23.3339 C.3     1  UNL1        0.0476
      6 C          -7.4169  -15.9637   23.8337 C.ar    1  UNL1       -0.0226
      7 C          -6.8661  -15.2048   25.0045 C.ar    1  UNL1       -0.0045
      8 C          -5.4825  -15.4978   25.5042 C.ar    1  UNL1       -0.0003
      9 C          -4.6498  -16.5497   24.8333 C.ar    1  UNL1       -0.0003
     10 C          -5.2006  -17.3086   23.6626 C.ar    1  UNL1       -0.0027
     11 C          -6.5842  -17.0156   23.1628 C.ar    1  UNL1       -0.0040
     12 C          -7.1351  -17.7744   21.9920 C.3     1  UNL1        0.1202
     13 C          -6.3024  -18.8263   21.3211 C.ar    1  UNL1       -0.0001
     14 C          -6.4889  -20.2712   21.6781 C.ar    1  UNL1       -0.0023
     15 C          -5.6562  -21.3231   21.0071 C.ar    1  UNL1       -0.0003
     16 C          -4.6369  -20.9300   19.9792 C.ar    1  UNL1       -0.0000
     17 C          -4.4504  -19.4851   19.6222 C.ar    1  UNL1       -0.0003
     18 C          -5.2832  -18.4333   20.2931 C.ar    1  UNL1       -0.0023
     19 C         -10.4532  -17.9473   19.8216 C.3     1  UNL1        0.1552
     20 N         -11.5917  -18.8505   20.1931 N.3     1  UNL1       -0.2879
     21 H         -11.7880  -19.4282   19.3757 H       1  UNL1        0.1238
     22 C         -11.4592  -19.7830   21.3606 C.3     1  UNL1        0.0961
     23 C         -11.3794  -19.2335   22.7540 C.3     1  UNL1        0.1027
     24 O         -12.5417  -18.4439   22.2288 O.3     1  UNL1       -0.3854
     25 C         -10.2449  -20.2138   22.7953 C.3     1  UNL1        0.0283
     26 C          -9.4342  -20.3705   24.0476 C.3     1  UNL1        0.0024
     27 C          -9.7581  -19.5468   25.2586 C.3     1  UNL1        0.0002
     28 C         -10.8927  -18.5664   25.2174 C.3     1  UNL1        0.0024
     29 C         -11.7033  -18.4098   23.9651 C.3     1  UNL1        0.0283
     30 H         -12.7167  -18.6988   21.3094 H       1  UNL1        0.2103
@<TRIPOS>BOND
     1     1     2    2
     2     2    19    1
     3    19    20    1
     4    20    22    1
     5    22    23    1
     6    23    24    1
     7    23    25    1
     8    25    26    1
     9    26    27    1
    10    27    28    1
    11    28    29    1
    12     2     3   am
    13     3     4    1
    14     4     5    1
    15     5     6    1
    16     6     7   ar
    17     7     8   ar
    18     8     9   ar
    19     9    10   ar
    20    10    11   ar
    21    11    12    1
    22    12    13    1
    23    13    14   ar
    24    14    15   ar
    25    15    16   ar
    26    16    17   ar
    27    17    18   ar
    28    29    23    1
    29    12     3    1
    30    18    13   ar
    31    11     6   ar
    32    20    21    1
    33    24    30    1
@<TRIPOS>MOLECULE
*****
 30 33 0 0 0
SMALL
GASTEIGER

@<TRIPOS>ATOM
      1 O           8.1620   -7.7917   29.3463 O.2     1  UNL1       -0.2733
      2 C           8.1367   -8.3340   27.9480 C.2     1  UNL1        0.2422
      3 N           8.1423   -7.3941   26.7789 N.am    1  UNL1       -0.2722
      4 C           8.1170   -7.9363   25.3806 C.3     1  UNL1        0.0987
      5 C           8.1227   -6.9966   24.2115 C.3     1  UNL1        0.0476
      6 C           8.1537   -5.5145   24.4408 C.ar    1  UNL1       -0.0226
      7 C           8.1593   -4.5747   23.2717 C.ar    1  UNL1       -0.0045
      8 C           8.1903   -3.0927   23.5010 C.ar    1  UNL1       -0.0003
      9 C           8.2156   -2.5504   24.8993 C.ar    1  UNL1       -0.0003
     10 C           8.2100   -3.4902   26.0684 C.ar    1  UNL1       -0.0027
     11 C           8.1790   -4.9722   25.8391 C.ar    1  UNL1       -0.0040
     12 C           8.1733   -5.9121   27.0082 C.3     1  UNL1        0.1202
     13 C           8.1986   -5.3699   28.4065 C.ar    1  UNL1       -0.0001
     14 C           6.9124   -5.0922   29.1267 C.ar    1  UNL1       -0.0023
     15 C           6.9377   -4.5500   30.5250 C.ar    1  UNL1       -0.0003
     16 C           8.2493   -4.2854   31.2032 C.ar    1  UNL1       -0.0000
     17 C           9.5354   -4.5630   30.4831 C.ar    1  UNL1       -0.0003
     18 C           9.5101   -5.1053   29.0847 C.ar    1  UNL1       -0.0023
     19 C           8.1057   -9.8160   27.7187 C.3     1  UNL1        0.1552
     20 N           6.7919  -10.5359   27.6433 N.3     1  UNL1       -0.2879
     21 H           6.4530  -10.4306   26.6870 H       1  UNL1        0.1238
     22 C           6.7180  -11.9980   27.9705 C.3     1  UNL1        0.0961
     23 C           5.4572  -12.7642   27.6997 C.3     1  UNL1        0.1027
     24 O           6.3218  -13.2847   26.5899 O.3     1  UNL1       -0.3854
     25 C           5.0306  -11.9777   28.9035 C.3     1  UNL1        0.0283
     26 C           3.6434  -12.1381   29.4512 C.3     1  UNL1        0.0024
     27 C           2.6829  -13.0852   28.7950 C.3     1  UNL1        0.0002
     28 C           3.1095  -13.8718   27.5912 C.3     1  UNL1        0.0024
     29 C           4.4967  -13.7113   27.0435 C.3     1  UNL1        0.0283
     30 H           7.1957  -12.8665   26.6376 H       1  UNL1        0.2103
@<TRIPOS>BOND
     1     1     2    2
     2     2    19    1
     3    19    20    1
     4    20    22    1
     5    22    23    1
     6    23    24    1
     7    23    25    1
     8    25    26    1
     9    26    27    1
    10    27    28    1
    11    28    29    1
    12     2     3   am
    13     3     4    1
    14     4     5    1
    15     5     6    1
    16     6     7   ar
    17     7     8   ar
    18     8     9   ar
    19     9    10   ar
    20    10    11   ar
    21    11    12    1
    22    12    13    1
    23    13    14   ar
    24    14    15   ar
    25    15    16   ar
    26    16    17   ar
    27    17    18   ar
    28    29    23    1
    29    12     3    1
    30    18    13   ar
    31    11     6   ar
    32    20    21    1
    33    24    30    1
@<TRIPOS>MOLECULE
*****
 30 33 0 0 0
SMALL
GASTEIGER

@<TRIPOS>ATOM
      1 O           6.3263   -4.3443   22.1996 O.2     1  UNL1       -0.2733
      2 C           6.0708   -3.6214   23.4888 C.2     1  UNL1        0.2422
      3 N           5.0177   -2.5552   23.5548 N.am    1  UNL1       -0.2722
      4 C           4.7621   -1.8323   24.8440 C.3     1  UNL1        0.0987
      5 C           3.7091   -0.7662   24.9101 C.3     1  UNL1        0.0476
      6 C           2.9115   -0.4229   23.6869 C.ar    1  UNL1       -0.0226
      7 C           1.8584    0.6432   23.7530 C.ar    1  UNL1       -0.0045
      8 C           1.0609    0.9864   22.5298 C.ar    1  UNL1       -0.0003
      9 C           1.3165    0.2635   21.2406 C.ar    1  UNL1       -0.0003
     10 C           2.3695   -0.8026   21.1746 C.ar    1  UNL1       -0.0027
     11 C           3.1670   -1.1458   22.3977 C.ar    1  UNL1       -0.0040
     12 C           4.2202   -2.2120   22.3317 C.3     1  UNL1        0.1202
     13 C           4.4757   -2.9349   21.0425 C.ar    1  UNL1       -0.0001
     14 C           5.4598   -2.3817   20.0547 C.ar    1  UNL1       -0.0023
     15 C           5.7153   -3.1046   18.7655 C.ar    1  UNL1       -0.0003
     16 C           4.9868   -4.3808   18.4640 C.ar    1  UNL1       -0.0000
     17 C           4.0028   -4.9339   19.4518 C.ar    1  UNL1       -0.0003
     18 C           3.7472   -4.2110   20.7410 C.ar    1  UNL1       -0.0023
     19 C           6.8683   -3.9646   24.7119 C.3     1  UNL1        0.1552
     20 N           6.2107   -4.6650   25.8638 N.3     1  UNL1       -0.2879
     21 H           5.3821   -5.1292   25.4920 H       1  UNL1        0.1238
     22 C           6.9693   -5.6952   26.6471 C.3     1  UNL1        0.0961
     23 C           7.0576   -5.5867   28.1406 C.3     1  UNL1        0.1027
     24 O           5.5743   -5.7406   27.9778 O.3     1  UNL1       -0.3854
     25 C           8.5100   -5.4705   27.7846 C.3     1  UNL1        0.0283
     26 C           9.5358   -5.2993   28.8656 C.3     1  UNL1        0.0024
     27 C           9.1090   -5.2443   30.3026 C.3     1  UNL1        0.0002
     28 C           7.6565   -5.3604   30.6585 C.3     1  UNL1        0.0024
     29 C           6.6308   -5.5317   29.5776 C.3     1  UNL1        0.0283
     30 H           5.3594   -5.8243   27.0357 H       1  UNL1        0.2103
@<TRIPOS>BOND
     1     1     2    2
     2     2    19    1
     3    19    20    1
     4    20    22    1
     5    22    23    1
     6    23    24    1
     7    23    25    1
     8    25    26    1
     9    26    27    1
    10    27    28    1
    11    28    29    1
    12     2     3   am
    13     3     4    1
    14     4     5    1
    15     5     6    1
    16     6     7   ar
    17     7     8   ar
    18     8     9   ar
    19     9    10   ar
    20    10    11   ar
    21    11    12    1
    22    12    13    1
    23    13    14   ar
    24    14    15   ar
    25    15    16   ar
    26    16    17   ar
    27    17    18   ar
    28    29    23    1
    29    12     3    1
    30    18    13   ar
    31    11     6   ar
    32    20    21    1
    33    24    30    1
@<TRIPOS>MOLECULE
*****
 30 33 0 0 0
SMALL
GASTEIGER

@<TRIPOS>ATOM
      1 O           6.2657   -1.2115   21.1682 O.2     1  UNL1       -0.2733
      2 C           7.0976   -2.2907   20.5410 C.2     1  UNL1        0.2422
      3 N           7.4954   -3.4934   21.3443 N.am    1  UNL1       -0.2722
      4 C           8.3273   -4.5725   20.7171 C.3     1  UNL1        0.0987
      5 C           8.7252   -5.7752   21.5203 C.3     1  UNL1        0.0476
      6 C           8.2912   -5.8987   22.9509 C.ar    1  UNL1       -0.0226
      7 C           8.6891   -7.1014   23.7541 C.ar    1  UNL1       -0.0045
      8 C           8.2551   -7.2249   25.1846 C.ar    1  UNL1       -0.0003
      9 C           7.4232   -6.1458   25.8119 C.ar    1  UNL1       -0.0003
     10 C           7.0253   -4.9431   25.0086 C.ar    1  UNL1       -0.0027
     11 C           7.4593   -4.8196   23.5781 C.ar    1  UNL1       -0.0040
     12 C           7.0614   -3.6169   22.7748 C.3     1  UNL1        0.1202
     13 C           6.2296   -2.5377   23.4020 C.ar    1  UNL1       -0.0001
     14 C           6.8940   -1.3986   24.1169 C.ar    1  UNL1       -0.0023
     15 C           6.0621   -0.3195   24.7442 C.ar    1  UNL1       -0.0003
     16 C           4.5658   -0.3795   24.6565 C.ar    1  UNL1       -0.0000
     17 C           3.9015   -1.5186   23.9417 C.ar    1  UNL1       -0.0003
     18 C           4.7334   -2.5977   23.3144 C.ar    1  UNL1       -0.0023
     19 C           7.5316   -2.1671   19.1105 C.3     1  UNL1        0.1552
     20 N           6.5387   -2.3727   18.0051 N.3     1  UNL1       -0.2879
     21 H           6.8493   -3.1891   17.4784 H       1  UNL1        0.1238
     22 C           5.0904   -2.5916   18.3289 C.3     1  UNL1        0.0961
     23 C           4.1099   -1.4666   18.1783 C.3     1  UNL1        0.1027
     24 O           4.9393   -1.2558   16.9464 O.3     1  UNL1       -0.3854
     25 C           3.6211   -2.0680   19.4625 C.3     1  UNL1        0.0283
     26 C           2.4397   -1.4712   20.1684 C.3     1  UNL1        0.0024
     27 C           1.7471   -0.2729   19.5899 C.3     1  UNL1        0.0002
     28 C           2.2360    0.3285   18.3057 C.3     1  UNL1        0.0024
     29 C           3.4173   -0.2683   17.5999 C.3     1  UNL1        0.0283
     30 H           5.6360   -1.9296   16.9065 H       1  UNL1        0.2103
@<TRIPOS>BOND
     1     1     2    2
     2     2    19    1
     3    19    20    1
     4    20    22    1
     5    22    23    1
     6    23    24    1
     7    23    25    1
     8    25    26    1
     9    26    27    1
    10    27    28    1
    11    28    29    1
    12     2     3   am
    13     3     4    1
    14     4     5    1
    15     5     6    1
    16     6     7   ar
    17     7     8   ar
    18     8     9   ar
    19     9    10   ar
    20    10    11   ar
    21    11    12    1
    22    12    13    1
    23    13    14   ar
    24    14    15   ar
    25    15    16   ar
    26    16    17   ar
    27    17    18   ar
    28    29    23    1
    29    12     3    1
    30    18    13   ar
    31    11     6   ar
    32    20    21    1
    33    24    30    1
@<TRIPOS>MOLECULE
*****
 30 33 0 0 0
SMALL
GASTEIGER

@<TRIPOS>ATOM
      1 O           5.5487   -2.9091   22.1724 O.2     1  UNL1       -0.2733
      2 C           4.8519   -2.1249   23.2446 C.2     1  UNL1        0.2422
      3 N           3.7258   -1.2010   22.8864 N.am    1  UNL1       -0.2722
      4 C           3.0291   -0.4168   23.9586 C.3     1  UNL1        0.0987
      5 C           1.9030    0.5071   23.6005 C.3     1  UNL1        0.0476
      6 C           1.4736    0.6469   22.1700 C.ar    1  UNL1       -0.0226
      7 C           0.3476    1.5708   21.8119 C.ar    1  UNL1       -0.0045
      8 C          -0.0818    1.7106   20.3815 C.ar    1  UNL1       -0.0003
      9 C           0.6149    0.9264   19.3093 C.ar    1  UNL1       -0.0003
     10 C           1.7410    0.0025   19.6674 C.ar    1  UNL1       -0.0027
     11 C           2.1703   -0.1372   21.0978 C.ar    1  UNL1       -0.0040
     12 C           3.2965   -1.0612   21.4560 C.3     1  UNL1        0.1202
     13 C           3.9932   -1.8453   20.3838 C.ar    1  UNL1       -0.0001
     14 C           5.1824   -1.2614   19.6803 C.ar    1  UNL1       -0.0023
     15 C           5.8791   -2.0456   18.6080 C.ar    1  UNL1       -0.0003
     16 C           5.3866   -3.4136   18.2393 C.ar    1  UNL1       -0.0000
     17 C           4.1974   -3.9975   18.9427 C.ar    1  UNL1       -0.0003
     18 C           3.5007   -3.2133   20.0150 C.ar    1  UNL1       -0.0023
     19 C           5.2813   -2.2647   24.6750 C.3     1  UNL1        0.1552
     20 N           5.8402   -3.5670   25.1664 N.3     1  UNL1       -0.2879
     21 H           5.3945   -4.3038   24.6196 H       1  UNL1        0.1238
     22 C           7.3178   -3.8186   25.1087 C.3     1  UNL1        0.0961
     23 C           7.8362   -5.1261   24.5874 C.3     1  UNL1        0.1027
     24 O           8.0319   -4.2660   23.3741 O.3     1  UNL1       -0.3854
     25 C           7.4606   -5.5320   25.9817 C.3     1  UNL1        0.0283
     26 C           7.6713   -6.9468   26.4334 C.3     1  UNL1        0.0024
     27 C           8.2576   -7.9556   25.4908 C.3     1  UNL1        0.0002
     28 C           8.6333   -7.5496   24.0965 C.3     1  UNL1        0.0024
     29 C           8.4226   -6.1349   23.6448 C.3     1  UNL1        0.0283
     30 H           7.7321   -3.3636   23.5657 H       1  UNL1        0.2103
@<TRIPOS>BOND
     1     1     2    2
     2     2    19    1
     3    19    20    1
     4    20    22    1
     5    22    23    1
     6    23    24    1
     7    23    25    1
     8    25    26    1
     9    26    27    1
    10    27    28    1
    11    28    29    1
    12     2     3   am
    13     3     4    1
    14     4     5    1
    15     5     6    1
    16     6     7   ar
    17     7     8   ar
    18     8     9   ar
    19     9    10   ar
    20    10    11   ar
    21    11    12    1
    22    12    13    1
    23    13    14   ar
    24    14    15   ar
    25    15    16   ar
    26    16    17   ar
    27    17    18   ar
    28    29    23    1
    29    12     3    1
    30    18    13   ar
    31    11     6   ar
    32    20    21    1
    33    24    30    1
