@<TRIPOS>MOLECULE
*****
 37 39 0 0 0
SMALL
GASTEIGER

@<TRIPOS>ATOM
      1 C           7.1034   -4.1099   23.3592 C.ar    1  UNL1        0.1341
      2 N           6.5367   -3.7133   24.6902 N.ar    1  UNL1       -0.2284
      3 C           6.8150   -4.5504   25.9033 C.ar    1  UNL1        0.1343
      4 C           7.6599   -5.7842   25.7854 C.ar    1  UNL1        0.0368
      5 C           8.2265   -6.1808   24.4544 C.ar    1  UNL1        0.0339
      6 C           7.9483   -5.3436   23.2413 C.ar    1  UNL1        0.1578
      7 F           8.5149   -5.7402   21.9102 F       1  UNL1       -0.2028
      8 C           8.0122   -2.5420   22.7000 C.3     1  UNL1        0.0624
      9 C           6.8251   -3.2727   22.1460 C.3     1  UNL1        0.2382
     10 C           5.7347   -4.2941   22.0133 C.3     1  UNL1        0.1975
     11 O           4.7783   -4.2245   20.8599 O.3     1  UNL1       -0.3357
     12 C           4.9123   -3.1336   19.8391 C.3     1  UNL1        0.2740
     13 C           4.6341   -2.2964   18.6260 C.3     1  UNL1        0.0512
     14 C           6.0027   -2.1122   19.9718 C.2     1  UNL1        0.3218
     15 N           6.1368   -1.0212   18.9511 N.pl3   1  UNL1       -0.2480
     16 N           6.9592   -2.1817   21.1252 N.2     1  UNL1       -0.0676
     17 H           5.5091   -0.9756   18.1940 H       1  UNL1        0.2882
     18 H           6.8525   -0.3508   19.0382 H       1  UNL1        0.2882
     19 C           3.7252   -3.8643   19.2851 C.3     1  UNL1        0.4305
     20 F           2.5381   -4.5949   18.7310 F       1  UNL1       -0.1670
     21 F           4.6175   -4.9935   18.8623 F       1  UNL1       -0.1670
     22 F           2.8330   -2.7351   19.7078 F       1  UNL1       -0.1670
     23 N           6.2483   -4.1538   27.2343 N.am    1  UNL1       -0.2645
     24 C           7.1231   -3.4841   28.2524 C.2     1  UNL1        0.2691
     25 O           8.5644   -3.2110   27.9393 O.2     1  UNL1       -0.2681
     26 H           5.3023   -4.3331   27.4398 H       1  UNL1        0.1566
     27 C           6.5565   -3.0875   29.5834 C.ar    1  UNL1        0.1453
     28 N           5.7814   -1.8104   29.7181 N.ar    1  UNL1       -0.2384
     29 C           5.2148   -1.4138   31.0493 C.ar    1  UNL1        0.1029
     30 C           5.4233   -2.2944   32.2455 C.ar    1  UNL1        0.0914
     31 C           6.1984   -3.5715   32.1108 C.ar    1  UNL1        0.0185
     32 C           6.7649   -3.9681   30.7797 C.ar    1  UNL1        0.0797
     33 CL          7.5400   -5.2453   30.6450 Cl      1  UNL1       -0.0805
     34 C           4.8567   -1.8978   33.5765 C.3     1  UNL1        0.4200
     35 F           4.2901   -1.5012   34.9076 F       1  UNL1       -0.1658
     36 F           5.6324   -0.6150   33.5245 F       1  UNL1       -0.1658
     37 F           4.0811   -3.1806   33.6286 F       1  UNL1       -0.1658
@<TRIPOS>BOND
     1     9     8    1
     2     9     1    1
     3     1     2   ar
     4     2     3   ar
     5     3    23    1
     6    23    24   am
     7    24    25    2
     8    24    27    1
     9    27    28   ar
    10    28    29   ar
    11    29    30   ar
    12    30    34    1
    13    34    35    1
    14    34    36    1
    15    34    37    1
    16    30    31   ar
    17    31    32   ar
    18    32    33    1
    19     3     4   ar
    20     4     5   ar
    21     5     6   ar
    22     6     7    1
    23     9    10    1
    24    10    11    1
    25    11    12    1
    26    12    13    1
    27    12    19    1
    28    19    20    1
    29    19    21    1
    30    19    22    1
    31    12    14    1
    32    14    15    1
    33    14    16    2
    34    16     9    1
    35     6     1   ar
    36    32    27   ar
    37    23    26    1
    38    15    17    1
    39    15    18    1
@<TRIPOS>MOLECULE
*****
 37 39 0 0 0
SMALL
GASTEIGER

@<TRIPOS>ATOM
      1 C           2.8708    0.8751   19.9850 C.ar    1  UNL1        0.1341
      2 N           1.4881    1.0238   20.5472 N.ar    1  UNL1       -0.2284
      3 C           0.5390    2.0202   19.9503 C.ar    1  UNL1        0.1343
      4 C           0.9726    2.8680   18.7913 C.ar    1  UNL1        0.0368
      5 C           2.3553    2.7193   18.2292 C.ar    1  UNL1        0.0339
      6 C           3.3044    1.7229   18.8260 C.ar    1  UNL1        0.1578
      7 F           4.6871    1.5741   18.2638 F       1  UNL1       -0.2028
      8 C           4.0173    1.0255   21.5283 C.3     1  UNL1        0.0624
      9 C           3.8199   -0.1214   20.5818 C.3     1  UNL1        0.2382
     10 C           3.2930   -0.9222   19.4281 C.3     1  UNL1        0.1975
     11 O           3.7837   -2.3212   19.1999 O.3     1  UNL1       -0.3357
     12 C           4.8014   -2.9193   20.1255 C.3     1  UNL1        0.2740
     13 C           5.7506   -3.9158   20.7223 C.3     1  UNL1        0.0512
     14 C           5.3283   -2.1186   21.2791 C.2     1  UNL1        0.3218
     15 N           6.3460   -2.7167   22.2047 N.pl3   1  UNL1       -0.2480
     16 N           4.8376   -0.7196   21.5073 N.2     1  UNL1       -0.0676
     17 H           6.6681   -3.6349   22.0549 H       1  UNL1        0.2882
     18 H           6.6919   -2.1911   22.9619 H       1  UNL1        0.2882
     19 C           4.6041   -4.0663   19.1790 C.3     1  UNL1        0.4305
     20 F           4.4068   -5.2132   18.2326 F       1  UNL1       -0.1670
     21 F           3.8106   -4.7925   20.2245 F       1  UNL1       -0.1670
     22 F           5.3976   -3.3400   18.1336 F       1  UNL1       -0.1670
     23 N          -0.8437    2.1689   20.5125 N.am    1  UNL1       -0.2645
     24 C          -1.2383    3.4384   21.2074 C.2     1  UNL1        0.2691
     25 O          -0.2500    4.5591   21.3402 O.2     1  UNL1       -0.2681
     26 H          -1.4923    1.4334   20.4254 H       1  UNL1        0.1566
     27 C          -2.6209    3.5871   21.7696 C.ar    1  UNL1        0.1453
     28 N          -2.8235    3.6562   23.2542 N.ar    1  UNL1       -0.2384
     29 C          -4.2063    3.8050   23.8163 C.ar    1  UNL1        0.1029
     30 C          -5.3864    3.8847   22.8939 C.ar    1  UNL1        0.0914
     31 C          -5.1838    3.8155   21.4092 C.ar    1  UNL1        0.0185
     32 C          -3.8011    3.6668   20.8471 C.ar    1  UNL1        0.0797
     33 CL         -3.5985    3.5976   19.3624 Cl      1  UNL1       -0.0805
     34 C          -6.7690    4.0334   23.4560 C.3     1  UNL1        0.4200
     35 F          -8.1518    4.1822   24.0181 F       1  UNL1       -0.1658
     36 F          -6.2164    3.9181   24.8457 F       1  UNL1       -0.1658
     37 F          -7.3216    4.1488   22.0663 F       1  UNL1       -0.1658
@<TRIPOS>BOND
     1     9     8    1
     2     9     1    1
     3     1     2   ar
     4     2     3   ar
     5     3    23    1
     6    23    24   am
     7    24    25    2
     8    24    27    1
     9    27    28   ar
    10    28    29   ar
    11    29    30   ar
    12    30    34    1
    13    34    35    1
    14    34    36    1
    15    34    37    1
    16    30    31   ar
    17    31    32   ar
    18    32    33    1
    19     3     4   ar
    20     4     5   ar
    21     5     6   ar
    22     6     7    1
    23     9    10    1
    24    10    11    1
    25    11    12    1
    26    12    13    1
    27    12    19    1
    28    19    20    1
    29    19    21    1
    30    19    22    1
    31    12    14    1
    32    14    15    1
    33    14    16    2
    34    16     9    1
    35     6     1   ar
    36    32    27   ar
    37    23    26    1
    38    15    17    1
    39    15    18    1
@<TRIPOS>MOLECULE
*****
 37 39 0 0 0
SMALL
GASTEIGER

@<TRIPOS>ATOM
      1 C         -12.3362   -5.9146   18.2755 C.ar    1  UNL1        0.1341
      2 N         -12.9334   -4.6094   17.8399 N.ar    1  UNL1       -0.2284
      3 C         -12.1515   -3.3385   17.9936 C.ar    1  UNL1        0.1343
      4 C         -10.7726   -3.3729   18.5829 C.ar    1  UNL1        0.0368
      5 C         -10.1754   -4.6781   19.0185 C.ar    1  UNL1        0.0339
      6 C         -10.9572   -5.9489   18.8648 C.ar    1  UNL1        0.1578
      7 F         -10.3601   -7.2542   19.3004 F       1  UNL1       -0.2028
      8 C         -11.9391   -7.4976   17.2483 C.3     1  UNL1        0.0624
      9 C         -13.1180   -7.1855   18.1218 C.3     1  UNL1        0.2382
     10 C         -14.0253   -6.4321   19.0486 C.3     1  UNL1        0.1975
     11 O         -15.3051   -7.0579   19.5184 O.3     1  UNL1       -0.3357
     12 C         -15.6774   -8.4372   19.0613 C.3     1  UNL1        0.2740
     13 C         -16.4591   -9.7081   18.9076 C.3     1  UNL1        0.0512
     14 C         -14.7701   -9.1906   18.1345 C.2     1  UNL1        0.3218
     15 N         -15.1424  -10.5700   17.6775 N.pl3   1  UNL1       -0.2480
     16 N         -13.4904   -8.5648   17.6647 N.2     1  UNL1       -0.0676
     17 H         -15.9824  -10.9807   17.9858 H       1  UNL1        0.2882
     18 H         -14.5469  -11.0645   17.0692 H       1  UNL1        0.2882
     19 C         -16.8563   -8.1251   19.9347 C.3     1  UNL1        0.4305
     20 F         -18.0352   -7.8130   20.8082 F       1  UNL1       -0.1670
     21 F         -16.4536   -9.2253   20.8714 F       1  UNL1       -0.1670
     22 F         -17.2589   -7.0249   18.9981 F       1  UNL1       -0.1670
     23 N         -12.7487   -2.0332   17.5580 N.am    1  UNL1       -0.2645
     24 C         -13.7931   -1.3669   18.4037 C.2     1  UNL1        0.2691
     25 O         -14.2404   -2.0059   19.6850 O.2     1  UNL1       -0.2681
     26 H         -12.4551   -1.6139   16.7170 H       1  UNL1        0.1566
     27 C         -14.3903   -0.0617   17.9681 C.ar    1  UNL1        0.1453
     28 N         -13.6226    1.2135   18.1541 N.ar    1  UNL1       -0.2384
     29 C         -14.2198    2.5188   17.7185 C.ar    1  UNL1        0.1029
     30 C         -15.5846    2.5488   17.0970 C.ar    1  UNL1        0.0914
     31 C         -16.3523    1.2736   16.9109 C.ar    1  UNL1        0.0185
     32 C         -15.7551   -0.0316   17.3465 C.ar    1  UNL1        0.0797
     33 CL        -16.5228   -1.3068   17.1605 Cl      1  UNL1       -0.0805
     34 C         -16.1818    3.8540   16.6614 C.3     1  UNL1        0.4200
     35 F         -16.7790    5.1593   16.2258 F       1  UNL1       -0.1658
     36 F         -14.9231    4.5640   17.0635 F       1  UNL1       -0.1658
     37 F         -17.4404    3.1441   16.2593 F       1  UNL1       -0.1658
@<TRIPOS>BOND
     1     9     8    1
     2     9     1    1
     3     1     2   ar
     4     2     3   ar
     5     3    23    1
     6    23    24   am
     7    24    25    2
     8    24    27    1
     9    27    28   ar
    10    28    29   ar
    11    29    30   ar
    12    30    34    1
    13    34    35    1
    14    34    36    1
    15    34    37    1
    16    30    31   ar
    17    31    32   ar
    18    32    33    1
    19     3     4   ar
    20     4     5   ar
    21     5     6   ar
    22     6     7    1
    23     9    10    1
    24    10    11    1
    25    11    12    1
    26    12    13    1
    27    12    19    1
    28    19    20    1
    29    19    21    1
    30    19    22    1
    31    12    14    1
    32    14    15    1
    33    14    16    2
    34    16     9    1
    35     6     1   ar
    36    32    27   ar
    37    23    26    1
    38    15    17    1
    39    15    18    1
@<TRIPOS>MOLECULE
*****
 37 39 0 0 0
SMALL
GASTEIGER

@<TRIPOS>ATOM
      1 C           3.2996    0.7420   18.4346 C.ar    1  UNL1        0.1341
      2 N           1.8649    1.1658   18.5438 N.ar    1  UNL1       -0.2284
      3 C           1.5058    2.6208   18.4800 C.ar    1  UNL1        0.1343
      4 C           2.5814    3.6519   18.3070 C.ar    1  UNL1        0.0368
      5 C           4.0161    3.2281   18.1978 C.ar    1  UNL1        0.0339
      6 C           4.3752    1.7731   18.2616 C.ar    1  UNL1        0.1578
      7 F           5.8100    1.3492   18.1524 F       1  UNL1       -0.2028
      8 C           3.5448   -0.5377   17.0130 C.3     1  UNL1        0.0624
      9 C           3.6588   -0.7130   18.4984 C.3     1  UNL1        0.2382
     10 C           3.6480   -0.3830   19.9616 C.3     1  UNL1        0.1975
     11 O           3.9569   -1.4471   20.9727 O.3     1  UNL1       -0.3357
     12 C           4.2764   -2.8412   20.5206 C.3     1  UNL1        0.2740
     13 C           4.6356   -4.2961   20.5843 C.3     1  UNL1        0.0512
     14 C           4.2872   -3.1712   19.0574 C.2     1  UNL1        0.3218
     15 N           4.6068   -4.5653   18.6053 N.pl3   1  UNL1       -0.2480
     16 N           3.9784   -2.1071   18.0463 N.2     1  UNL1       -0.0676
     17 H           4.8095   -5.2637   19.2689 H       1  UNL1        0.2882
     18 H           4.6138   -4.7819   17.6449 H       1  UNL1        0.2882
     19 C           4.3904   -3.0165   22.0060 C.3     1  UNL1        0.4305
     20 F           4.5044   -3.1918   23.4914 F       1  UNL1       -0.1670
     21 F           3.2444   -2.0695   22.2057 F       1  UNL1       -0.1670
     22 F           5.5364   -3.9635   21.8062 F       1  UNL1       -0.1670
     23 N           0.0711    3.0447   18.5892 N.am    1  UNL1       -0.2645
     24 C          -0.5297    3.3182   19.9362 C.2     1  UNL1        0.2691
     25 O           0.3042    3.1677   21.1739 O.2     1  UNL1       -0.2681
     26 H          -0.4762    3.1434   17.7769 H       1  UNL1        0.1566
     27 C          -1.9644    3.7420   20.0454 C.ar    1  UNL1        0.1453
     28 N          -2.9710    2.8264   20.6766 N.ar    1  UNL1       -0.2384
     29 C          -4.4058    3.2504   20.7858 C.ar    1  UNL1        0.1029
     30 C          -4.8338    4.5899   20.2639 C.ar    1  UNL1        0.0914
     31 C          -3.8272    5.5055   19.6327 C.ar    1  UNL1        0.0185
     32 C          -2.3925    5.0816   19.5235 C.ar    1  UNL1        0.0797
     33 CL         -1.3859    5.9972   18.8923 Cl      1  UNL1       -0.0805
     34 C          -6.2685    5.0138   20.3731 C.3     1  UNL1        0.4200
     35 F          -7.7032    5.4377   20.4823 F       1  UNL1       -0.1658
     36 F          -6.5027    3.9543   21.4087 F       1  UNL1       -0.1658
     37 F          -6.0343    6.0733   19.3375 F       1  UNL1       -0.1658
@<TRIPOS>BOND
     1     9     8    1
     2     9     1    1
     3     1     2   ar
     4     2     3   ar
     5     3    23    1
     6    23    24   am
     7    24    25    2
     8    24    27    1
     9    27    28   ar
    10    28    29   ar
    11    29    30   ar
    12    30    34    1
    13    34    35    1
    14    34    36    1
    15    34    37    1
    16    30    31   ar
    17    31    32   ar
    18    32    33    1
    19     3     4   ar
    20     4     5   ar
    21     5     6   ar
    22     6     7    1
    23     9    10    1
    24    10    11    1
    25    11    12    1
    26    12    13    1
    27    12    19    1
    28    19    20    1
    29    19    21    1
    30    19    22    1
    31    12    14    1
    32    14    15    1
    33    14    16    2
    34    16     9    1
    35     6     1   ar
    36    32    27   ar
    37    23    26    1
    38    15    17    1
    39    15    18    1
@<TRIPOS>MOLECULE
*****
 37 39 0 0 0
SMALL
GASTEIGER

@<TRIPOS>ATOM
      1 C         -16.4878    1.2254   19.4211 C.ar    1  UNL1        0.1341
      2 N         -15.4661    0.1308   19.3319 N.ar    1  UNL1       -0.2284
      3 C         -15.2762   -0.6146   18.0442 C.ar    1  UNL1        0.1343
      4 C         -16.1081   -0.2656   16.8458 C.ar    1  UNL1        0.0368
      5 C         -17.1298    0.8290   16.9351 C.ar    1  UNL1        0.0339
      6 C         -17.3197    1.5744   18.2227 C.ar    1  UNL1        0.1578
      7 F         -18.3414    2.6690   18.3121 F       1  UNL1       -0.2028
      8 C         -17.7042    0.8905   20.8795 C.3     1  UNL1        0.0624
      9 C         -16.6777    1.9709   20.7089 C.3     1  UNL1        0.2382
     10 C         -15.5853    2.7924   20.0910 C.3     1  UNL1        0.1975
     11 O         -15.0393    3.9841   20.8201 O.3     1  UNL1       -0.3357
     12 C         -15.5858    4.3544   22.1671 C.3     1  UNL1        0.2740
     13 C         -15.7757    5.0999   23.4548 C.3     1  UNL1        0.0512
     14 C         -16.6782    3.5329   22.7850 C.2     1  UNL1        0.3218
     15 N         -17.2246    3.9032   24.1320 N.pl3   1  UNL1       -0.2480
     16 N         -17.2242    2.3412   22.0559 N.2     1  UNL1       -0.0676
     17 H         -16.8662    4.6854   24.6105 H       1  UNL1        0.2882
     18 H         -17.9416    3.3641   24.5375 H       1  UNL1        0.2882
     19 C         -14.5593    5.4348   21.9964 C.3     1  UNL1        0.4305
     20 F         -13.5328    6.5152   21.8258 F       1  UNL1       -0.1670
     21 F         -13.6560    4.7295   22.9644 F       1  UNL1       -0.1670
     22 F         -15.4625    6.1400   21.0286 F       1  UNL1       -0.1670
     23 N         -14.2544   -1.7092   17.9548 N.am    1  UNL1       -0.2645
     24 C         -14.0023   -2.5981   19.1365 C.2     1  UNL1        0.2691
     25 O         -14.7720   -2.3924   20.4075 O.2     1  UNL1       -0.2681
     26 H         -13.7493   -1.8442   17.1207 H       1  UNL1        0.1566
     27 C         -12.9806   -3.6927   19.0472 C.ar    1  UNL1        0.1453
     28 N         -13.4145   -5.1282   19.0796 N.ar    1  UNL1       -0.2384
     29 C         -12.3927   -6.2227   18.9903 C.ar    1  UNL1        0.1029
     30 C         -10.9371   -5.8818   18.8687 C.ar    1  UNL1        0.0914
     31 C         -10.5032   -4.4463   18.8363 C.ar    1  UNL1        0.0185
     32 C         -11.5249   -3.3517   18.9255 C.ar    1  UNL1        0.0797
     33 CL        -11.0910   -1.9162   18.8932 Cl      1  UNL1       -0.0805
     34 C          -9.9154   -6.9763   18.7794 C.3     1  UNL1        0.4200
     35 F          -8.8937   -8.0710   18.6901 F       1  UNL1       -0.1658
     36 F          -8.9959   -6.1904   19.6663 F       1  UNL1       -0.1658
     37 F         -10.8349   -7.7623   17.8925 F       1  UNL1       -0.1658
@<TRIPOS>BOND
     1     9     8    1
     2     9     1    1
     3     1     2   ar
     4     2     3   ar
     5     3    23    1
     6    23    24   am
     7    24    25    2
     8    24    27    1
     9    27    28   ar
    10    28    29   ar
    11    29    30   ar
    12    30    34    1
    13    34    35    1
    14    34    36    1
    15    34    37    1
    16    30    31   ar
    17    31    32   ar
    18    32    33    1
    19     3     4   ar
    20     4     5   ar
    21     5     6   ar
    22     6     7    1
    23     9    10    1
    24    10    11    1
    25    11    12    1
    26    12    13    1
    27    12    19    1
    28    19    20    1
    29    19    21    1
    30    19    22    1
    31    12    14    1
    32    14    15    1
    33    14    16    2
    34    16     9    1
    35     6     1   ar
    36    32    27   ar
    37    23    26    1
    38    15    17    1
    39    15    18    1
@<TRIPOS>MOLECULE
*****
 37 39 0 0 0
SMALL
GASTEIGER

@<TRIPOS>ATOM
      1 C           2.5936    0.5916   20.0536 C.ar    1  UNL1        0.1341
      2 N           1.5538    0.9400   21.0769 N.ar    1  UNL1       -0.2284
      3 C           0.3599    1.7588   20.6843 C.ar    1  UNL1        0.1343
      4 C           0.2060    2.2293   19.2683 C.ar    1  UNL1        0.0368
      5 C           1.2459    1.8808   18.2450 C.ar    1  UNL1        0.0339
      6 C           2.4397    1.0620   18.6376 C.ar    1  UNL1        0.1578
      7 F           3.4797    0.7135   17.6143 F       1  UNL1       -0.2028
      8 C           4.2241    1.1214   20.9365 C.3     1  UNL1        0.0624
      9 C           3.7875   -0.2273   20.4463 C.3     1  UNL1        0.2382
     10 C           2.9364   -1.2916   19.8197 C.3     1  UNL1        0.1975
     11 O           3.4306   -2.7064   19.7560 O.3     1  UNL1       -0.3357
     12 C           4.7762   -3.0569   20.3189 C.3     1  UNL1        0.2740
     13 C           5.9700   -3.8757   20.7116 C.3     1  UNL1        0.0512
     14 C           5.6273   -1.9925   20.9455 C.2     1  UNL1        0.3218
     15 N           6.9729   -2.3430   21.5084 N.pl3   1  UNL1       -0.2480
     16 N           5.1331   -0.5778   21.0092 N.2     1  UNL1       -0.0676
     17 H           7.2973   -3.2715   21.4666 H       1  UNL1        0.2882
     18 H           7.5315   -1.6444   21.9196 H       1  UNL1        0.2882
     19 C           4.3396   -4.4056   19.8287 C.3     1  UNL1        0.4305
     20 F           3.9030   -5.7544   19.3385 F       1  UNL1       -0.1670
     21 F           3.8005   -4.7264   21.1913 F       1  UNL1       -0.1670
     22 F           4.8786   -4.0848   18.4662 F       1  UNL1       -0.1670
     23 N          -0.6800    2.1073   21.7076 N.am    1  UNL1       -0.2645
     24 C          -0.5902    3.4037   22.4567 C.2     1  UNL1        0.2691
     25 O           0.5395    4.3517   22.1825 O.2     1  UNL1       -0.2681
     26 H          -1.4215    1.4851   21.8875 H       1  UNL1        0.1566
     27 C          -1.6301    3.7522   23.4800 C.ar    1  UNL1        0.1453
     28 N          -2.7624    4.6668   23.1173 N.ar    1  UNL1       -0.2384
     29 C          -3.8023    5.0152   24.1407 C.ar    1  UNL1        0.1029
     30 C          -3.7099    4.4492   25.5267 C.ar    1  UNL1        0.0914
     31 C          -2.5776    3.5346   25.8894 C.ar    1  UNL1        0.0185
     32 C          -1.5378    3.1861   24.8661 C.ar    1  UNL1        0.0797
     33 CL         -0.4055    2.2716   25.2288 Cl      1  UNL1       -0.0805
     34 C          -4.7498    4.7976   26.5500 C.3     1  UNL1        0.4200
     35 F          -5.7898    5.1461   27.5733 F       1  UNL1       -0.1658
     36 F          -3.6688    5.1330   27.5343 F       1  UNL1       -0.1658
     37 F          -5.8308    4.4623   25.5656 F       1  UNL1       -0.1658
@<TRIPOS>BOND
     1     9     8    1
     2     9     1    1
     3     1     2   ar
     4     2     3   ar
     5     3    23    1
     6    23    24   am
     7    24    25    2
     8    24    27    1
     9    27    28   ar
    10    28    29   ar
    11    29    30   ar
    12    30    34    1
    13    34    35    1
    14    34    36    1
    15    34    37    1
    16    30    31   ar
    17    31    32   ar
    18    32    33    1
    19     3     4   ar
    20     4     5   ar
    21     5     6   ar
    22     6     7    1
    23     9    10    1
    24    10    11    1
    25    11    12    1
    26    12    13    1
    27    12    19    1
    28    19    20    1
    29    19    21    1
    30    19    22    1
    31    12    14    1
    32    14    15    1
    33    14    16    2
    34    16     9    1
    35     6     1   ar
    36    32    27   ar
    37    23    26    1
    38    15    17    1
    39    15    18    1
@<TRIPOS>MOLECULE
*****
 37 39 0 0 0
SMALL
GASTEIGER

@<TRIPOS>ATOM
      1 C           2.6557    1.4565   29.9183 C.ar    1  UNL1        0.1341
      2 N           2.7727    0.7641   28.5929 N.ar    1  UNL1       -0.2284
      3 C           1.7050    0.9456   27.5551 C.ar    1  UNL1        0.1343
      4 C           0.5203    1.8195   27.8428 C.ar    1  UNL1        0.0368
      5 C           0.4033    2.5120   29.1682 C.ar    1  UNL1        0.0339
      6 C           1.4710    2.3305   30.2060 C.ar    1  UNL1        0.1578
      7 F           1.3541    3.0230   31.5315 F       1  UNL1       -0.2028
      8 C           4.0675    2.6504   30.4662 C.3     1  UNL1        0.0624
      9 C           3.7234    1.2751   30.9562 C.3     1  UNL1        0.2382
     10 C           3.0086   -0.0372   31.0857 C.3     1  UNL1        0.1975
     11 O           3.4809   -1.0533   32.0829 O.3     1  UNL1       -0.3357
     12 C           4.6681   -0.7571   32.9506 C.3     1  UNL1        0.2740
     13 C           5.7358   -0.9385   33.9884 C.3     1  UNL1        0.0512
     14 C           5.3830    0.5552   32.8210 C.2     1  UNL1        0.3218
     15 N           6.5702    0.8514   33.6887 N.pl3   1  UNL1       -0.2480
     16 N           4.9107    1.5713   31.8238 N.2     1  UNL1       -0.0676
     17 H           6.8802    0.1845   34.3432 H       1  UNL1        0.2882
     18 H           7.0394    1.7127   33.6037 H       1  UNL1        0.2882
     19 C           4.3241   -2.1325   33.4406 C.3     1  UNL1        0.4305
     20 F           3.9800   -3.5079   33.9306 F       1  UNL1       -0.1670
     21 F           3.9356   -1.5610   34.7720 F       1  UNL1       -0.1670
     22 F           4.7125   -2.7039   32.1092 F       1  UNL1       -0.1670
     23 N           1.8219    0.2531   26.2296 N.am    1  UNL1       -0.2645
     24 C           2.7795    0.7681   25.1963 C.2     1  UNL1        0.2691
     25 O           3.6202    1.9756   25.4885 O.2     1  UNL1       -0.2681
     26 H           1.2701   -0.5394   26.0379 H       1  UNL1        0.1566
     27 C           2.8965    0.0757   23.8709 C.ar    1  UNL1        0.1453
     28 N           2.1858    0.6280   22.6709 N.ar    1  UNL1       -0.2384
     29 C           2.3028   -0.0645   21.3454 C.ar    1  UNL1        0.1029
     30 C           3.1304   -1.3092   21.2200 C.ar    1  UNL1        0.0914
     31 C           3.8411   -1.8615   22.4199 C.ar    1  UNL1        0.0185
     32 C           3.7241   -1.1691   23.7454 C.ar    1  UNL1        0.0797
     33 CL          4.4347   -1.7214   24.9454 Cl      1  UNL1       -0.0805
     34 C           3.2474   -2.0016   19.8945 C.3     1  UNL1        0.4200
     35 F           3.3643   -2.6940   18.5690 F       1  UNL1       -0.1658
     36 F           3.8389   -3.2012   20.5734 F       1  UNL1       -0.1658
     37 F           2.6558   -0.8020   19.2156 F       1  UNL1       -0.1658
@<TRIPOS>BOND
     1     9     8    1
     2     9     1    1
     3     1     2   ar
     4     2     3   ar
     5     3    23    1
     6    23    24   am
     7    24    25    2
     8    24    27    1
     9    27    28   ar
    10    28    29   ar
    11    29    30   ar
    12    30    34    1
    13    34    35    1
    14    34    36    1
    15    34    37    1
    16    30    31   ar
    17    31    32   ar
    18    32    33    1
    19     3     4   ar
    20     4     5   ar
    21     5     6   ar
    22     6     7    1
    23     9    10    1
    24    10    11    1
    25    11    12    1
    26    12    13    1
    27    12    19    1
    28    19    20    1
    29    19    21    1
    30    19    22    1
    31    12    14    1
    32    14    15    1
    33    14    16    2
    34    16     9    1
    35     6     1   ar
    36    32    27   ar
    37    23    26    1
    38    15    17    1
    39    15    18    1
@<TRIPOS>MOLECULE
*****
 37 39 0 0 0
SMALL
GASTEIGER

@<TRIPOS>ATOM
      1 C          -1.8155    3.9642   22.3359 C.ar    1  UNL1        0.1341
      2 N          -0.6510    3.2814   21.6818 N.ar    1  UNL1       -0.2284
      3 C           0.2584    2.4074   22.4935 C.ar    1  UNL1        0.1343
      4 C           0.0034    2.2161   23.9592 C.ar    1  UNL1        0.0368
      5 C          -1.1611    2.8988   24.6133 C.ar    1  UNL1        0.0339
      6 C          -2.0705    3.7729   23.8016 C.ar    1  UNL1        0.1578
      7 F          -3.2351    4.4557   24.4556 F       1  UNL1       -0.2028
      8 C          -1.7994    5.8763   22.0862 C.3     1  UNL1        0.0624
      9 C          -2.7250    4.8383   21.5242 C.3     1  UNL1        0.2382
     10 C          -3.3347    3.4968   21.2440 C.3     1  UNL1        0.1975
     11 O          -4.5325    3.3898   20.3474 O.3     1  UNL1       -0.3357
     12 C          -5.1205    4.6245   19.7309 C.3     1  UNL1        0.2740
     13 C          -6.0299    5.4986   18.9193 C.3     1  UNL1        0.0512
     14 C          -4.5108    5.9660   20.0111 C.2     1  UNL1        0.3218
     15 N          -5.0988    7.2006   19.3946 N.pl3   1  UNL1       -0.2480
     16 N          -3.3130    6.0729   20.9077 N.2     1  UNL1       -0.0676
     17 H          -5.8849    7.1304   18.8061 H       1  UNL1        0.2882
     18 H          -4.6986    8.0811   19.5785 H       1  UNL1        0.2882
     19 C          -6.0461    3.5865   19.1688 C.3     1  UNL1        0.4305
     20 F          -6.9717    2.5485   18.6068 F       1  UNL1       -0.1670
     21 F          -5.0083    3.2112   18.1528 F       1  UNL1       -0.1670
     22 F          -7.0838    3.9618   20.1848 F       1  UNL1       -0.1670
     23 N           1.4229    1.7245   21.8395 N.am    1  UNL1       -0.2645
     24 C           1.1868    0.6252   20.8467 C.2     1  UNL1        0.2691
     25 O          -0.2138    0.2086   20.5080 O.2     1  UNL1       -0.2681
     26 H           2.3422    1.9980   22.0618 H       1  UNL1        0.1566
     27 C           2.3513   -0.0577   20.1927 C.ar    1  UNL1        0.1453
     28 N           2.9684   -1.2658   20.8326 N.ar    1  UNL1       -0.2384
     29 C           4.1329   -1.9486   20.1785 C.ar    1  UNL1        0.1029
     30 C           4.6802   -1.4233   18.8846 C.ar    1  UNL1        0.0914
     31 C           4.0631   -0.2151   18.2447 C.ar    1  UNL1        0.0185
     32 C           2.8987    0.4677   18.8987 C.ar    1  UNL1        0.0797
     33 CL          2.2816    1.6759   18.2588 Cl      1  UNL1       -0.0805
     34 C           5.8447   -2.1061   18.2306 C.3     1  UNL1        0.4200
     35 F           7.0092   -2.7889   17.5765 F       1  UNL1       -0.1658
     36 F           5.0678   -3.3884   18.1860 F       1  UNL1       -0.1658
     37 F           6.6216   -0.8238   18.2751 F       1  UNL1       -0.1658
@<TRIPOS>BOND
     1     9     8    1
     2     9     1    1
     3     1     2   ar
     4     2     3   ar
     5     3    23    1
     6    23    24   am
     7    24    25    2
     8    24    27    1
     9    27    28   ar
    10    28    29   ar
    11    29    30   ar
    12    30    34    1
    13    34    35    1
    14    34    36    1
    15    34    37    1
    16    30    31   ar
    17    31    32   ar
    18    32    33    1
    19     3     4   ar
    20     4     5   ar
    21     5     6   ar
    22     6     7    1
    23     9    10    1
    24    10    11    1
    25    11    12    1
    26    12    13    1
    27    12    19    1
    28    19    20    1
    29    19    21    1
    30    19    22    1
    31    12    14    1
    32    14    15    1
    33    14    16    2
    34    16     9    1
    35     6     1   ar
    36    32    27   ar
    37    23    26    1
    38    15    17    1
    39    15    18    1
@<TRIPOS>MOLECULE
*****
 37 39 0 0 0
SMALL
GASTEIGER

@<TRIPOS>ATOM
      1 C           3.0071    0.9440   20.2301 C.ar    1  UNL1        0.1341
      2 N           1.6254    1.1498   20.7764 N.ar    1  UNL1       -0.2284
      3 C           1.2241    2.4908   21.3154 C.ar    1  UNL1        0.1343
      4 C           2.2044    3.6261   21.3081 C.ar    1  UNL1        0.0368
      5 C           3.5861    3.4203   20.7618 C.ar    1  UNL1        0.0339
      6 C           3.9874    2.0793   20.2227 C.ar    1  UNL1        0.1578
      7 F           5.3692    1.8735   19.6764 F       1  UNL1       -0.2028
      8 C           2.7576    0.1891   18.4732 C.3     1  UNL1        0.0624
      9 C           3.4084   -0.3970   19.6910 C.3     1  UNL1        0.2382
     10 C           3.9198   -0.5174   21.0960 C.3     1  UNL1        0.1975
     11 O           4.6066   -1.7752   21.5390 O.3     1  UNL1       -0.3357
     12 C           4.7819   -2.9127   20.5770 C.3     1  UNL1        0.2740
     13 C           5.1832   -4.2537   20.0379 C.3     1  UNL1        0.0512
     14 C           4.2705   -2.7923   19.1720 C.2     1  UNL1        0.3218
     15 N           4.4459   -3.9298   18.2100 N.pl3   1  UNL1       -0.2480
     16 N           3.5838   -1.5345   18.7290 N.2     1  UNL1       -0.0676
     17 H           4.8966   -4.7554   18.5007 H       1  UNL1        0.2882
     18 H           4.1102   -3.8508   17.2879 H       1  UNL1        0.2882
     19 C           5.4327   -3.4988   21.7948 C.3     1  UNL1        0.4305
     20 F           6.0835   -4.0849   23.0126 F       1  UNL1       -0.1670
     21 F           4.0949   -3.9705   22.2826 F       1  UNL1       -0.1670
     22 F           6.7704   -3.0271   21.3069 F       1  UNL1       -0.1670
     23 N          -0.1577    2.6966   21.8618 N.am    1  UNL1       -0.2645
     24 C          -1.1843    3.4284   21.0489 C.2     1  UNL1        0.2691
     25 O          -0.8291    3.9543   19.6898 O.2     1  UNL1       -0.2681
     26 H          -0.3908    2.3514   22.7538 H       1  UNL1        0.1566
     27 C          -2.5660    3.6342   21.5952 C.ar    1  UNL1        0.1453
     28 N          -3.7211    2.8683   21.0216 N.ar    1  UNL1       -0.2384
     29 C          -5.1029    3.0742   21.5679 C.ar    1  UNL1        0.1029
     30 C          -5.3294    4.0459   22.6879 C.ar    1  UNL1        0.0914
     31 C          -4.1743    4.8118   23.2616 C.ar    1  UNL1        0.0185
     32 C          -2.7926    4.6060   22.7153 C.ar    1  UNL1        0.0797
     33 CL         -1.6375    5.3719   23.2889 Cl      1  UNL1       -0.0805
     34 C          -6.7111    4.2518   23.2342 C.3     1  UNL1        0.4200
     35 F          -8.0929    4.4576   23.7805 F       1  UNL1       -0.1658
     36 F          -6.2060    3.9697   24.6181 F       1  UNL1       -0.1658
     37 F          -7.2163    4.5339   21.8503 F       1  UNL1       -0.1658
@<TRIPOS>BOND
     1     9     8    1
     2     9     1    1
     3     1     2   ar
     4     2     3   ar
     5     3    23    1
     6    23    24   am
     7    24    25    2
     8    24    27    1
     9    27    28   ar
    10    28    29   ar
    11    29    30   ar
    12    30    34    1
    13    34    35    1
    14    34    36    1
    15    34    37    1
    16    30    31   ar
    17    31    32   ar
    18    32    33    1
    19     3     4   ar
    20     4     5   ar
    21     5     6   ar
    22     6     7    1
    23     9    10    1
    24    10    11    1
    25    11    12    1
    26    12    13    1
    27    12    19    1
    28    19    20    1
    29    19    21    1
    30    19    22    1
    31    12    14    1
    32    14    15    1
    33    14    16    2
    34    16     9    1
    35     6     1   ar
    36    32    27   ar
    37    23    26    1
    38    15    17    1
    39    15    18    1
