@<TRIPOS>MOLECULE
*****
 33 36 0 0 0
SMALL
GASTEIGER

@<TRIPOS>ATOM
      1 C           2.4176   -0.6199   20.1624 C.3     1  UNL1        0.0342
      2 C           3.1888   -1.4839   21.1156 C.ar    1  UNL1        0.0127
      3 C           3.2085   -1.1543   22.5787 C.ar    1  UNL1        0.0070
      4 C           3.9797   -2.0183   23.5319 C.ar    1  UNL1        0.0419
      5 C           4.7313   -3.2120   23.0220 C.ar    1  UNL1        0.0113
      6 C           4.7117   -3.5417   21.5588 C.ar    1  UNL1        0.0372
      7 C           3.9404   -2.6776   20.6056 C.ar    1  UNL1        0.1346
      8 C           3.9993   -1.6886   24.9952 C.1     1  UNL1       -0.0583
      9 C           4.0189   -1.3589   26.4583 C.1     1  UNL1       -0.0405
     10 C           4.0385   -1.0292   27.9216 C.ar    1  UNL1        0.1228
     11 C           5.3437   -0.7751   28.6157 C.ar    1  UNL1        0.0276
     12 C           5.3634   -0.4454   30.0788 C.ar    1  UNL1        0.0037
     13 C           4.0778   -0.3698   30.8479 C.ar    1  UNL1        0.0192
     14 C           2.7725   -0.6239   30.1538 C.ar    1  UNL1        0.0995
     15 N           2.7529   -0.9536   28.6906 N.ar    1  UNL1       -0.2356
     16 C           4.0974   -0.0401   32.3111 C.ar    1  UNL1        0.0016
     17 C           3.3943    1.1862   32.8131 C.ar    1  UNL1        0.0009
     18 C           3.4138    1.5159   34.2762 C.ar    1  UNL1        0.0114
     19 C           4.1365    0.6194   35.2374 C.ar    1  UNL1        0.0577
     20 CL          4.1561    0.9492   36.7006 Cl      1  UNL1       -0.0822
     21 C           4.8396   -0.6068   34.7355 C.ar    1  UNL1        0.0114
     22 C           4.8201   -0.9366   33.2723 C.ar    1  UNL1        0.0009
     23 O           3.9208   -3.0074   19.1424 O.3     1  UNL1       -0.4743
     24 C           5.1892   -3.4015   18.4454 C.3     1  UNL1        0.2226
     25 C           6.2944   -2.4014   18.2769 C.3     1  UNL1        0.1201
     26 N           6.0954   -0.9820   18.7192 N.3     1  UNL1       -0.2686
     27 C           6.6159   -0.3724   19.9870 C.3     1  UNL1        0.0723
     28 C           6.1831    1.0634   20.0228 C.3     1  UNL1        0.0188
     29 C           5.3950    1.3410   18.7770 C.3     1  UNL1        0.0199
     30 C           5.3408    0.0769   17.9714 C.3     1  UNL1        0.0871
     31 C           4.6528   -0.0976   16.6500 C.3     1  UNL1        0.1530
     32 O           3.7338   -1.2628   16.4308 O.3     1  UNL1       -0.3806
     33 H           4.2446   -2.0870   16.4579 H       1  UNL1        0.2105
@<TRIPOS>BOND
     1     1     2    1
     2     2     3   ar
     3     3     4   ar
     4     4     8    1
     5     8     9    3
     6     9    10    1
     7    10    11   ar
     8    11    12   ar
     9    12    13   ar
    10    13    16    1
    11    16    17   ar
    12    17    18   ar
    13    18    19   ar
    14    19    20    1
    15    19    21   ar
    16    21    22   ar
    17    13    14   ar
    18    14    15   ar
    19     4     5   ar
    20     5     6   ar
    21     6     7   ar
    22     7    23    1
    23    23    24    1
    24    24    25    1
    25    25    26    1
    26    26    27    1
    27    27    28    1
    28    28    29    1
    29    29    30    1
    30    30    31    1
    31    31    32    1
    32     7     2   ar
    33    30    26    1
    34    15    10   ar
    35    22    16   ar
    36    32    33    1
@<TRIPOS>MOLECULE
*****
 33 36 0 0 0
SMALL
GASTEIGER

@<TRIPOS>ATOM
      1 C           0.5136    5.0305   32.9460 C.3     1  UNL1        0.0342
      2 C           1.2702    3.7525   32.7352 C.ar    1  UNL1        0.0127
      3 C           1.4603    3.2135   31.3484 C.ar    1  UNL1        0.0070
      4 C           2.2170    1.9356   31.1376 C.ar    1  UNL1        0.0419
      5 C           2.7835    1.1967   32.3136 C.ar    1  UNL1        0.0113
      6 C           2.5933    1.7357   33.7004 C.ar    1  UNL1        0.0372
      7 C           1.8367    3.0136   33.9112 C.ar    1  UNL1        0.1346
      8 C           2.4071    1.3966   29.7507 C.1     1  UNL1       -0.0583
      9 C           2.5971    0.8576   28.3638 C.1     1  UNL1       -0.0405
     10 C           2.7873    0.3186   26.9769 C.ar    1  UNL1        0.1228
     11 C           3.7240   -0.8287   26.7401 C.ar    1  UNL1        0.0276
     12 C           3.9141   -1.3677   25.3533 C.ar    1  UNL1        0.0037
     13 C           3.1675   -0.7594   24.2033 C.ar    1  UNL1        0.0192
     14 C           2.2308    0.3880   24.4402 C.ar    1  UNL1        0.0995
     15 N           2.0406    0.9270   25.8270 N.ar    1  UNL1       -0.2356
     16 C           3.3576   -1.2984   22.8164 C.ar    1  UNL1        0.0016
     17 C           2.6405   -0.6653   21.6610 C.ar    1  UNL1        0.0009
     18 C           2.8306   -1.2043   20.2741 C.ar    1  UNL1        0.0114
     19 C           3.7378   -2.3762   20.0427 C.ar    1  UNL1        0.0577
     20 CL          3.9279   -2.9152   18.6558 Cl      1  UNL1       -0.0822
     21 C           4.4548   -3.0092   21.1982 C.ar    1  UNL1        0.0114
     22 C           4.2648   -2.4703   22.5850 C.ar    1  UNL1        0.0009
     23 O           1.6466    3.5526   35.2981 O.3     1  UNL1       -0.4743
     24 C           2.8381    3.9492   36.1185 C.3     1  UNL1        0.2226
     25 C           2.7698    3.8935   37.6159 C.3     1  UNL1        0.1201
     26 N           2.1237    2.7220   38.2942 N.3     1  UNL1       -0.2686
     27 C           0.7615    2.7079   38.9221 C.3     1  UNL1        0.0723
     28 C           0.5223    1.3360   39.4796 C.3     1  UNL1        0.0188
     29 C           1.7366    0.5023   39.1962 C.3     1  UNL1        0.0199
     30 C           2.7263    1.3589   38.4636 C.3     1  UNL1        0.0871
     31 C           4.0809    0.9279   37.9845 C.3     1  UNL1        0.1530
     32 O           4.2833    0.5518   36.5466 O.3     1  UNL1       -0.3806
     33 H           3.7778   -0.2520   36.3484 H       1  UNL1        0.2105
@<TRIPOS>BOND
     1     1     2    1
     2     2     3   ar
     3     3     4   ar
     4     4     8    1
     5     8     9    3
     6     9    10    1
     7    10    11   ar
     8    11    12   ar
     9    12    13   ar
    10    13    16    1
    11    16    17   ar
    12    17    18   ar
    13    18    19   ar
    14    19    20    1
    15    19    21   ar
    16    21    22   ar
    17    13    14   ar
    18    14    15   ar
    19     4     5   ar
    20     5     6   ar
    21     6     7   ar
    22     7    23    1
    23    23    24    1
    24    24    25    1
    25    25    26    1
    26    26    27    1
    27    27    28    1
    28    28    29    1
    29    29    30    1
    30    30    31    1
    31    31    32    1
    32     7     2   ar
    33    30    26    1
    34    15    10   ar
    35    22    16   ar
    36    32    33    1
@<TRIPOS>MOLECULE
*****
 33 36 0 0 0
SMALL
GASTEIGER

@<TRIPOS>ATOM
      1 C          -7.4134    5.8679   19.6237 C.3     1  UNL1        0.0342
      2 C          -6.5734    5.1940   20.6678 C.ar    1  UNL1        0.0127
      3 C          -5.2815    4.5367   20.2817 C.ar    1  UNL1        0.0070
      4 C          -4.4415    3.8627   21.3258 C.ar    1  UNL1        0.0419
      5 C          -4.8933    3.8460   22.7560 C.ar    1  UNL1        0.0113
      6 C          -6.1852    4.5033   23.1421 C.ar    1  UNL1        0.0372
      7 C          -7.0252    5.1772   22.0980 C.ar    1  UNL1        0.1346
      8 C          -3.1496    3.2055   20.9396 C.1     1  UNL1       -0.0583
      9 C          -1.8578    2.5482   20.5535 C.1     1  UNL1       -0.0405
     10 C          -0.5659    1.8909   20.1673 C.ar    1  UNL1        0.1228
     11 C           0.3795    2.5863   19.2331 C.ar    1  UNL1        0.0276
     12 C           1.6713    1.9291   18.8469 C.ar    1  UNL1        0.0037
     13 C           2.0178    0.5765   19.3950 C.ar    1  UNL1        0.0192
     14 C           1.0725   -0.1188   20.3292 C.ar    1  UNL1        0.0995
     15 N          -0.2193    0.5384   20.7154 N.ar    1  UNL1       -0.2356
     16 C           3.3097   -0.0807   19.0088 C.ar    1  UNL1        0.0016
     17 C           3.6286   -1.4588   19.5080 C.ar    1  UNL1        0.0009
     18 C           4.9204   -2.1161   19.1218 C.ar    1  UNL1        0.0114
     19 C           5.8934   -1.3953   18.2366 C.ar    1  UNL1        0.0577
     20 CL          7.1853   -2.0525   17.8504 Cl      1  UNL1       -0.0822
     21 C           5.5745   -0.0172   17.7374 C.ar    1  UNL1        0.0114
     22 C           4.2827    0.6401   18.1235 C.ar    1  UNL1        0.0009
     23 O          -8.3171    5.8345   22.4842 O.3     1  UNL1       -0.4743
     24 C          -8.3917    6.6683   23.7288 C.3     1  UNL1        0.2226
     25 C          -9.1562    6.1713   24.9199 C.3     1  UNL1        0.1201
     26 N         -10.6384    5.9616   24.8255 N.3     1  UNL1       -0.2686
     27 C         -11.6858    7.0342   24.8774 C.3     1  UNL1        0.0723
     28 C         -13.0282    6.3780   24.7467 C.3     1  UNL1        0.0188
     29 C         -12.8106    4.8998   24.6139 C.3     1  UNL1        0.0199
     30 C         -11.3336    4.6425   24.6626 C.3     1  UNL1        0.0871
     31 C         -10.6686    3.3015   24.5655 C.3     1  UNL1        0.1530
     32 O          -9.4144    3.1429   23.7582 O.3     1  UNL1       -0.3806
     33 H          -9.6120    3.2942   22.8206 H       1  UNL1        0.2105
@<TRIPOS>BOND
     1     1     2    1
     2     2     3   ar
     3     3     4   ar
     4     4     8    1
     5     8     9    3
     6     9    10    1
     7    10    11   ar
     8    11    12   ar
     9    12    13   ar
    10    13    16    1
    11    16    17   ar
    12    17    18   ar
    13    18    19   ar
    14    19    20    1
    15    19    21   ar
    16    21    22   ar
    17    13    14   ar
    18    14    15   ar
    19     4     5   ar
    20     5     6   ar
    21     6     7   ar
    22     7    23    1
    23    23    24    1
    24    24    25    1
    25    25    26    1
    26    26    27    1
    27    27    28    1
    28    28    29    1
    29    29    30    1
    30    30    31    1
    31    31    32    1
    32     7     2   ar
    33    30    26    1
    34    15    10   ar
    35    22    16   ar
    36    32    33    1
@<TRIPOS>MOLECULE
*****
 33 36 0 0 0
SMALL
GASTEIGER

@<TRIPOS>ATOM
      1 C           5.6629    2.6094   17.9671 C.3     1  UNL1        0.0342
      2 C           4.4776    1.7157   18.1823 C.ar    1  UNL1        0.0127
      3 C           3.2582    2.2420   18.8795 C.ar    1  UNL1        0.0070
      4 C           2.0728    1.3484   19.0946 C.ar    1  UNL1        0.0419
      5 C           2.1069   -0.0717   18.6127 C.ar    1  UNL1        0.0113
      6 C           3.3262   -0.5980   17.9156 C.ar    1  UNL1        0.0372
      7 C           4.5116    0.2957   17.7004 C.ar    1  UNL1        0.1346
      8 C           0.8534    1.8748   19.7918 C.1     1  UNL1       -0.0583
      9 C          -0.3659    2.4011   20.4890 C.1     1  UNL1       -0.0405
     10 C          -1.5854    2.9276   21.1861 C.ar    1  UNL1        0.1228
     11 C          -1.4609    3.5575   22.5418 C.ar    1  UNL1        0.0276
     12 C          -2.6803    4.0839   23.2389 C.ar    1  UNL1        0.0037
     13 C          -4.0240    3.9804   22.5805 C.ar    1  UNL1        0.0192
     14 C          -4.1484    3.3504   21.2249 C.ar    1  UNL1        0.0995
     15 N          -2.9291    2.8240   20.5277 N.ar    1  UNL1       -0.2356
     16 C          -5.2434    4.5068   23.2777 C.ar    1  UNL1        0.0016
     17 C          -5.0976    5.3515   24.5086 C.ar    1  UNL1        0.0009
     18 C          -6.3169    5.8779   25.2058 C.ar    1  UNL1        0.0114
     19 C          -7.6821    5.5597   24.6720 C.ar    1  UNL1        0.0577
     20 CL         -8.9015    6.0861   25.3691 Cl      1  UNL1       -0.0822
     21 C          -7.8279    4.7150   23.4410 C.ar    1  UNL1        0.0114
     22 C          -6.6086    4.1886   22.7438 C.ar    1  UNL1        0.0009
     23 O           5.7310   -0.2308   17.0032 O.3     1  UNL1       -0.4743
     24 C           6.8970   -0.7285   17.8048 C.3     1  UNL1        0.2226
     25 C           6.9649   -2.1700   18.2145 C.3     1  UNL1        0.1201
     26 N           5.8391   -2.7819   18.9942 N.3     1  UNL1       -0.2686
     27 C           4.9352   -3.8819   18.5220 C.3     1  UNL1        0.0723
     28 C           3.9569   -4.1811   19.6189 C.3     1  UNL1        0.0188
     29 C           4.2562   -3.2660   20.7692 C.3     1  UNL1        0.0199
     30 C           5.4194   -2.4012   20.3830 C.3     1  UNL1        0.0871
     31 C           6.0519   -1.3418   21.2360 C.3     1  UNL1        0.1530
     32 O           5.6319    0.0905   21.0875 O.3     1  UNL1       -0.3806
     33 H           5.8894    0.4137   20.2099 H       1  UNL1        0.2105
@<TRIPOS>BOND
     1     1     2    1
     2     2     3   ar
     3     3     4   ar
     4     4     8    1
     5     8     9    3
     6     9    10    1
     7    10    11   ar
     8    11    12   ar
     9    12    13   ar
    10    13    16    1
    11    16    17   ar
    12    17    18   ar
    13    18    19   ar
    14    19    20    1
    15    19    21   ar
    16    21    22   ar
    17    13    14   ar
    18    14    15   ar
    19     4     5   ar
    20     5     6   ar
    21     6     7   ar
    22     7    23    1
    23    23    24    1
    24    24    25    1
    25    25    26    1
    26    26    27    1
    27    27    28    1
    28    28    29    1
    29    29    30    1
    30    30    31    1
    31    31    32    1
    32     7     2   ar
    33    30    26    1
    34    15    10   ar
    35    22    16   ar
    36    32    33    1
@<TRIPOS>MOLECULE
*****
 33 36 0 0 0
SMALL
GASTEIGER

@<TRIPOS>ATOM
      1 C           7.8701   -5.3634   23.9169 C.3     1  UNL1        0.0342
      2 C           6.8563   -4.2950   24.2008 C.ar    1  UNL1        0.0127
      3 C           6.6667   -3.7942   25.6019 C.ar    1  UNL1        0.0070
      4 C           5.6528   -2.7258   25.8858 C.ar    1  UNL1        0.0419
      5 C           4.8285   -2.1582   24.7686 C.ar    1  UNL1        0.0113
      6 C           5.0181   -2.6590   23.3674 C.ar    1  UNL1        0.0372
      7 C           6.0320   -3.7274   23.0836 C.ar    1  UNL1        0.1346
      8 C           5.4632   -2.2251   27.2870 C.1     1  UNL1       -0.0583
      9 C           5.2736   -1.7244   28.6882 C.1     1  UNL1       -0.0405
     10 C           5.0840   -1.2236   30.0894 C.ar    1  UNL1        0.1228
     11 C           6.2394   -1.2165   31.0461 C.ar    1  UNL1        0.0276
     12 C           6.0499   -0.7157   32.4472 C.ar    1  UNL1        0.0037
     13 C           4.7050   -0.2221   32.8918 C.ar    1  UNL1        0.0192
     14 C           3.5497   -0.2292   31.9351 C.ar    1  UNL1        0.0995
     15 N           3.7392   -0.7300   30.5340 N.ar    1  UNL1       -0.2356
     16 C           4.5154    0.2787   34.2930 C.ar    1  UNL1        0.0016
     17 C           5.2068   -0.4065   35.4343 C.ar    1  UNL1        0.0009
     18 C           5.0173    0.0942   36.8354 C.ar    1  UNL1        0.0114
     19 C           4.1364    1.2801   37.0953 C.ar    1  UNL1        0.0577
     20 CL          3.9468    1.7809   38.4965 Cl      1  UNL1       -0.0822
     21 C           3.4449    1.9653   35.9540 C.ar    1  UNL1        0.0114
     22 C           3.6345    1.4645   34.5529 C.ar    1  UNL1        0.0009
     23 O           6.2216   -4.2282   21.6823 O.3     1  UNL1       -0.4743
     24 C           7.1110   -3.4815   20.7329 C.3     1  UNL1        0.2226
     25 C           6.5097   -2.6293   19.6549 C.3     1  UNL1        0.1201
     26 N           5.1519   -2.0222   19.8485 N.3     1  UNL1       -0.2686
     27 C           4.8689   -0.6063   20.2549 C.3     1  UNL1        0.0723
     28 C           3.3806   -0.4334   20.3274 C.3     1  UNL1        0.0188
     29 C           2.7438   -1.7426   19.9658 C.3     1  UNL1        0.0199
     30 C           3.8385   -2.7245   19.6699 C.3     1  UNL1        0.0871
     31 C           3.6525   -4.1571   19.2662 C.3     1  UNL1        0.1530
     32 O           3.7969   -5.2484   20.2853 O.3     1  UNL1       -0.3806
     33 H           4.7164   -5.2844   20.5923 H       1  UNL1        0.2105
@<TRIPOS>BOND
     1     1     2    1
     2     2     3   ar
     3     3     4   ar
     4     4     8    1
     5     8     9    3
     6     9    10    1
     7    10    11   ar
     8    11    12   ar
     9    12    13   ar
    10    13    16    1
    11    16    17   ar
    12    17    18   ar
    13    18    19   ar
    14    19    20    1
    15    19    21   ar
    16    21    22   ar
    17    13    14   ar
    18    14    15   ar
    19     4     5   ar
    20     5     6   ar
    21     6     7   ar
    22     7    23    1
    23    23    24    1
    24    24    25    1
    25    25    26    1
    26    26    27    1
    27    27    28    1
    28    28    29    1
    29    29    30    1
    30    30    31    1
    31    31    32    1
    32     7     2   ar
    33    30    26    1
    34    15    10   ar
    35    22    16   ar
    36    32    33    1
@<TRIPOS>MOLECULE
*****
 33 36 0 0 0
SMALL
GASTEIGER

@<TRIPOS>ATOM
      1 C           7.5485    1.1689   34.7988 C.3     1  UNL1        0.0342
      2 C           6.4753    0.2631   34.2718 C.ar    1  UNL1        0.0127
      3 C           6.3264    0.0576   32.7934 C.ar    1  UNL1        0.0070
      4 C           5.2532   -0.8482   32.2664 C.ar    1  UNL1        0.0419
      5 C           4.3289   -1.5485   33.2178 C.ar    1  UNL1        0.0113
      6 C           4.4778   -1.3430   34.6961 C.ar    1  UNL1        0.0372
      7 C           5.5510   -0.4372   35.2231 C.ar    1  UNL1        0.1346
      8 C           5.1044   -1.0537   30.7880 C.1     1  UNL1       -0.0583
      9 C           4.9556   -1.2591   29.3096 C.1     1  UNL1       -0.0405
     10 C           4.8067   -1.4646   27.8312 C.ar    1  UNL1        0.1228
     11 C           3.6618   -0.8315   27.0975 C.ar    1  UNL1        0.0276
     12 C           3.5129   -1.0369   25.6192 C.ar    1  UNL1        0.0037
     13 C           4.5090   -1.8755   24.8745 C.ar    1  UNL1        0.0192
     14 C           5.6539   -2.5086   25.6082 C.ar    1  UNL1        0.0995
     15 N           5.8028   -2.3032   27.0865 N.ar    1  UNL1       -0.2356
     16 C           4.3601   -2.0810   23.3961 C.ar    1  UNL1        0.0016
     17 C           5.0153   -3.2559   22.7324 C.ar    1  UNL1        0.0009
     18 C           4.8665   -3.4614   21.2541 C.ar    1  UNL1        0.0114
     19 C           4.0625   -2.4920   20.4393 C.ar    1  UNL1        0.0577
     20 CL          3.9137   -2.6975   18.9609 Cl      1  UNL1       -0.0822
     21 C           3.4073   -1.3171   21.1030 C.ar    1  UNL1        0.0114
     22 C           3.5561   -1.1116   22.5813 C.ar    1  UNL1        0.0009
     23 O           5.6998   -0.2317   36.7016 O.3     1  UNL1       -0.4743
     24 C           5.0343    0.9361   37.3672 C.3     1  UNL1        0.2226
     25 C           3.6740    1.3806   36.9174 C.3     1  UNL1        0.1201
     26 N           2.5628    1.5206   37.9152 N.3     1  UNL1       -0.2686
     27 C           2.1144    0.4711   38.8886 C.3     1  UNL1        0.0723
     28 C           0.9793    1.0366   39.6897 C.3     1  UNL1        0.0188
     29 C           0.7261    2.4356   39.2113 C.3     1  UNL1        0.0199
     30 C           1.7047    2.7347   38.1146 C.3     1  UNL1        0.0871
     31 C           1.8073    4.0219   37.3513 C.3     1  UNL1        0.1530
     32 O           1.4300    4.0656   35.9002 O.3     1  UNL1       -0.3806
     33 H           2.0505    3.5236   35.3883 H       1  UNL1        0.2105
@<TRIPOS>BOND
     1     1     2    1
     2     2     3   ar
     3     3     4   ar
     4     4     8    1
     5     8     9    3
     6     9    10    1
     7    10    11   ar
     8    11    12   ar
     9    12    13   ar
    10    13    16    1
    11    16    17   ar
    12    17    18   ar
    13    18    19   ar
    14    19    20    1
    15    19    21   ar
    16    21    22   ar
    17    13    14   ar
    18    14    15   ar
    19     4     5   ar
    20     5     6   ar
    21     6     7   ar
    22     7    23    1
    23    23    24    1
    24    24    25    1
    25    25    26    1
    26    26    27    1
    27    27    28    1
    28    28    29    1
    29    29    30    1
    30    30    31    1
    31    31    32    1
    32     7     2   ar
    33    30    26    1
    34    15    10   ar
    35    22    16   ar
    36    32    33    1
@<TRIPOS>MOLECULE
*****
 33 36 0 0 0
SMALL
GASTEIGER

@<TRIPOS>ATOM
      1 C           2.3767   -0.5088   20.0917 C.3     1  UNL1        0.0342
      2 C           3.1705   -1.3883   21.0117 C.ar    1  UNL1        0.0127
      3 C           3.1959   -1.1041   22.4843 C.ar    1  UNL1        0.0070
      4 C           3.9896   -1.9836   23.4043 C.ar    1  UNL1        0.0419
      5 C           4.7580   -3.1473   22.8518 C.ar    1  UNL1        0.0113
      6 C           4.7326   -3.4315   21.3792 C.ar    1  UNL1        0.0372
      7 C           3.9389   -2.5520   20.4592 C.ar    1  UNL1        0.1346
      8 C           4.0150   -1.6993   24.8770 C.1     1  UNL1       -0.0583
      9 C           4.0403   -1.4150   26.3496 C.1     1  UNL1       -0.0405
     10 C           4.0657   -1.1308   27.8222 C.ar    1  UNL1        0.1228
     11 C           2.8045   -0.7357   28.5316 C.ar    1  UNL1        0.0276
     12 C           2.8298   -0.4515   30.0042 C.ar    1  UNL1        0.0037
     13 C           4.1163   -0.5623   30.7674 C.ar    1  UNL1        0.0192
     14 C           5.3775   -0.9573   30.0580 C.ar    1  UNL1        0.0995
     15 N           5.3522   -1.2415   28.5854 N.ar    1  UNL1       -0.2356
     16 C           4.1417   -0.2780   32.2400 C.ar    1  UNL1        0.0016
     17 C           4.7624   -1.2649   33.1837 C.ar    1  UNL1        0.0009
     18 C           4.7878   -0.9807   34.6563 C.ar    1  UNL1        0.0114
     19 C           4.1924    0.2904   35.1852 C.ar    1  UNL1        0.0577
     20 CL          4.2177    0.5746   36.6578 Cl      1  UNL1       -0.0822
     21 C           3.5716    1.2773   34.2414 C.ar    1  UNL1        0.0114
     22 C           3.5462    0.9931   32.7688 C.ar    1  UNL1        0.0009
     23 O           3.9135   -2.8362   18.9865 O.3     1  UNL1       -0.4743
     24 C           5.1876   -3.1556   18.2623 C.3     1  UNL1        0.2226
     25 C           6.1455   -2.0564   17.9093 C.3     1  UNL1        0.1201
     26 N           5.8126   -0.6338   18.2488 N.3     1  UNL1       -0.2686
     27 C           5.0197    0.3134   17.3978 C.3     1  UNL1        0.0723
     28 C           4.9312    1.6240   18.1219 C.3     1  UNL1        0.0188
     29 C           5.6696    1.4868   19.4205 C.3     1  UNL1        0.0199
     30 C           6.2142    0.0914   19.4988 C.3     1  UNL1        0.0871
     31 C           7.0192   -0.4786   20.6289 C.3     1  UNL1        0.1530
     32 O           6.6772   -0.1258   22.0462 O.3     1  UNL1       -0.3806
     33 H           6.8392    0.8194   22.1922 H       1  UNL1        0.2105
@<TRIPOS>BOND
     1     1     2    1
     2     2     3   ar
     3     3     4   ar
     4     4     8    1
     5     8     9    3
     6     9    10    1
     7    10    11   ar
     8    11    12   ar
     9    12    13   ar
    10    13    16    1
    11    16    17   ar
    12    17    18   ar
    13    18    19   ar
    14    19    20    1
    15    19    21   ar
    16    21    22   ar
    17    13    14   ar
    18    14    15   ar
    19     4     5   ar
    20     5     6   ar
    21     6     7   ar
    22     7    23    1
    23    23    24    1
    24    24    25    1
    25    25    26    1
    26    26    27    1
    27    27    28    1
    28    28    29    1
    29    29    30    1
    30    30    31    1
    31    31    32    1
    32     7     2   ar
    33    30    26    1
    34    15    10   ar
    35    22    16   ar
    36    32    33    1
@<TRIPOS>MOLECULE
*****
 33 36 0 0 0
SMALL
GASTEIGER

@<TRIPOS>ATOM
      1 C           2.4673    0.9608   38.4720 C.3     1  UNL1        0.0342
      2 C           3.8143    1.0017   37.8133 C.ar    1  UNL1        0.0127
      3 C           4.0770    0.1728   36.5911 C.ar    1  UNL1        0.0070
      4 C           5.4240    0.2137   35.9324 C.ar    1  UNL1        0.0419
      5 C           6.5084    1.0836   36.4959 C.ar    1  UNL1        0.0113
      6 C           6.2457    1.9125   37.7181 C.ar    1  UNL1        0.0372
      7 C           4.8986    1.8716   38.3768 C.ar    1  UNL1        0.1346
      8 C           5.6867   -0.6153   34.7101 C.1     1  UNL1       -0.0583
      9 C           5.9493   -1.4443   33.4879 C.1     1  UNL1       -0.0405
     10 C           6.2120   -2.2732   32.2656 C.ar    1  UNL1        0.1228
     11 C           6.6448   -3.7024   32.4075 C.ar    1  UNL1        0.0276
     12 C           6.9074   -4.5314   31.1854 C.ar    1  UNL1        0.0037
     13 C           6.7373   -3.9312   29.8213 C.ar    1  UNL1        0.0192
     14 C           6.3046   -2.5020   29.6794 C.ar    1  UNL1        0.0995
     15 N           6.0419   -1.6730   30.9016 N.ar    1  UNL1       -0.2356
     16 C           7.0000   -4.7602   28.5990 C.ar    1  UNL1        0.0016
     17 C           7.5980   -6.1290   28.7355 C.ar    1  UNL1        0.0009
     18 C           7.8607   -6.9580   27.5133 C.ar    1  UNL1        0.0114
     19 C           7.5253   -6.4181   26.1547 C.ar    1  UNL1        0.0577
     20 CL          7.7880   -7.2471   24.9324 Cl      1  UNL1       -0.0822
     21 C           6.9273   -5.0493   26.0182 C.ar    1  UNL1        0.0114
     22 C           6.6647   -4.2203   27.2404 C.ar    1  UNL1        0.0009
     23 O           4.6360    2.7006   39.5990 O.3     1  UNL1       -0.4743
     24 C           5.7819    3.1879   40.4352 C.3     1  UNL1        0.2226
     25 C           5.8199    4.6145   40.8972 C.3     1  UNL1        0.1201
     26 N           5.3132    4.9746   42.2622 N.3     1  UNL1       -0.2686
     27 C           4.0760    5.7678   42.5626 C.3     1  UNL1        0.0723
     28 C           3.9528    5.8882   44.0527 C.3     1  UNL1        0.0188
     29 C           5.1139    5.1692   44.6732 C.3     1  UNL1        0.0199
     30 C           5.9546    4.6046   43.5667 C.3     1  UNL1        0.0871
     31 C           7.2154    3.8097   43.7351 C.3     1  UNL1        0.1530
     32 O           7.1467    2.3203   43.8999 O.3     1  UNL1       -0.3806
     33 H           6.7076    2.1077   44.7383 H       1  UNL1        0.2105
@<TRIPOS>BOND
     1     1     2    1
     2     2     3   ar
     3     3     4   ar
     4     4     8    1
     5     8     9    3
     6     9    10    1
     7    10    11   ar
     8    11    12   ar
     9    12    13   ar
    10    13    16    1
    11    16    17   ar
    12    17    18   ar
    13    18    19   ar
    14    19    20    1
    15    19    21   ar
    16    21    22   ar
    17    13    14   ar
    18    14    15   ar
    19     4     5   ar
    20     5     6   ar
    21     6     7   ar
    22     7    23    1
    23    23    24    1
    24    24    25    1
    25    25    26    1
    26    26    27    1
    27    27    28    1
    28    28    29    1
    29    29    30    1
    30    30    31    1
    31    31    32    1
    32     7     2   ar
    33    30    26    1
    34    15    10   ar
    35    22    16   ar
    36    32    33    1
@<TRIPOS>MOLECULE
*****
 33 36 0 0 0
SMALL
GASTEIGER

@<TRIPOS>ATOM
      1 C           5.3926   -3.8666   19.8133 C.3     1  UNL1        0.0342
      2 C           4.5450   -2.8492   20.5178 C.ar    1  UNL1        0.0127
      3 C           4.6399   -2.6954   22.0069 C.ar    1  UNL1        0.0070
      4 C           3.7923   -1.6780   22.7114 C.ar    1  UNL1        0.0419
      5 C           2.8496   -0.8144   21.9269 C.ar    1  UNL1        0.0113
      6 C           2.7546   -0.9682   20.4379 C.ar    1  UNL1        0.0372
      7 C           3.6023   -1.9856   19.7334 C.ar    1  UNL1        0.1346
      8 C           3.8873   -1.5243   24.2006 C.1     1  UNL1       -0.0583
      9 C           3.9824   -1.3706   25.6896 C.1     1  UNL1       -0.0405
     10 C           4.0774   -1.2168   27.1787 C.ar    1  UNL1        0.1228
     11 C           5.3661   -1.5215   27.8834 C.ar    1  UNL1        0.0276
     12 C           5.4611   -1.3678   29.3724 C.ar    1  UNL1        0.0037
     13 C           4.2676   -0.9094   30.1568 C.ar    1  UNL1        0.0192
     14 C           2.9789   -0.6047   29.4521 C.ar    1  UNL1        0.0995
     15 N           2.8839   -0.7584   27.9631 N.ar    1  UNL1       -0.2356
     16 C           4.3626   -0.7557   31.6459 C.ar    1  UNL1        0.0016
     17 C           4.5138    0.6085   32.2509 C.ar    1  UNL1        0.0009
     18 C           4.6088    0.7623   33.7399 C.ar    1  UNL1        0.0114
     19 C           4.5527   -0.4482   34.6240 C.ar    1  UNL1        0.0577
     20 CL          4.6477   -0.2944   36.1131 Cl      1  UNL1       -0.0822
     21 C           4.4015   -1.8124   34.0190 C.ar    1  UNL1        0.0114
     22 C           4.3064   -1.9662   32.5300 C.ar    1  UNL1        0.0009
     23 O           3.5073   -2.1393   18.2442 O.3     1  UNL1       -0.4743
     24 C           3.9023   -1.0045   17.3464 C.3     1  UNL1        0.2226
     25 C           5.2519   -0.3664   17.4936 C.3     1  UNL1        0.1201
     26 N           5.5812    0.4147   18.7310 N.3     1  UNL1       -0.2686
     27 C           6.5870    0.0297   19.7752 C.3     1  UNL1        0.0723
     28 C           6.5899    1.0951   20.8311 C.3     1  UNL1        0.0188
     29 C           5.5859    2.1385   20.4395 C.3     1  UNL1        0.0199
     30 C           4.9625    1.7180   19.1416 C.3     1  UNL1        0.0871
     31 C           3.9060    2.4690   18.3869 C.3     1  UNL1        0.1530
     32 O           2.4754    2.0229   18.4548 O.3     1  UNL1       -0.3806
     33 H           2.3877    1.1530   18.0346 H       1  UNL1        0.2105
@<TRIPOS>BOND
     1     1     2    1
     2     2     3   ar
     3     3     4   ar
     4     4     8    1
     5     8     9    3
     6     9    10    1
     7    10    11   ar
     8    11    12   ar
     9    12    13   ar
    10    13    16    1
    11    16    17   ar
    12    17    18   ar
    13    18    19   ar
    14    19    20    1
    15    19    21   ar
    16    21    22   ar
    17    13    14   ar
    18    14    15   ar
    19     4     5   ar
    20     5     6   ar
    21     6     7   ar
    22     7    23    1
    23    23    24    1
    24    24    25    1
    25    25    26    1
    26    26    27    1
    27    27    28    1
    28    28    29    1
    29    29    30    1
    30    30    31    1
    31    31    32    1
    32     7     2   ar
    33    30    26    1
    34    15    10   ar
    35    22    16   ar
    36    32    33    1
