@<TRIPOS>MOLECULE
*****
 25 28 0 0 0
SMALL
GASTEIGER

@<TRIPOS>ATOM
      1 C           6.3830   -3.9149   24.3127 C.ar    1  UNL1        0.1538
      2 C           5.4419   -2.7489   24.2435 C.ar    1  UNL1        0.1053
      3 N           4.9672   -2.6198   22.8264 N.ar    1  UNL1       -0.2873
      4 C           4.0289   -1.6535   22.1664 C.ar    1  UNL1        0.0829
      5 C           3.7382   -1.7735   20.6997 C.ar    1  UNL1        0.0353
      6 C           4.3859   -2.8597   19.8931 C.ar    1  UNL1        0.0061
      7 C           5.3243   -3.8260   20.5532 C.ar    1  UNL1        0.0375
      8 C           5.6149   -3.7060   22.0199 C.ar    1  UNL1        0.1480
      9 N           6.4899   -4.5064   22.9384 N.ar    1  UNL1       -0.2218
     10 C           2.7998   -0.8072   20.0396 C.ar    1  UNL1        0.0828
     11 C           1.4019   -0.6456   20.5590 C.ar    1  UNL1        0.0192
     12 C           0.4636    0.3207   19.8990 C.ar    1  UNL1        0.0031
     13 C           0.9230    1.1254   18.7193 C.ar    1  UNL1        0.0207
     14 C           2.3209    0.9638   18.1999 C.ar    1  UNL1        0.0988
     15 N           3.2593   -0.0025   18.8600 N.ar    1  UNL1       -0.2438
     16 O           8.5058   -3.9785   25.8093 O.2     1  UNL1       -0.2681
     17 C           7.0926   -4.4035   25.5406 C.2     1  UNL1        0.2688
     18 N           6.3890   -5.3171   26.4998 N.am    1  UNL1       -0.2791
     19 H           5.4614   -5.5961   26.3235 H       1  UNL1        0.1552
     20 C           7.0986   -5.8058   27.7277 C.ar    1  UNL1        0.0506
     21 C           6.7307   -5.2575   29.0747 C.ar    1  UNL1        0.0147
     22 C           7.4403   -5.7462   30.3026 C.ar    1  UNL1        0.0013
     23 C           8.5177   -6.7831   30.1835 C.ar    1  UNL1        0.0001
     24 C           8.8855   -7.3312   28.8366 C.ar    1  UNL1        0.0013
     25 C           8.1759   -6.8426   27.6087 C.ar    1  UNL1        0.0147
@<TRIPOS>BOND
     1    16    17    2
     2    17    18   am
     3    18    20    1
     4    20    21   ar
     5    21    22   ar
     6    22    23   ar
     7    23    24   ar
     8    24    25   ar
     9    17     1    1
    10     1     2   ar
    11     2     3   ar
    12     3     4   ar
    13     4     5   ar
    14     5    10    1
    15    10    11   ar
    16    11    12   ar
    17    12    13   ar
    18    13    14   ar
    19    14    15   ar
    20     5     6   ar
    21     6     7   ar
    22     7     8   ar
    23     8     9   ar
    24    25    20   ar
    25     9     1   ar
    26     8     3   ar
    27    15    10   ar
    28    18    19    1
@<TRIPOS>MOLECULE
*****
 25 28 0 0 0
SMALL
GASTEIGER

@<TRIPOS>ATOM
      1 C          -0.8554    2.7322   20.2036 C.ar    1  UNL1        0.1538
      2 C          -0.5156    1.2922   20.4503 C.ar    1  UNL1        0.1053
      3 N           0.8062    1.0098   19.7997 N.ar    1  UNL1       -0.2873
      4 C           1.6369   -0.2362   19.7142 C.ar    1  UNL1        0.0829
      5 C           2.9447   -0.2166   18.9799 C.ar    1  UNL1        0.0353
      6 C           3.4217    1.0488   18.3311 C.ar    1  UNL1        0.0061
      7 C           2.5910    2.2948   18.4165 C.ar    1  UNL1        0.0375
      8 C           1.2832    2.2753   19.1508 C.ar    1  UNL1        0.1480
      9 N           0.2563    3.3398   19.4005 N.ar    1  UNL1       -0.2218
     10 C           3.7756   -1.4627   18.8944 C.ar    1  UNL1        0.0828
     11 C           3.2453   -2.7564   19.4376 C.ar    1  UNL1        0.0192
     12 C           4.0761   -4.0024   19.3522 C.ar    1  UNL1        0.0031
     13 C           5.4372   -3.9546   18.7235 C.ar    1  UNL1        0.0207
     14 C           5.9674   -2.6609   18.1803 C.ar    1  UNL1        0.0988
     15 N           5.1366   -1.4149   18.2658 N.ar    1  UNL1       -0.2438
     16 O          -2.0184    4.8823   21.0838 O.2     1  UNL1       -0.2681
     17 C          -2.0902    3.4403   20.6769 C.2     1  UNL1        0.2688
     18 N          -3.3967    2.7065   20.7434 N.am    1  UNL1       -0.2791
     19 H          -3.4438    1.7601   20.4763 H       1  UNL1        0.1552
     20 C          -4.6314    3.4146   21.2167 C.ar    1  UNL1        0.0506
     21 C          -5.0302    3.3426   22.6609 C.ar    1  UNL1        0.0147
     22 C          -6.2649    4.0507   23.1342 C.ar    1  UNL1        0.0013
     23 C          -7.1009    4.8308   22.1633 C.ar    1  UNL1        0.0001
     24 C          -6.7020    4.9028   20.7191 C.ar    1  UNL1        0.0013
     25 C          -5.4673    4.1947   20.2458 C.ar    1  UNL1        0.0147
@<TRIPOS>BOND
     1    16    17    2
     2    17    18   am
     3    18    20    1
     4    20    21   ar
     5    21    22   ar
     6    22    23   ar
     7    23    24   ar
     8    24    25   ar
     9    17     1    1
    10     1     2   ar
    11     2     3   ar
    12     3     4   ar
    13     4     5   ar
    14     5    10    1
    15    10    11   ar
    16    11    12   ar
    17    12    13   ar
    18    13    14   ar
    19    14    15   ar
    20     5     6   ar
    21     6     7   ar
    22     7     8   ar
    23     8     9   ar
    24    25    20   ar
    25     9     1   ar
    26     8     3   ar
    27    15    10   ar
    28    18    19    1
@<TRIPOS>MOLECULE
*****
 25 28 0 0 0
SMALL
GASTEIGER

@<TRIPOS>ATOM
      1 C          -1.5797    2.8167   21.3313 C.ar    1  UNL1        0.1538
      2 C          -1.7519    3.4082   22.6990 C.ar    1  UNL1        0.1053
      3 N          -3.1848    3.8268   22.8459 N.ar    1  UNL1       -0.2873
      4 C          -3.9321    4.4681   23.9774 C.ar    1  UNL1        0.0829
      5 C          -5.3928    4.7765   23.8320 C.ar    1  UNL1        0.0353
      6 C          -6.1062    4.4437   22.5552 C.ar    1  UNL1        0.0061
      7 C          -5.3589    3.8024   21.4237 C.ar    1  UNL1        0.0375
      8 C          -3.8982    3.4940   21.5691 C.ar    1  UNL1        0.1480
      9 N          -2.9061    2.8697   20.6330 N.ar    1  UNL1       -0.2218
     10 C          -6.1402    5.4178   24.9635 C.ar    1  UNL1        0.0828
     11 C          -7.4864    6.0328   24.7200 C.ar    1  UNL1        0.0192
     12 C          -8.2338    6.6741   25.8514 C.ar    1  UNL1        0.0031
     13 C          -7.6350    6.7003   27.2265 C.ar    1  UNL1        0.0207
     14 C          -6.2887    6.0853   27.4700 C.ar    1  UNL1        0.0988
     15 N          -5.5413    5.4440   26.3385 N.ar    1  UNL1       -0.2438
     16 O           0.8701    3.1749   20.5438 O.2     1  UNL1       -0.2681
     17 C          -0.3048    2.2684   20.7620 C.2     1  UNL1        0.2688
     18 N          -0.2049    0.8135   20.4109 N.am    1  UNL1       -0.2791
     19 H          -0.9761    0.2185   20.5541 H       1  UNL1        0.1552
     20 C           1.0699    0.2652   19.8415 C.ar    1  UNL1        0.0506
     21 C           1.8943   -0.7000   20.6409 C.ar    1  UNL1        0.0147
     22 C           3.1691   -1.2483   20.0716 C.ar    1  UNL1        0.0013
     23 C           3.6196   -0.8314   18.7028 C.ar    1  UNL1        0.0001
     24 C           2.7952    0.1337   17.9035 C.ar    1  UNL1        0.0013
     25 C           1.5204    0.6820   18.4729 C.ar    1  UNL1        0.0147
@<TRIPOS>BOND
     1    16    17    2
     2    17    18   am
     3    18    20    1
     4    20    21   ar
     5    21    22   ar
     6    22    23   ar
     7    23    24   ar
     8    24    25   ar
     9    17     1    1
    10     1     2   ar
    11     2     3   ar
    12     3     4   ar
    13     4     5   ar
    14     5    10    1
    15    10    11   ar
    16    11    12   ar
    17    12    13   ar
    18    13    14   ar
    19    14    15   ar
    20     5     6   ar
    21     6     7   ar
    22     7     8   ar
    23     8     9   ar
    24    25    20   ar
    25     9     1   ar
    26     8     3   ar
    27    15    10   ar
    28    18    19    1
@<TRIPOS>MOLECULE
*****
 25 28 0 0 0
SMALL
GASTEIGER

@<TRIPOS>ATOM
      1 C          -0.8500    2.5133   20.2450 C.ar    1  UNL1        0.1538
      2 C          -0.4159    1.1850   20.7899 C.ar    1  UNL1        0.1053
      3 N           0.8575    0.7946   20.0999 N.ar    1  UNL1       -0.2873
      4 C           1.7412   -0.4103   20.2307 C.ar    1  UNL1        0.0829
      5 C           2.9779   -0.5281   19.3900 C.ar    1  UNL1        0.0353
      6 C           3.3308    0.5590   18.4187 C.ar    1  UNL1        0.0061
      7 C           2.4471    1.7640   18.2879 C.ar    1  UNL1        0.0375
      8 C           1.2104    1.8817   19.1286 C.ar    1  UNL1        0.1480
      9 N           0.1551    2.9440   19.2182 N.ar    1  UNL1       -0.2218
     10 C           3.8617   -1.7331   19.5207 C.ar    1  UNL1        0.0828
     11 C           4.6700   -2.2011   18.3471 C.ar    1  UNL1        0.0192
     12 C           5.5538   -3.4060   18.4777 C.ar    1  UNL1        0.0031
     13 C           5.6293   -4.1430   19.7821 C.ar    1  UNL1        0.0207
     14 C           4.8210   -3.6749   20.9558 C.ar    1  UNL1        0.0988
     15 N           3.9371   -2.4699   20.8251 N.ar    1  UNL1       -0.2438
     16 O          -1.9675    4.7301   21.0113 O.2     1  UNL1       -0.2681
     17 C          -2.0743    3.2770   20.6549 C.2     1  UNL1        0.2688
     18 N          -3.4053    2.5876   20.7083 N.am    1  UNL1       -0.2791
     19 H          -3.4755    1.6339   20.4744 H       1  UNL1        0.1552
     20 C          -4.6296    3.3513   21.1182 C.ar    1  UNL1        0.0506
     21 C          -5.3929    4.1468   20.1010 C.ar    1  UNL1        0.0147
     22 C          -6.6171    4.9105   20.5108 C.ar    1  UNL1        0.0013
     23 C          -7.0781    4.8786   21.9379 C.ar    1  UNL1        0.0001
     24 C          -6.3149    4.0832   22.9551 C.ar    1  UNL1        0.0013
     25 C          -5.0906    3.3195   22.5452 C.ar    1  UNL1        0.0147
@<TRIPOS>BOND
     1    16    17    2
     2    17    18   am
     3    18    20    1
     4    20    21   ar
     5    21    22   ar
     6    22    23   ar
     7    23    24   ar
     8    24    25   ar
     9    17     1    1
    10     1     2   ar
    11     2     3   ar
    12     3     4   ar
    13     4     5   ar
    14     5    10    1
    15    10    11   ar
    16    11    12   ar
    17    12    13   ar
    18    13    14   ar
    19    14    15   ar
    20     5     6   ar
    21     6     7   ar
    22     7     8   ar
    23     8     9   ar
    24    25    20   ar
    25     9     1   ar
    26     8     3   ar
    27    15    10   ar
    28    18    19    1
@<TRIPOS>MOLECULE
*****
 25 28 0 0 0
SMALL
GASTEIGER

@<TRIPOS>ATOM
      1 C           6.3309   -3.3651   22.7375 C.ar    1  UNL1        0.1538
      2 C           6.2146   -3.0579   24.2011 C.ar    1  UNL1        0.1053
      3 N           6.8403   -4.1883   24.9631 N.ar    1  UNL1       -0.2873
      4 C           7.0170   -4.4316   26.4327 C.ar    1  UNL1        0.0829
      5 C           7.6967   -5.6808   26.9096 C.ar    1  UNL1        0.0353
      6 C           8.1997   -6.6867   25.9169 C.ar    1  UNL1        0.0061
      7 C           8.0230   -6.4433   24.4474 C.ar    1  UNL1        0.0375
      8 C           7.3433   -5.1941   23.9705 C.ar    1  UNL1        0.1480
      9 N           7.0284   -4.6854   22.5950 N.ar    1  UNL1       -0.2218
     10 C           7.8734   -5.9242   28.3791 C.ar    1  UNL1        0.0828
     11 C           6.8259   -5.4605   29.3474 C.ar    1  UNL1        0.0192
     12 C           7.0026   -5.7039   30.8170 C.ar    1  UNL1        0.0031
     13 C           8.2269   -6.4110   31.3182 C.ar    1  UNL1        0.0207
     14 C           9.2744   -6.8746   30.3499 C.ar    1  UNL1        0.0988
     15 N           9.0977   -6.6313   28.8803 N.ar    1  UNL1       -0.2438
     16 O           6.6846   -1.3762   21.1038 O.2     1  UNL1       -0.2681
     17 C           5.8364   -2.5034   21.6137 C.2     1  UNL1        0.2688
     18 N           4.4938   -2.7688   20.9998 N.am    1  UNL1       -0.2791
     19 H           3.9372   -3.5087   21.3344 H       1  UNL1        0.1552
     20 C           3.9994   -1.9071   19.8760 C.ar    1  UNL1        0.0506
     21 C           4.6042   -2.0367   18.5094 C.ar    1  UNL1        0.0147
     22 C           4.1097   -1.1750   17.3856 C.ar    1  UNL1        0.0013
     23 C           3.0105   -0.1836   17.6284 C.ar    1  UNL1        0.0001
     24 C           2.4057   -0.0540   18.9949 C.ar    1  UNL1        0.0013
     25 C           2.9002   -0.9157   20.1187 C.ar    1  UNL1        0.0147
@<TRIPOS>BOND
     1    16    17    2
     2    17    18   am
     3    18    20    1
     4    20    21   ar
     5    21    22   ar
     6    22    23   ar
     7    23    24   ar
     8    24    25   ar
     9    17     1    1
    10     1     2   ar
    11     2     3   ar
    12     3     4   ar
    13     4     5   ar
    14     5    10    1
    15    10    11   ar
    16    11    12   ar
    17    12    13   ar
    18    13    14   ar
    19    14    15   ar
    20     5     6   ar
    21     6     7   ar
    22     7     8   ar
    23     8     9   ar
    24    25    20   ar
    25     9     1   ar
    26     8     3   ar
    27    15    10   ar
    28    18    19    1
@<TRIPOS>MOLECULE
*****
 25 28 0 0 0
SMALL
GASTEIGER

@<TRIPOS>ATOM
      1 C           5.8244   -3.0031   32.1431 C.ar    1  UNL1        0.1538
      2 C           5.7882   -2.7561   30.6641 C.ar    1  UNL1        0.1053
      3 N           6.4812   -3.9005   29.9858 N.ar    1  UNL1       -0.2873
      4 C           6.7493   -4.1969   28.5401 C.ar    1  UNL1        0.0829
      5 C           7.4820   -5.4476   28.1542 C.ar    1  UNL1        0.0353
      6 C           7.9465   -6.4019   29.2141 C.ar    1  UNL1        0.0061
      7 C           7.6785   -6.1056   30.6599 C.ar    1  UNL1        0.0375
      8 C           6.9458   -4.8549   31.0457 C.ar    1  UNL1        0.1480
      9 N           6.5399   -4.3002   32.3790 N.ar    1  UNL1       -0.2218
     10 C           7.7501   -5.7440   26.7084 C.ar    1  UNL1        0.0828
     11 C           7.9399   -7.1616   26.2561 C.ar    1  UNL1        0.0192
     12 C           8.2080   -7.4580   24.8104 C.ar    1  UNL1        0.0031
     13 C           8.2862   -6.3369   23.8168 C.ar    1  UNL1        0.0207
     14 C           8.0964   -4.9194   24.2691 C.ar    1  UNL1        0.0988
     15 N           7.8283   -4.6230   25.7149 N.ar    1  UNL1       -0.2438
     16 O           3.9235   -2.4436   33.8234 O.2     1  UNL1       -0.2681
     17 C           5.2466   -2.1099   33.2006 C.2     1  UNL1        0.2688
     18 N           5.9920   -0.8830   33.6353 N.am    1  UNL1       -0.2791
     19 H           6.8604   -0.6639   33.2266 H       1  UNL1        0.1552
     20 C           5.4142    0.0103   34.6929 C.ar    1  UNL1        0.0506
     21 C           5.7100   -0.2521   36.1399 C.ar    1  UNL1        0.0147
     22 C           5.1322    0.6411   37.1974 C.ar    1  UNL1        0.0013
     23 C           4.2587    1.7967   36.8079 C.ar    1  UNL1        0.0001
     24 C           3.9630    2.0590   35.3609 C.ar    1  UNL1        0.0013
     25 C           4.5407    1.1658   34.3034 C.ar    1  UNL1        0.0147
@<TRIPOS>BOND
     1    16    17    2
     2    17    18   am
     3    18    20    1
     4    20    21   ar
     5    21    22   ar
     6    22    23   ar
     7    23    24   ar
     8    24    25   ar
     9    17     1    1
    10     1     2   ar
    11     2     3   ar
    12     3     4   ar
    13     4     5   ar
    14     5    10    1
    15    10    11   ar
    16    11    12   ar
    17    12    13   ar
    18    13    14   ar
    19    14    15   ar
    20     5     6   ar
    21     6     7   ar
    22     7     8   ar
    23     8     9   ar
    24    25    20   ar
    25     9     1   ar
    26     8     3   ar
    27    15    10   ar
    28    18    19    1
@<TRIPOS>MOLECULE
*****
 25 28 0 0 0
SMALL
GASTEIGER

@<TRIPOS>ATOM
      1 C          -6.2669  -19.1593   20.5053 C.ar    1  UNL1        0.1538
      2 C          -6.8929  -18.8244   21.8266 C.ar    1  UNL1        0.1053
      3 N          -8.3815  -18.9293   21.6742 N.ar    1  UNL1       -0.2873
      4 C          -9.5072  -18.7125   22.6415 C.ar    1  UNL1        0.0829
      5 C         -10.9269  -18.8955   22.1932 C.ar    1  UNL1        0.0353
      6 C         -11.2208  -19.2953   20.7777 C.ar    1  UNL1        0.0061
      7 C         -10.0951  -19.5121   19.8104 C.ar    1  UNL1        0.0375
      8 C          -8.6754  -19.3291   20.2587 C.ar    1  UNL1        0.1480
      9 N          -7.3685  -19.4712   19.5362 N.ar    1  UNL1       -0.2218
     10 C         -12.0527  -18.6787   23.1605 C.ar    1  UNL1        0.0828
     11 C         -13.3607  -18.1259   22.6773 C.ar    1  UNL1        0.0192
     12 C         -14.4865  -17.9090   23.6445 C.ar    1  UNL1        0.0031
     13 C         -14.3043  -18.2451   25.0951 C.ar    1  UNL1        0.0207
     14 C         -12.9963  -18.7979   25.5783 C.ar    1  UNL1        0.0988
     15 N         -11.8705  -19.0147   24.6110 N.ar    1  UNL1       -0.2438
     16 O          -4.1437  -20.4458   19.7392 O.2     1  UNL1       -0.2681
     17 C          -4.7972  -19.1788   20.2056 C.2     1  UNL1        0.2688
     18 N          -3.9812  -17.9314   20.3723 N.am    1  UNL1       -0.2791
     19 H          -4.4101  -17.0998   20.6785 H       1  UNL1        0.1552
     20 C          -2.5115  -17.9509   20.0727 C.ar    1  UNL1        0.0506
     21 C          -1.5207  -18.1074   21.1880 C.ar    1  UNL1        0.0147
     22 C          -0.0511  -18.1270   20.8883 C.ar    1  UNL1        0.0013
     23 C           0.4277  -17.9900   19.4733 C.ar    1  UNL1        0.0001
     24 C          -0.5631  -17.8334   18.3581 C.ar    1  UNL1        0.0013
     25 C          -2.0327  -17.8139   18.6578 C.ar    1  UNL1        0.0147
@<TRIPOS>BOND
     1    16    17    2
     2    17    18   am
     3    18    20    1
     4    20    21   ar
     5    21    22   ar
     6    22    23   ar
     7    23    24   ar
     8    24    25   ar
     9    17     1    1
    10     1     2   ar
    11     2     3   ar
    12     3     4   ar
    13     4     5   ar
    14     5    10    1
    15    10    11   ar
    16    11    12   ar
    17    12    13   ar
    18    13    14   ar
    19    14    15   ar
    20     5     6   ar
    21     6     7   ar
    22     7     8   ar
    23     8     9   ar
    24    25    20   ar
    25     9     1   ar
    26     8     3   ar
    27    15    10   ar
    28    18    19    1
@<TRIPOS>MOLECULE
*****
 25 28 0 0 0
SMALL
GASTEIGER

@<TRIPOS>ATOM
      1 C          -7.9855  -19.5079   22.2382 C.ar    1  UNL1        0.1538
      2 C          -6.9120  -18.4842   22.4610 C.ar    1  UNL1        0.1053
      3 N          -5.7074  -18.8954   21.6673 N.ar    1  UNL1       -0.2873
      4 C          -4.3535  -18.2713   21.5020 C.ar    1  UNL1        0.0829
      5 C          -3.3286  -18.9251   20.6233 C.ar    1  UNL1        0.0353
      6 C          -3.6576  -20.2029   19.9100 C.ar    1  UNL1        0.0061
      7 C          -5.0115  -20.8270   20.0753 C.ar    1  UNL1        0.0375
      8 C          -6.0365  -20.1732   20.9540 C.ar    1  UNL1        0.1480
      9 N          -7.4444  -20.5518   21.3068 N.ar    1  UNL1       -0.2218
     10 C          -1.9746  -18.3010   20.4580 C.ar    1  UNL1        0.0828
     11 C          -1.7580  -16.8669   20.8408 C.ar    1  UNL1        0.0192
     12 C          -0.4040  -16.2429   20.6754 C.ar    1  UNL1        0.0031
     13 C           0.7333  -17.0529   20.1273 C.ar    1  UNL1        0.0207
     14 C           0.5167  -18.4869   19.7445 C.ar    1  UNL1        0.0988
     15 N          -0.8373  -19.1110   19.9099 N.ar    1  UNL1       -0.2438
     16 O          -9.8612  -20.6850   23.5969 O.2     1  UNL1       -0.2681
     17 C          -9.3590  -19.4908   22.8409 C.2     1  UNL1        0.2688
     18 N         -10.2302  -18.2794   22.6877 N.am    1  UNL1       -0.2791
     19 H          -9.9006  -17.4956   22.1915 H       1  UNL1        0.1552
     20 C         -11.6037  -18.2623   23.2904 C.ar    1  UNL1        0.0506
     21 C         -12.7746  -17.7987   22.4755 C.ar    1  UNL1        0.0147
     22 C         -14.1481  -17.7815   23.0783 C.ar    1  UNL1        0.0013
     23 C         -14.3506  -18.2280   24.4959 C.ar    1  UNL1        0.0001
     24 C         -13.1797  -18.6916   25.3108 C.ar    1  UNL1        0.0013
     25 C         -11.8062  -18.7087   24.7080 C.ar    1  UNL1        0.0147
@<TRIPOS>BOND
     1    16    17    2
     2    17    18   am
     3    18    20    1
     4    20    21   ar
     5    21    22   ar
     6    22    23   ar
     7    23    24   ar
     8    24    25   ar
     9    17     1    1
    10     1     2   ar
    11     2     3   ar
    12     3     4   ar
    13     4     5   ar
    14     5    10    1
    15    10    11   ar
    16    11    12   ar
    17    12    13   ar
    18    13    14   ar
    19    14    15   ar
    20     5     6   ar
    21     6     7   ar
    22     7     8   ar
    23     8     9   ar
    24    25    20   ar
    25     9     1   ar
    26     8     3   ar
    27    15    10   ar
    28    18    19    1
@<TRIPOS>MOLECULE
*****
 25 28 0 0 0
SMALL
GASTEIGER

@<TRIPOS>ATOM
      1 C          -0.8616    2.4450   20.4187 C.ar    1  UNL1        0.1538
      2 C           0.0238    2.0254   19.2829 C.ar    1  UNL1        0.1053
      3 N           1.1494    1.2112   19.8488 N.ar    1  UNL1       -0.2873
      4 C           2.3225    0.5352   19.2034 C.ar    1  UNL1        0.0829
      5 C           3.3059   -0.2245   20.0435 C.ar    1  UNL1        0.0353
      6 C           3.1161   -0.3081   21.5291 C.ar    1  UNL1        0.0061
      7 C           1.9430    0.3680   22.1746 C.ar    1  UNL1        0.0375
      8 C           0.9596    1.1276   21.3344 C.ar    1  UNL1        0.1480
      9 N          -0.2832    1.8901   21.6866 N.ar    1  UNL1       -0.2218
     10 C           4.4791   -0.9005   19.3981 C.ar    1  UNL1        0.0828
     11 C           4.3441   -2.3002   18.8759 C.ar    1  UNL1        0.0192
     12 C           5.5173   -2.9763   18.2305 C.ar    1  UNL1        0.0031
     13 C           6.8254   -2.2527   18.1072 C.ar    1  UNL1        0.0207
     14 C           6.9604   -0.8530   18.6293 C.ar    1  UNL1        0.0988
     15 N           5.7872   -0.1769   19.2748 N.ar    1  UNL1       -0.2438
     16 O          -2.0201    4.6986   19.8450 O.2     1  UNL1       -0.2681
     17 C          -2.1067    3.2739   20.3063 C.2     1  UNL1        0.2688
     18 N          -3.4383    2.6782   20.6551 N.am    1  UNL1       -0.2791
     19 H          -3.4951    1.7431   20.9579 H       1  UNL1        0.1552
     20 C          -4.6834    3.5071   20.5427 C.ar    1  UNL1        0.0506
     21 C          -5.5098    3.4533   19.2920 C.ar    1  UNL1        0.0147
     22 C          -6.7549    4.2822   19.1796 C.ar    1  UNL1        0.0013
     23 C          -7.1736    5.1649   20.3179 C.ar    1  UNL1        0.0001
     24 C          -6.3472    5.2186   21.5686 C.ar    1  UNL1        0.0013
     25 C          -5.1021    4.3897   21.6810 C.ar    1  UNL1        0.0147
@<TRIPOS>BOND
     1    16    17    2
     2    17    18   am
     3    18    20    1
     4    20    21   ar
     5    21    22   ar
     6    22    23   ar
     7    23    24   ar
     8    24    25   ar
     9    17     1    1
    10     1     2   ar
    11     2     3   ar
    12     3     4   ar
    13     4     5   ar
    14     5    10    1
    15    10    11   ar
    16    11    12   ar
    17    12    13   ar
    18    13    14   ar
    19    14    15   ar
    20     5     6   ar
    21     6     7   ar
    22     7     8   ar
    23     8     9   ar
    24    25    20   ar
    25     9     1   ar
    26     8     3   ar
    27    15    10   ar
    28    18    19    1
