@<TRIPOS>MOLECULE
*****
 23 25 0 0 0
SMALL
GASTEIGER

@<TRIPOS>ATOM
      1 C          -8.2239  -17.5390   22.5002 C.3     1  UNL1        0.1883
      2 C          -7.1392  -18.3600   21.8682 C.ar    1  UNL1        0.0195
      3 C          -7.4182  -19.1327   20.6132 C.ar    1  UNL1        0.0002
      4 C          -6.3336  -19.9537   19.9811 C.ar    1  UNL1        0.0135
      5 C          -4.9699  -20.0020   20.6040 C.ar    1  UNL1        0.0850
      6 CL         -3.8853  -20.8229   19.9719 Cl      1  UNL1       -0.0799
      7 C          -4.6909  -19.2293   21.8591 C.ar    1  UNL1        0.1504
      8 F          -3.3272  -19.2775   22.4820 F       1  UNL1       -0.2033
      9 C          -5.7755  -18.4083   22.4911 C.ar    1  UNL1        0.0297
     10 O          -7.9357  -16.1396   22.9569 O.3     1  UNL1       -0.4747
     11 F          -8.8072  -16.1464   28.0795 F       1  UNL1       -0.2041
     12 C          -7.8924  -15.8945   26.9177 C.ar    1  UNL1        0.1432
     13 C          -6.4985  -15.3941   27.1555 C.ar    1  UNL1        0.0298
     14 C          -5.5836  -15.1422   25.9938 C.ar    1  UNL1        0.0054
     15 C          -6.0627  -15.3907   24.5943 C.ar    1  UNL1        0.0371
     16 C          -7.4566  -15.8911   24.3565 C.ar    1  UNL1        0.1411
     17 C          -8.3714  -16.1430   25.5182 C.ar    1  UNL1        0.0665
     18 C          -9.5967  -18.1175   22.6756 C.3     1  UNL1        0.0510
     19 C          -9.8584  -19.1096   23.7697 C.3     1  UNL1        0.0354
     20 C          -9.3840  -20.4990   24.0774 C.3     1  UNL1        0.0700
     21 N         -10.2284  -20.5128   25.3171 N.3     1  UNL1       -0.2974
     22 C         -10.7027  -19.1234   25.0095 C.3     1  UNL1        0.0700
     23 H          -9.6951  -20.5885   26.1833 H       1  UNL1        0.1232
@<TRIPOS>BOND
     1    11    12    1
     2    12    13   ar
     3    13    14   ar
     4    14    15   ar
     5    15    16   ar
     6    16    10    1
     7    10     1    1
     8     1    18    1
     9    18    19    1
    10    19    20    1
    11    20    21    1
    12    21    22    1
    13     1     2    1
    14     2     3   ar
    15     3     4   ar
    16     4     5   ar
    17     5     6    1
    18     5     7   ar
    19     7     8    1
    20     7     9   ar
    21    16    17   ar
    22    17    12   ar
    23    22    19    1
    24     9     2   ar
    25    21    23    1
@<TRIPOS>MOLECULE
*****
 23 25 0 0 0
SMALL
GASTEIGER

@<TRIPOS>ATOM
      1 C          -8.0712  -17.9072   22.4543 C.3     1  UNL1        0.1883
      2 C          -9.5219  -17.9421   22.8341 C.ar    1  UNL1        0.0195
      3 C         -10.0507  -19.0676   23.6728 C.ar    1  UNL1        0.0002
      4 C         -11.5014  -19.1025   24.0526 C.ar    1  UNL1        0.0135
      5 C         -12.4233  -18.0119   23.5936 C.ar    1  UNL1        0.0850
      6 CL        -13.8740  -18.0468   23.9734 Cl      1  UNL1       -0.0799
      7 C         -11.8945  -16.8863   22.7548 C.ar    1  UNL1        0.1504
      8 F         -12.8164  -15.7957   22.2959 F       1  UNL1       -0.2033
      9 C         -10.4438  -16.8514   22.3751 C.ar    1  UNL1        0.0297
     10 O          -7.2824  -16.6423   22.6214 O.3     1  UNL1       -0.4747
     11 F          -8.7369  -15.2371   27.4078 F       1  UNL1       -0.2041
     12 C          -7.6575  -15.4514   26.3885 C.ar    1  UNL1        0.1432
     13 C          -6.2260  -15.1776   26.7431 C.ar    1  UNL1        0.0298
     14 C          -5.1466  -15.3919   25.7238 C.ar    1  UNL1        0.0054
     15 C          -5.4987  -15.8802   24.3499 C.ar    1  UNL1        0.0371
     16 C          -6.9302  -16.1541   23.9954 C.ar    1  UNL1        0.1411
     17 C          -8.0096  -15.9397   25.0147 C.ar    1  UNL1        0.0665
     18 C          -7.4093  -19.1372   21.9073 C.3     1  UNL1        0.0510
     19 C          -5.9365  -19.1329   21.6230 C.3     1  UNL1        0.0354
     20 C          -4.6952  -19.0347   22.4593 C.3     1  UNL1        0.0700
     21 N          -3.8537  -19.1268   21.2210 N.3     1  UNL1       -0.2974
     22 C          -5.0950  -19.2250   20.3847 C.3     1  UNL1        0.0700
     23 H          -3.2589  -19.9546   21.1823 H       1  UNL1        0.1232
@<TRIPOS>BOND
     1    11    12    1
     2    12    13   ar
     3    13    14   ar
     4    14    15   ar
     5    15    16   ar
     6    16    10    1
     7    10     1    1
     8     1    18    1
     9    18    19    1
    10    19    20    1
    11    20    21    1
    12    21    22    1
    13     1     2    1
    14     2     3   ar
    15     3     4   ar
    16     4     5   ar
    17     5     6    1
    18     5     7   ar
    19     7     8    1
    20     7     9   ar
    21    16    17   ar
    22    17    12   ar
    23    22    19    1
    24     9     2   ar
    25    21    23    1
@<TRIPOS>MOLECULE
*****
 23 25 0 0 0
SMALL
GASTEIGER

@<TRIPOS>ATOM
      1 C          -8.4119  -17.4436   22.4692 C.3     1  UNL1        0.1883
      2 C          -7.3532  -18.3049   21.8470 C.ar    1  UNL1        0.0195
      3 C          -7.6395  -19.0423   20.5725 C.ar    1  UNL1        0.0002
      4 C          -6.5807  -19.9036   19.9503 C.ar    1  UNL1        0.0135
      5 C          -5.2357  -20.0275   20.6025 C.ar    1  UNL1        0.0850
      6 CL         -4.1769  -20.8889   19.9803 Cl      1  UNL1       -0.0799
      7 C          -4.9493  -19.2902   21.8770 C.ar    1  UNL1        0.1504
      8 F          -3.6043  -19.4142   22.5293 F       1  UNL1       -0.2033
      9 C          -6.0081  -18.4289   22.4993 C.ar    1  UNL1        0.0297
     10 O          -8.0730  -16.0599   22.9386 O.3     1  UNL1       -0.4747
     11 F          -8.7894  -16.2056   28.0830 F       1  UNL1       -0.2041
     12 C          -7.9111  -15.9188   26.9014 C.ar    1  UNL1        0.1432
     13 C          -6.5127  -15.4181   27.1103 C.ar    1  UNL1        0.0298
     14 C          -5.6344  -15.1313   25.9287 C.ar    1  UNL1        0.0054
     15 C          -6.1544  -15.3452   24.5381 C.ar    1  UNL1        0.0371
     16 C          -7.5528  -15.8459   24.3292 C.ar    1  UNL1        0.1411
     17 C          -8.4312  -16.1327   25.5108 C.ar    1  UNL1        0.0665
     18 C          -9.8097  -17.9661   22.6221 C.3     1  UNL1        0.0510
     19 C         -10.9145  -17.4125   21.7720 C.3     1  UNL1        0.0354
     20 C         -11.5286  -17.7859   20.4554 C.3     1  UNL1        0.0700
     21 N         -12.4770  -16.6295   20.5697 N.3     1  UNL1       -0.2974
     22 C         -11.8630  -16.2560   21.8863 C.3     1  UNL1        0.0700
     23 H         -13.4586  -16.9003   20.6299 H       1  UNL1        0.1232
@<TRIPOS>BOND
     1    11    12    1
     2    12    13   ar
     3    13    14   ar
     4    14    15   ar
     5    15    16   ar
     6    16    10    1
     7    10     1    1
     8     1    18    1
     9    18    19    1
    10    19    20    1
    11    20    21    1
    12    21    22    1
    13     1     2    1
    14     2     3   ar
    15     3     4   ar
    16     4     5   ar
    17     5     6    1
    18     5     7   ar
    19     7     8    1
    20     7     9   ar
    21    16    17   ar
    22    17    12   ar
    23    22    19    1
    24     9     2   ar
    25    21    23    1
@<TRIPOS>MOLECULE
*****
 23 25 0 0 0
SMALL
GASTEIGER

@<TRIPOS>ATOM
      1 C          -8.0792  -18.3593   22.5782 C.3     1  UNL1        0.1883
      2 C          -9.5410  -18.2959   22.9084 C.ar    1  UNL1        0.0195
      3 C         -10.0250  -18.7371   24.2578 C.ar    1  UNL1        0.0002
      4 C         -11.4868  -18.6737   24.5880 C.ar    1  UNL1        0.0135
      5 C         -12.4647  -18.1692   23.5686 C.ar    1  UNL1        0.0850
      6 CL        -13.9266  -18.1058   23.8988 Cl      1  UNL1       -0.0799
      7 C         -11.9808  -17.7279   22.2191 C.ar    1  UNL1        0.1504
      8 F         -12.9587  -17.2234   21.1997 F       1  UNL1       -0.2033
      9 C         -10.5189  -17.7913   21.8889 C.ar    1  UNL1        0.0297
     10 O          -7.3785  -19.6846   22.5276 O.3     1  UNL1       -0.4747
     11 F          -2.2805  -18.6794   22.5517 F       1  UNL1       -0.2041
     12 C          -3.4805  -19.2929   21.8932 C.ar    1  UNL1        0.1432
     13 C          -3.3315  -20.0174   20.5882 C.ar    1  UNL1        0.0298
     14 C          -4.5315  -20.6309   19.9297 C.ar    1  UNL1        0.0054
     15 C          -5.8805  -20.5200   20.5762 C.ar    1  UNL1        0.0371
     16 C          -6.0295  -19.7955   21.8811 C.ar    1  UNL1        0.1411
     17 C          -4.8295  -19.1820   22.5396 C.ar    1  UNL1        0.0665
     18 C          -7.3180  -17.0973   22.2987 C.3     1  UNL1        0.0510
     19 C          -7.0451  -16.1248   23.4076 C.3     1  UNL1        0.0354
     20 C          -7.8931  -15.2611   24.2936 C.3     1  UNL1        0.0700
     21 N          -6.6592  -14.7494   24.9759 N.3     1  UNL1       -0.2974
     22 C          -5.8112  -15.6131   24.0899 C.3     1  UNL1        0.0700
     23 H          -6.6023  -14.9864   25.9663 H       1  UNL1        0.1232
@<TRIPOS>BOND
     1    11    12    1
     2    12    13   ar
     3    13    14   ar
     4    14    15   ar
     5    15    16   ar
     6    16    10    1
     7    10     1    1
     8     1    18    1
     9    18    19    1
    10    19    20    1
    11    20    21    1
    12    21    22    1
    13     1     2    1
    14     2     3   ar
    15     3     4   ar
    16     4     5   ar
    17     5     6    1
    18     5     7   ar
    19     7     8    1
    20     7     9   ar
    21    16    17   ar
    22    17    12   ar
    23    22    19    1
    24     9     2   ar
    25    21    23    1
@<TRIPOS>MOLECULE
*****
 23 25 0 0 0
SMALL
GASTEIGER

@<TRIPOS>ATOM
      1 C          -7.5315  -17.8918   22.6938 C.3     1  UNL1        0.1883
      2 C          -6.1806  -18.4076   22.2950 C.ar    1  UNL1        0.0195
      3 C          -4.9504  -17.9044   22.9904 C.ar    1  UNL1        0.0002
      4 C          -3.5995  -18.4202   22.5917 C.ar    1  UNL1        0.0135
      5 C          -3.4787  -19.4391   21.4976 C.ar    1  UNL1        0.0850
      6 CL         -2.1278  -19.9549   21.0988 Cl      1  UNL1       -0.0799
      7 C          -4.7089  -19.9423   20.8021 C.ar    1  UNL1        0.1504
      8 F          -4.5881  -20.9613   19.7080 F       1  UNL1       -0.2033
      9 C          -6.0598  -19.4265   21.2009 C.ar    1  UNL1        0.0297
     10 O          -8.6730  -18.8464   22.8825 O.3     1  UNL1       -0.4747
     11 F         -13.6421  -17.7989   23.9829 F       1  UNL1       -0.2041
     12 C         -12.5360  -17.9422   22.9798 C.ar    1  UNL1        0.1432
     13 C         -12.8085  -17.7051   21.5240 C.ar    1  UNL1        0.0298
     14 C         -11.7024  -17.8485   20.5210 C.ar    1  UNL1        0.0054
     15 C         -10.3239  -18.2289   20.9738 C.ar    1  UNL1        0.0371
     16 C         -10.0515  -18.4659   22.4296 C.ar    1  UNL1        0.1411
     17 C         -11.1576  -18.3226   23.4326 C.ar    1  UNL1        0.0665
     18 C          -7.7408  -16.4213   22.9038 C.3     1  UNL1        0.0510
     19 C          -7.7066  -15.8494   24.2900 C.3     1  UNL1        0.0354
     20 C          -8.7365  -15.5424   25.3365 C.3     1  UNL1        0.0700
     21 N          -7.6582  -15.0405   26.2505 N.3     1  UNL1       -0.2974
     22 C          -6.6283  -15.3474   25.2040 C.3     1  UNL1        0.0700
     23 H          -7.5541  -15.5820   27.1086 H       1  UNL1        0.1232
@<TRIPOS>BOND
     1    11    12    1
     2    12    13   ar
     3    13    14   ar
     4    14    15   ar
     5    15    16   ar
     6    16    10    1
     7    10     1    1
     8     1    18    1
     9    18    19    1
    10    19    20    1
    11    20    21    1
    12    21    22    1
    13     1     2    1
    14     2     3   ar
    15     3     4   ar
    16     4     5   ar
    17     5     6    1
    18     5     7   ar
    19     7     8    1
    20     7     9   ar
    21    16    17   ar
    22    17    12   ar
    23    22    19    1
    24     9     2   ar
    25    21    23    1
@<TRIPOS>MOLECULE
*****
 23 25 0 0 0
SMALL
GASTEIGER

@<TRIPOS>ATOM
      1 C          -8.4455  -17.8554   22.6616 C.3     1  UNL1        0.1883
      2 C          -7.2873  -18.5803   22.0426 C.ar    1  UNL1        0.0195
      3 C          -5.8838  -18.2241   22.4341 C.ar    1  UNL1        0.0002
      4 C          -4.7256  -18.9490   21.8152 C.ar    1  UNL1        0.0135
      5 C          -4.9709  -20.0301   20.8047 C.ar    1  UNL1        0.0850
      6 CL         -3.8127  -20.7549   20.1857 Cl      1  UNL1       -0.0799
      7 C          -6.3745  -20.3863   20.4131 C.ar    1  UNL1        0.1504
      8 F          -6.6198  -21.4673   19.4026 F       1  UNL1       -0.2033
      9 C          -7.5327  -19.6614   21.0321 C.ar    1  UNL1        0.0297
     10 O          -8.2955  -16.4237   23.0831 O.3     1  UNL1       -0.4747
     11 F          -4.6366  -14.5148   26.2405 F       1  UNL1       -0.2041
     12 C          -5.9856  -15.1409   26.0443 C.ar    1  UNL1        0.1432
     13 C          -6.8539  -15.4385   27.2306 C.ar    1  UNL1        0.0298
     14 C          -8.2029  -16.0646   27.0344 C.ar    1  UNL1        0.0054
     15 C          -8.6834  -16.3930   25.6519 C.ar    1  UNL1        0.0371
     16 C          -7.8150  -16.0953   24.4657 C.ar    1  UNL1        0.1411
     17 C          -6.4661  -15.4693   24.6618 C.ar    1  UNL1        0.0665
     18 C          -9.7538  -18.5623   22.8590 C.3     1  UNL1        0.0510
     19 C         -10.9785  -18.0897   22.1334 C.3     1  UNL1        0.0354
     20 C         -11.6837  -18.4889   20.8711 C.3     1  UNL1        0.0700
     21 N         -12.7107  -17.4214   21.1072 N.3     1  UNL1       -0.2974
     22 C         -12.0055  -17.0222   22.3695 C.3     1  UNL1        0.0700
     23 H         -13.6554  -17.7773   21.2527 H       1  UNL1        0.1232
@<TRIPOS>BOND
     1    11    12    1
     2    12    13   ar
     3    13    14   ar
     4    14    15   ar
     5    15    16   ar
     6    16    10    1
     7    10     1    1
     8     1    18    1
     9    18    19    1
    10    19    20    1
    11    20    21    1
    12    21    22    1
    13     1     2    1
    14     2     3   ar
    15     3     4   ar
    16     4     5   ar
    17     5     6    1
    18     5     7   ar
    19     7     8    1
    20     7     9   ar
    21    16    17   ar
    22    17    12   ar
    23    22    19    1
    24     9     2   ar
    25    21    23    1
@<TRIPOS>MOLECULE
*****
 23 25 0 0 0
SMALL
GASTEIGER

@<TRIPOS>ATOM
      1 C          -7.5178  -17.8269   22.5820 C.3     1  UNL1        0.1883
      2 C          -6.1685  -18.3755   22.2238 C.ar    1  UNL1        0.0195
      3 C          -4.9515  -17.9234   22.9752 C.ar    1  UNL1        0.0002
      4 C          -3.6022  -18.4720   22.6171 C.ar    1  UNL1        0.0135
      5 C          -3.4698  -19.4726   21.5075 C.ar    1  UNL1        0.0850
      6 CL         -2.1204  -20.0212   21.1493 Cl      1  UNL1       -0.0799
      7 C          -4.6868  -19.9247   20.7560 C.ar    1  UNL1        0.1504
      8 F          -4.5544  -20.9253   19.6464 F       1  UNL1       -0.2033
      9 C          -6.0361  -19.3761   21.1142 C.ar    1  UNL1        0.0297
     10 O          -7.6516  -16.4055   23.0420 O.3     1  UNL1       -0.4747
     11 F          -8.8947  -16.3132   28.0865 F       1  UNL1       -0.2041
     12 C          -7.9346  -15.9939   26.9791 C.ar    1  UNL1        0.1432
     13 C          -6.6359  -15.3092   27.2866 C.ar    1  UNL1        0.0298
     14 C          -5.6758  -14.9899   26.1792 C.ar    1  UNL1        0.0054
     15 C          -6.0143  -15.3553   24.7644 C.ar    1  UNL1        0.0371
     16 C          -7.3130  -16.0400   24.4569 C.ar    1  UNL1        0.1411
     17 C          -8.2731  -16.3593   25.5643 C.ar    1  UNL1        0.0665
     18 C          -8.7335  -18.6998   22.4801 C.3     1  UNL1        0.0510
     19 C          -9.6592  -18.5626   21.3079 C.3     1  UNL1        0.0354
     20 C         -10.9378  -17.8229   21.0470 C.3     1  UNL1        0.0700
     21 N         -10.9685  -18.3686   19.6502 N.3     1  UNL1       -0.2974
     22 C          -9.6899  -19.1083   19.9111 C.3     1  UNL1        0.0700
     23 H         -10.8968  -17.6566   18.9233 H       1  UNL1        0.1232
@<TRIPOS>BOND
     1    11    12    1
     2    12    13   ar
     3    13    14   ar
     4    14    15   ar
     5    15    16   ar
     6    16    10    1
     7    10     1    1
     8     1    18    1
     9    18    19    1
    10    19    20    1
    11    20    21    1
    12    21    22    1
    13     1     2    1
    14     2     3   ar
    15     3     4   ar
    16     4     5   ar
    17     5     6    1
    18     5     7   ar
    19     7     8    1
    20     7     9   ar
    21    16    17   ar
    22    17    12   ar
    23    22    19    1
    24     9     2   ar
    25    21    23    1
@<TRIPOS>MOLECULE
*****
 23 25 0 0 0
SMALL
GASTEIGER

@<TRIPOS>ATOM
      1 C          -7.8721  -17.4360   22.4928 C.3     1  UNL1        0.1883
      2 C          -7.6122  -16.7746   23.8138 C.ar    1  UNL1        0.0195
      3 C          -8.6664  -16.7903   24.8807 C.ar    1  UNL1        0.0002
      4 C          -8.4064  -16.1289   26.2017 C.ar    1  UNL1        0.0135
      5 C          -7.0923  -15.4517   26.4557 C.ar    1  UNL1        0.0850
      6 CL         -6.8323  -14.7903   27.7766 Cl      1  UNL1       -0.0799
      7 C          -6.0380  -15.4360   25.3887 C.ar    1  UNL1        0.1504
      8 F          -4.7239  -14.7589   25.6427 F       1  UNL1       -0.2033
      9 C          -6.2980  -16.0975   24.0677 C.ar    1  UNL1        0.0297
     10 O          -8.6477  -16.7131   21.4318 O.3     1  UNL1       -0.4747
     11 F         -13.0896  -18.4448   23.4986 F       1  UNL1       -0.2041
     12 C         -12.3664  -17.6585   22.4456 C.ar    1  UNL1        0.1432
     13 C         -13.1410  -16.9518   21.3730 C.ar    1  UNL1        0.0298
     14 C         -12.4179  -16.1656   20.3199 C.ar    1  UNL1        0.0054
     15 C         -10.9201  -16.0860   20.3395 C.ar    1  UNL1        0.0371
     16 C         -10.1456  -16.7927   21.4122 C.ar    1  UNL1        0.1411
     17 C         -10.8687  -17.5789   22.4652 C.ar    1  UNL1        0.0665
     18 C          -7.3565  -18.8205   22.2329 C.3     1  UNL1        0.0510
     19 C          -5.9441  -19.0199   21.7688 C.3     1  UNL1        0.0354
     20 C          -5.2886  -19.2701   20.4430 C.3     1  UNL1        0.0700
     21 N          -3.9466  -19.3019   21.1125 N.3     1  UNL1       -0.2974
     22 C          -4.6021  -19.0517   22.4383 C.3     1  UNL1        0.0700
     23 H          -3.3145  -18.5592   20.8137 H       1  UNL1        0.1232
@<TRIPOS>BOND
     1    11    12    1
     2    12    13   ar
     3    13    14   ar
     4    14    15   ar
     5    15    16   ar
     6    16    10    1
     7    10     1    1
     8     1    18    1
     9    18    19    1
    10    19    20    1
    11    20    21    1
    12    21    22    1
    13     1     2    1
    14     2     3   ar
    15     3     4   ar
    16     4     5   ar
    17     5     6    1
    18     5     7   ar
    19     7     8    1
    20     7     9   ar
    21    16    17   ar
    22    17    12   ar
    23    22    19    1
    24     9     2   ar
    25    21    23    1
@<TRIPOS>MOLECULE
*****
 23 25 0 0 0
SMALL
GASTEIGER

@<TRIPOS>ATOM
      1 C          -7.3045  -17.5924   22.3685 C.3     1  UNL1        0.1883
      2 C          -7.0193  -16.8145   23.6190 C.ar    1  UNL1        0.0195
      3 C          -5.6238  -16.3478   23.9100 C.ar    1  UNL1        0.0002
      4 C          -5.3386  -15.5700   25.1605 C.ar    1  UNL1        0.0135
      5 C          -6.4488  -15.2588   26.1198 C.ar    1  UNL1        0.0850
      6 CL         -6.1636  -14.4809   27.3703 Cl      1  UNL1       -0.0799
      7 C          -7.8444  -15.7255   25.8288 C.ar    1  UNL1        0.1504
      8 F          -8.9547  -15.4143   26.7881 F       1  UNL1       -0.2033
      9 C          -8.1296  -16.5033   24.5784 C.ar    1  UNL1        0.0297
     10 O          -8.1900  -17.0087   21.3078 O.3     1  UNL1       -0.4747
     11 F         -12.9490  -15.5189   22.7680 F       1  UNL1       -0.2041
     12 C         -12.0496  -16.5034   22.0810 C.ar    1  UNL1        0.1432
     13 C         -12.6303  -17.7274   21.4373 C.ar    1  UNL1        0.0298
     14 C         -11.7309  -18.7119   20.7503 C.ar    1  UNL1        0.0054
     15 C         -10.2508  -18.4724   20.7071 C.ar    1  UNL1        0.0371
     16 C          -9.6701  -17.2483   21.3509 C.ar    1  UNL1        0.1411
     17 C         -10.5695  -16.2638   22.0379 C.ar    1  UNL1        0.0665
     18 C          -6.7042  -18.9539   22.1789 C.3     1  UNL1        0.0510
     19 C          -5.3598  -19.0970   21.5291 C.3     1  UNL1        0.0354
     20 C          -4.8749  -19.2526   20.1182 C.3     1  UNL1        0.0700
     21 N          -3.4586  -19.2993   20.6102 N.3     1  UNL1       -0.2974
     22 C          -3.9436  -19.1438   22.0211 C.3     1  UNL1        0.0700
     23 H          -2.8781  -18.5276   20.2819 H       1  UNL1        0.1232
@<TRIPOS>BOND
     1    11    12    1
     2    12    13   ar
     3    13    14   ar
     4    14    15   ar
     5    15    16   ar
     6    16    10    1
     7    10     1    1
     8     1    18    1
     9    18    19    1
    10    19    20    1
    11    20    21    1
    12    21    22    1
    13     1     2    1
    14     2     3   ar
    15     3     4   ar
    16     4     5   ar
    17     5     6    1
    18     5     7   ar
    19     7     8    1
    20     7     9   ar
    21    16    17   ar
    22    17    12   ar
    23    22    19    1
    24     9     2   ar
    25    21    23    1
