@<TRIPOS>MOLECULE
*****
 19 20 0 0 0
SMALL
GASTEIGER

@<TRIPOS>ATOM
      1 C          -9.5370  -17.8325   22.2072 C.3     1  UNL1        0.0544
      2 C          -8.0691  -17.9101   22.5061 C.3     1  UNL1        0.0234
      3 C          -7.1565  -18.6712   21.5908 C.3     1  UNL1        0.0629
      4 C          -7.7117  -19.3547   20.3765 C.3     1  UNL1        0.0247
      5 C          -9.1796  -19.2771   20.0776 C.3     1  UNL1        0.0690
      6 N         -10.0922  -18.5160   20.9929 N.3     1  UNL1       -0.2985
      7 H         -10.7961  -19.1764   21.3228 H       1  UNL1        0.1232
      8 C          -5.6886  -18.7488   21.8898 C.ar    1  UNL1        0.1547
      9 C          -4.7281  -19.7587   21.3354 C.ar    1  UNL1        0.0986
     10 C          -3.3694  -19.4642   21.8986 C.ar    1  UNL1        0.2884
     11 O          -2.1108  -20.2275   21.6100 O.2     1  UNL1       -0.2645
     12 N          -3.4903  -18.2722   22.8013 N.ar    1  UNL1       -0.1839
     13 O          -4.9236  -17.8301   22.7958 O.2     1  UNL1       -0.3802
     14 H          -2.7575  -17.8535   23.3082 H       1  UNL1        0.2107
     15 C         -10.4496  -17.0714   23.1225 C.3     1  UNL1        0.0157
     16 C         -11.4566  -18.6511   24.1176 C.3     1  UNL1        0.0000
     17 C         -11.8826  -17.4891   23.2702 C.3     1  UNL1        0.0013
     18 C         -12.3087  -16.3271   22.4227 C.3     1  UNL1        0.0000
     19 C         -13.3158  -17.9068   23.4178 C.3     1  UNL1        0.0000
@<TRIPOS>BOND
     1    16    17    1
     2    17    18    1
     3    17    19    1
     4    17    15    1
     5     1    15    1
     6     1     2    1
     7     2     3    1
     8     3     8    1
     9     8     9   ar
    10     9    10   ar
    11    10    11    2
    12    10    12   ar
    13    12    13   ar
    14     3     4    1
    15     4     5    1
    16     5     6    1
    17     6     1    1
    18    13     8   ar
    19    12    14    1
    20     6     7    1
@<TRIPOS>MOLECULE
*****
 19 20 0 0 0
SMALL
GASTEIGER

@<TRIPOS>ATOM
      1 C          -9.3387  -18.2582   21.7778 C.3     1  UNL1        0.0544
      2 C          -7.8437  -18.3505   21.6988 C.3     1  UNL1        0.0234
      3 C          -7.1955  -19.0500   20.5409 C.3     1  UNL1        0.0629
      4 C          -8.0424  -19.6571   19.4620 C.3     1  UNL1        0.0247
      5 C          -9.5375  -19.5648   19.5410 C.3     1  UNL1        0.0690
      6 N         -10.1856  -18.8653   20.6989 N.3     1  UNL1       -0.2985
      7 H         -10.7946  -19.5471   21.1513 H       1  UNL1        0.1232
      8 C          -5.7004  -19.1423   20.4620 C.ar    1  UNL1        0.1547
      9 C          -4.8102  -19.8730   21.4229 C.ar    1  UNL1        0.0986
     10 C          -3.3927  -19.7024   20.9631 C.ar    1  UNL1        0.2884
     11 O          -2.1748  -20.2685   21.6311 O.2     1  UNL1       -0.2645
     12 N          -3.4068  -18.8661   19.7178 N.ar    1  UNL1       -0.1839
     13 O          -4.8331  -18.5200   19.4082 O.2     1  UNL1       -0.3802
     14 H          -2.6184  -18.5925   19.1955 H       1  UNL1        0.2107
     15 C          -9.9868  -17.5587   22.9357 C.3     1  UNL1        0.0157
     16 C         -11.2170  -19.0030   23.8846 C.3     1  UNL1        0.0000
     17 C         -11.4608  -17.7062   23.1713 C.3     1  UNL1        0.0013
     18 C         -11.7046  -16.4095   22.4580 C.3     1  UNL1        0.0000
     19 C         -12.9349  -17.8537   23.4070 C.3     1  UNL1        0.0000
@<TRIPOS>BOND
     1    16    17    1
     2    17    18    1
     3    17    19    1
     4    17    15    1
     5     1    15    1
     6     1     2    1
     7     2     3    1
     8     3     8    1
     9     8     9   ar
    10     9    10   ar
    11    10    11    2
    12    10    12   ar
    13    12    13   ar
    14     3     4    1
    15     4     5    1
    16     5     6    1
    17     6     1    1
    18    13     8   ar
    19    12    14    1
    20     6     7    1
@<TRIPOS>MOLECULE
*****
 19 20 0 0 0
SMALL
GASTEIGER

@<TRIPOS>ATOM
      1 C          -9.4309  -18.4037   22.9440 C.3     1  UNL1        0.0544
      2 C          -8.1945  -18.9384   22.2841 C.3     1  UNL1        0.0234
      3 C          -6.9077  -18.1724   22.3695 C.3     1  UNL1        0.0629
      4 C          -6.8572  -16.8717   23.1149 C.3     1  UNL1        0.0247
      5 C          -8.0936  -16.3370   23.7748 C.3     1  UNL1        0.0690
      6 N          -9.3804  -17.1030   23.6894 N.3     1  UNL1       -0.2985
      7 H         -10.0623  -16.4849   23.2496 H       1  UNL1        0.1232
      8 C          -5.6713  -18.7071   21.7096 C.ar    1  UNL1        0.1547
      9 C          -4.4574  -19.2399   22.4114 C.ar    1  UNL1        0.0986
     10 C          -3.4677  -19.6650   21.3675 C.ar    1  UNL1        0.2884
     11 O          -2.1135  -20.2563   21.6253 O.2     1  UNL1       -0.2645
     12 N          -4.0699  -19.3950   20.0205 N.ar    1  UNL1       -0.1839
     13 O          -5.4319  -18.8030   20.2319 O.2     1  UNL1       -0.3802
     14 H          -3.6458  -19.5747   19.1504 H       1  UNL1        0.2107
     15 C         -10.7177  -19.1697   22.8585 C.3     1  UNL1        0.0157
     16 C         -11.9314  -18.8825   24.5744 C.3     1  UNL1        0.0000
     17 C         -12.0210  -18.4795   23.1324 C.3     1  UNL1        0.0013
     18 C         -12.1106  -18.0765   21.6903 C.3     1  UNL1        0.0000
     19 C         -13.3243  -17.7892   23.4062 C.3     1  UNL1        0.0000
@<TRIPOS>BOND
     1    16    17    1
     2    17    18    1
     3    17    19    1
     4    17    15    1
     5     1    15    1
     6     1     2    1
     7     2     3    1
     8     3     8    1
     9     8     9   ar
    10     9    10   ar
    11    10    11    2
    12    10    12   ar
    13    12    13   ar
    14     3     4    1
    15     4     5    1
    16     5     6    1
    17     6     1    1
    18    13     8   ar
    19    12    14    1
    20     6     7    1
@<TRIPOS>MOLECULE
*****
 19 20 0 0 0
SMALL
GASTEIGER

@<TRIPOS>ATOM
      1 C          -9.2913  -16.8381   22.8390 C.3     1  UNL1        0.0544
      2 C          -7.9215  -17.3582   22.5178 C.3     1  UNL1        0.0234
      3 C          -6.7323  -16.8646   23.2874 C.3     1  UNL1        0.0629
      4 C          -6.9129  -15.8509   24.3781 C.3     1  UNL1        0.0247
      5 C          -8.2827  -15.3308   24.6993 C.3     1  UNL1        0.0690
      6 N          -9.4719  -15.8244   23.9297 N.3     1  UNL1       -0.2985
      7 H          -9.9063  -15.0064   23.5025 H       1  UNL1        0.1232
      8 C          -5.3625  -17.3848   22.9662 C.ar    1  UNL1        0.1547
      9 C          -5.0375  -18.7587   22.4595 C.ar    1  UNL1        0.0986
     10 C          -3.5514  -18.8453   22.2755 C.ar    1  UNL1        0.2884
     11 O          -2.7920  -20.0422   21.7846 O.2     1  UNL1       -0.2645
     12 N          -2.9578  -17.5249   22.6684 N.ar    1  UNL1       -0.1839
     13 O          -4.0772  -16.6223   23.0953 O.2     1  UNL1       -0.3802
     14 H          -2.0016  -17.2917   22.6495 H       1  UNL1        0.2107
     15 C         -10.4804  -17.3317   22.0694 C.3     1  UNL1        0.0157
     16 C         -12.3393  -16.3264   22.2537 C.3     1  UNL1        0.0000
     17 C         -11.7711  -17.6106   22.7808 C.3     1  UNL1        0.0013
     18 C         -11.2030  -18.8948   23.3080 C.3     1  UNL1        0.0000
     19 C         -13.0619  -17.8896   23.4924 C.3     1  UNL1        0.0000
@<TRIPOS>BOND
     1    16    17    1
     2    17    18    1
     3    17    19    1
     4    17    15    1
     5     1    15    1
     6     1     2    1
     7     2     3    1
     8     3     8    1
     9     8     9   ar
    10     9    10   ar
    11    10    11    2
    12    10    12   ar
    13    12    13   ar
    14     3     4    1
    15     4     5    1
    16     5     6    1
    17     6     1    1
    18    13     8   ar
    19    12    14    1
    20     6     7    1
@<TRIPOS>MOLECULE
*****
 19 20 0 0 0
SMALL
GASTEIGER

@<TRIPOS>ATOM
      1 C          -6.6264  -18.5206   22.3602 C.3     1  UNL1        0.0544
      2 C          -8.1176  -18.6455   22.2570 C.3     1  UNL1        0.0234
      3 C          -8.9983  -17.5254   22.7258 C.3     1  UNL1        0.0629
      4 C          -8.3879  -16.2804   23.2977 C.3     1  UNL1        0.0247
      5 C          -6.8967  -16.1555   23.4009 C.3     1  UNL1        0.0690
      6 N          -6.0160  -17.2755   22.9322 N.3     1  UNL1       -0.2985
      7 H          -5.4549  -17.5641   23.7336 H       1  UNL1        0.1232
      8 C         -10.4896  -17.6504   22.6225 C.ar    1  UNL1        0.1547
      9 C         -11.4350  -17.8931   23.7615 C.ar    1  UNL1        0.0986
     10 C         -12.8269  -17.9473   23.2051 C.ar    1  UNL1        0.2884
     11 O         -14.0834  -18.1714   23.9932 O.2     1  UNL1       -0.2645
     12 N         -12.7418  -17.7382   21.7221 N.ar    1  UNL1       -0.1839
     13 O         -11.2972  -17.5547   21.3621 O.2     1  UNL1       -0.3802
     14 H         -13.5007  -17.7238   21.0952 H       1  UNL1        0.2107
     15 C          -5.7457  -19.6407   21.8914 C.3     1  UNL1        0.0157
     16 C          -5.7936  -19.1862   19.8200 C.3     1  UNL1        0.0000
     17 C          -4.7095  -19.3888   20.8366 C.3     1  UNL1        0.0013
     18 C          -3.6253  -19.5914   21.8532 C.3     1  UNL1        0.0000
     19 C          -3.6732  -19.1369   19.7817 C.3     1  UNL1        0.0000
@<TRIPOS>BOND
     1    16    17    1
     2    17    18    1
     3    17    19    1
     4    17    15    1
     5     1    15    1
     6     1     2    1
     7     2     3    1
     8     3     8    1
     9     8     9   ar
    10     9    10   ar
    11    10    11    2
    12    10    12   ar
    13    12    13   ar
    14     3     4    1
    15     4     5    1
    16     5     6    1
    17     6     1    1
    18    13     8   ar
    19    12    14    1
    20     6     7    1
@<TRIPOS>MOLECULE
*****
 19 20 0 0 0
SMALL
GASTEIGER

@<TRIPOS>ATOM
      1 C          -5.4458  -18.4888   22.3435 C.3     1  UNL1        0.0544
      2 C          -6.9406  -18.5083   22.2206 C.3     1  UNL1        0.0234
      3 C          -7.7581  -17.4112   22.8357 C.3     1  UNL1        0.0629
      4 C          -7.0807  -16.2947   23.5736 C.3     1  UNL1        0.0247
      5 C          -5.5859  -16.2752   23.6965 C.3     1  UNL1        0.0690
      6 N          -4.7685  -17.3723   23.0814 N.3     1  UNL1       -0.2985
      7 H          -4.2341  -17.8005   23.8374 H       1  UNL1        0.1232
      8 C          -9.2530  -17.4308   22.7128 C.ar    1  UNL1        0.1547
      9 C         -10.0324  -17.4237   21.4313 C.ar    1  UNL1        0.0986
     10 C         -11.4920  -17.4493   21.7763 C.ar    1  UNL1        0.2884
     11 O         -12.6293  -17.4516   20.7983 O.2     1  UNL1       -0.2645
     12 N         -11.6146  -17.4724   23.2712 N.ar    1  UNL1       -0.1839
     13 O         -10.2308  -17.4609   23.8499 O.2     1  UNL1       -0.3802
     14 H         -12.4556  -17.4916   23.7826 H       1  UNL1        0.2107
     15 C          -4.6283  -19.5858   21.7284 C.3     1  UNL1        0.0157
     16 C          -2.5080  -19.5696   21.6689 C.3     1  UNL1        0.0000
     17 C          -3.5990  -19.2604   20.6871 C.3     1  UNL1        0.0013
     18 C          -4.6900  -18.9511   19.7053 C.3     1  UNL1        0.0000
     19 C          -2.5696  -18.9349   19.6456 C.3     1  UNL1        0.0000
@<TRIPOS>BOND
     1    16    17    1
     2    17    18    1
     3    17    19    1
     4    17    15    1
     5     1    15    1
     6     1     2    1
     7     2     3    1
     8     3     8    1
     9     8     9   ar
    10     9    10   ar
    11    10    11    2
    12    10    12   ar
    13    12    13   ar
    14     3     4    1
    15     4     5    1
    16     5     6    1
    17     6     1    1
    18    13     8   ar
    19    12    14    1
    20     6     7    1
@<TRIPOS>MOLECULE
*****
 19 20 0 0 0
SMALL
GASTEIGER

@<TRIPOS>ATOM
      1 C          -9.8115  -18.3734   20.8334 C.3     1  UNL1        0.0544
      2 C          -8.8888  -17.6984   21.8045 C.3     1  UNL1        0.0234
      3 C          -7.4123  -17.9543   21.7379 C.3     1  UNL1        0.0629
      4 C          -6.8584  -18.8850   20.7002 C.3     1  UNL1        0.0247
      5 C          -7.7811  -19.5600   19.7291 C.3     1  UNL1        0.0690
      6 N          -9.2576  -19.3041   19.7957 N.3     1  UNL1       -0.2985
      7 H          -9.7068  -20.2082   19.9412 H       1  UNL1        0.1232
      8 C          -6.4896  -17.2793   22.7091 C.ar    1  UNL1        0.1547
      9 C          -6.8588  -16.1740   23.6535 C.ar    1  UNL1        0.0986
     10 C          -5.6331  -15.8027   24.4344 C.ar    1  UNL1        0.2884
     11 O          -5.5489  -14.7418   25.4915 O.2     1  UNL1       -0.2645
     12 N          -4.5063  -16.6786   23.9726 N.ar    1  UNL1       -0.1839
     13 O          -5.0357  -17.5912   22.9063 O.2     1  UNL1       -0.3802
     14 H          -3.5817  -16.6581   24.3101 H       1  UNL1        0.2107
     15 C         -11.2880  -18.1175   20.9000 C.3     1  UNL1        0.0157
     16 C         -11.5017  -19.4770   22.5143 C.3     1  UNL1        0.0000
     17 C         -11.9845  -18.0860   22.2280 C.3     1  UNL1        0.0013
     18 C         -12.4673  -16.6950   21.9418 C.3     1  UNL1        0.0000
     19 C         -12.6811  -18.0544   23.5562 C.3     1  UNL1        0.0000
@<TRIPOS>BOND
     1    16    17    1
     2    17    18    1
     3    17    19    1
     4    17    15    1
     5     1    15    1
     6     1     2    1
     7     2     3    1
     8     3     8    1
     9     8     9   ar
    10     9    10   ar
    11    10    11    2
    12    10    12   ar
    13    12    13   ar
    14     3     4    1
    15     4     5    1
    16     5     6    1
    17     6     1    1
    18    13     8   ar
    19    12    14    1
    20     6     7    1
@<TRIPOS>MOLECULE
*****
 19 20 0 0 0
SMALL
GASTEIGER

@<TRIPOS>ATOM
      1 C          -6.4602  -16.4529   23.4602 C.3     1  UNL1        0.0544
      2 C          -7.8144  -16.6225   22.8377 C.3     1  UNL1        0.0234
      3 C          -8.0662  -17.7548   21.8867 C.3     1  UNL1        0.0629
      4 C          -6.9638  -18.7176   21.5582 C.3     1  UNL1        0.0247
      5 C          -5.6097  -18.5480   22.1807 C.3     1  UNL1        0.0690
      6 N          -5.3579  -17.4156   23.1317 N.3     1  UNL1       -0.2985
      7 H          -4.5939  -16.8656   22.7389 H       1  UNL1        0.1232
      8 C          -9.4204  -17.9244   21.2642 C.ar    1  UNL1        0.1547
      9 C         -10.7361  -17.6301   21.9217 C.ar    1  UNL1        0.0986
     10 C         -11.8254  -17.9419   20.9388 C.ar    1  UNL1        0.2884
     11 O         -13.2986  -17.7928   21.1787 O.2     1  UNL1       -0.2645
     12 N         -11.1830  -18.4288   19.6738 N.ar    1  UNL1       -0.1839
     13 O          -9.6966  -18.4180   19.8749 O.2     1  UNL1       -0.3802
     14 H         -11.6542  -18.7067   18.8552 H       1  UNL1        0.2107
     15 C          -6.2084  -15.3205   24.4112 C.3     1  UNL1        0.0157
     16 C          -5.0837  -15.6901   26.1713 C.3     1  UNL1        0.0000
     17 C          -6.5367  -15.4763   25.8665 C.3     1  UNL1        0.0013
     18 C          -7.9897  -15.2624   25.5616 C.3     1  UNL1        0.0000
     19 C          -6.8650  -15.6320   27.3219 C.3     1  UNL1        0.0000
@<TRIPOS>BOND
     1    16    17    1
     2    17    18    1
     3    17    19    1
     4    17    15    1
     5     1    15    1
     6     1     2    1
     7     2     3    1
     8     3     8    1
     9     8     9   ar
    10     9    10   ar
    11    10    11    2
    12    10    12   ar
    13    12    13   ar
    14     3     4    1
    15     4     5    1
    16     5     6    1
    17     6     1    1
    18    13     8   ar
    19    12    14    1
    20     6     7    1
@<TRIPOS>MOLECULE
*****
 19 20 0 0 0
SMALL
GASTEIGER

@<TRIPOS>ATOM
      1 C         -12.3892   -6.3894   18.8307 C.3     1  UNL1        0.0544
      2 C         -13.2508   -7.5974   18.6113 C.3     1  UNL1        0.0234
      3 C         -14.7282   -7.5199   18.8591 C.3     1  UNL1        0.0629
      4 C         -15.3439   -6.2343   19.3263 C.3     1  UNL1        0.0247
      5 C         -14.4822   -5.0263   19.5457 C.3     1  UNL1        0.0690
      6 N         -13.0048   -5.1039   19.2979 N.3     1  UNL1       -0.2985
      7 H         -12.5459   -4.8594   20.1754 H       1  UNL1        0.1232
      8 C         -15.5899   -8.7280   18.6396 C.ar    1  UNL1        0.1547
      9 C         -17.0645   -8.7211   18.3651 C.ar    1  UNL1        0.0986
     10 C         -17.5142  -10.1438   18.2120 C.ar    1  UNL1        0.2884
     11 O         -18.9147  -10.6003   17.9287 O.2     1  UNL1       -0.2645
     12 N         -16.3174  -11.0301   18.3920 N.ar    1  UNL1       -0.1839
     13 O         -15.1282  -10.1550   18.6562 O.2     1  UNL1       -0.3802
     14 H         -16.3132  -12.0135   18.3449 H       1  UNL1        0.2107
     15 C         -10.9118   -6.4669   18.5829 C.3     1  UNL1        0.0157
     16 C          -9.5820   -4.9165   19.1553 C.3     1  UNL1        0.0000
     17 C         -10.2121   -5.3509   17.8653 C.3     1  UNL1        0.0013
     18 C         -10.8422   -5.7854   16.5753 C.3     1  UNL1        0.0000
     19 C          -9.5124   -4.2349   17.1476 C.3     1  UNL1        0.0000
@<TRIPOS>BOND
     1    16    17    1
     2    17    18    1
     3    17    19    1
     4    17    15    1
     5     1    15    1
     6     1     2    1
     7     2     3    1
     8     3     8    1
     9     8     9   ar
    10     9    10   ar
    11    10    11    2
    12    10    12   ar
    13    12    13   ar
    14     3     4    1
    15     4     5    1
    16     5     6    1
    17     6     1    1
    18    13     8   ar
    19    12    14    1
    20     6     7    1
