@<TRIPOS>MOLECULE
*****
 34 38 0 0 0
SMALL
GASTEIGER

@<TRIPOS>ATOM
      1 N          -9.2293  -16.0375   23.2291 N.3     1  UNL1       -0.2712
      2 C          -9.1219  -15.6117   24.6634 C.3     1  UNL1        0.0738
      3 C          -7.6772  -15.6817   25.0607 C.3     1  UNL1        0.0372
      4 C          -6.7180  -15.4618   26.1927 C.3     1  UNL1        0.0245
      5 C          -5.3396  -15.7949   25.7037 C.3     1  UNL1        0.0909
      6 N          -5.4470  -16.2207   24.2693 N.pl3   1  UNL1       -0.3077
      7 C          -6.8917  -16.1507   23.8720 C.3     1  UNL1        0.0901
      8 C          -7.8510  -16.3706   22.7400 C.3     1  UNL1        0.0921
      9 C          -4.3094  -16.6424   23.3873 C.ar    1  UNL1        0.0478
     10 C          -3.9631  -18.0957   23.2532 C.ar    1  UNL1        0.0145
     11 C          -2.8255  -18.5174   22.3711 C.ar    1  UNL1        0.0051
     12 C          -2.0342  -17.4858   21.6231 C.ar    1  UNL1        0.0715
     13 C          -2.3804  -16.0325   21.7571 C.ar    1  UNL1        0.0051
     14 C          -3.5180  -15.6107   22.6392 C.ar    1  UNL1        0.0145
     15 C          -0.8966  -17.9075   20.7410 C.3     1  UNL1        0.4186
     16 F           0.2410  -18.3292   19.8590 F       1  UNL1       -0.1659
     17 F          -1.1989  -19.3462   21.0391 F       1  UNL1       -0.1659
     18 F          -0.5944  -16.4689   20.4430 F       1  UNL1       -0.1659
     19 C         -10.4931  -16.1163   22.4250 C.3     1  UNL1        0.0731
     20 C         -11.6015  -17.0296   22.8576 C.3     1  UNL1        0.0294
     21 C         -12.1967  -18.0013   21.8820 C.3     1  UNL1        0.0666
     22 S         -11.5992  -19.3682   21.7258 S.3     1  UNL1       -0.0756
     23 C          -9.3450  -19.2163   19.3710 C.3     1  UNL1        0.1340
     24 N          -9.0870  -19.4965   20.8218 N.ar    1  UNL1       -0.2872
     25 C         -10.1231  -19.5663   21.9042 C.ar    1  UNL1        0.1933
     26 N          -9.4240  -19.8690   23.1964 N.ar    1  UNL1       -0.1221
     27 N          -7.9557  -19.9863   22.9126 N.ar    1  UNL1       -0.1266
     28 C          -7.7474  -19.7560   21.4450 C.ar    1  UNL1        0.1862
     29 C          -6.4307  -19.7810   20.7268 C.ar    1  UNL1        0.1362
     30 C          -5.6575  -21.0621   20.6223 C.ar    1  UNL1        0.1211
     31 N          -4.3409  -21.0870   19.9041 N.ar    1  UNL1       -0.2390
     32 C          -3.7975  -19.8307   19.2904 C.ar    1  UNL1        0.1195
     33 C          -4.5706  -18.5496   19.3949 C.ar    1  UNL1        0.1196
     34 N          -5.8873  -18.5248   20.1132 N.ar    1  UNL1       -0.2375
@<TRIPOS>BOND
     1    23    24    1
     2    24    25   ar
     3    25    22    1
     4    22    21    1
     5    21    20    1
     6    20    19    1
     7    19     1    1
     8     1     2    1
     9     2     3    1
    10     3     4    1
    11     4     5    1
    12     5     6    1
    13     6     9    1
    14     9    10   ar
    15    10    11   ar
    16    11    12   ar
    17    12    15    1
    18    15    16    1
    19    15    17    1
    20    15    18    1
    21    12    13   ar
    22    13    14   ar
    23     6     7    1
    24     7     8    1
    25    25    26   ar
    26    26    27   ar
    27    27    28   ar
    28    28    29    1
    29    29    30   ar
    30    30    31   ar
    31    31    32   ar
    32    32    33   ar
    33    33    34   ar
    34    28    24   ar
    35    34    29   ar
    36     8     1    1
    37     7     3    1
    38    14     9   ar
@<TRIPOS>MOLECULE
*****
 34 38 0 0 0
SMALL
GASTEIGER

@<TRIPOS>ATOM
      1 N          -3.8621  -19.1006   19.6590 N.3     1  UNL1       -0.2712
      2 C          -3.7807  -20.1918   20.6850 C.3     1  UNL1        0.0738
      3 C          -5.1274  -20.3201   21.3330 C.3     1  UNL1        0.0372
      4 C          -5.9095  -21.0737   22.3676 C.3     1  UNL1        0.0245
      5 C          -7.3065  -20.5276   22.3815 C.3     1  UNL1        0.0909
      6 N          -7.3878  -19.4363   21.3555 N.pl3   1  UNL1       -0.3077
      7 C          -6.0411  -19.3081   20.7075 C.3     1  UNL1        0.0901
      8 C          -5.2590  -18.5545   19.6729 C.3     1  UNL1        0.0921
      9 C          -8.6026  -18.6172   21.0339 C.ar    1  UNL1        0.0478
     10 C          -9.5521  -19.0714   19.9653 C.ar    1  UNL1        0.0145
     11 C         -10.7669  -18.2523   19.6438 C.ar    1  UNL1        0.0051
     12 C         -11.0321  -16.9789   20.3908 C.ar    1  UNL1        0.0715
     13 C         -10.0825  -16.5246   21.4595 C.ar    1  UNL1        0.0051
     14 C          -8.8677  -17.3437   21.7810 C.ar    1  UNL1        0.0145
     15 C         -12.2468  -16.1598   20.0693 C.3     1  UNL1        0.4186
     16 F         -13.4616  -15.3406   19.7477 F       1  UNL1       -0.1659
     17 F         -11.4515  -15.3725   19.0704 F       1  UNL1       -0.1659
     18 F         -13.0421  -16.9470   21.0681 F       1  UNL1       -0.1659
     19 C          -2.7429  -18.6370   18.7744 C.3     1  UNL1        0.0731
     20 C          -1.4292  -18.2340   19.3759 C.3     1  UNL1        0.0294
     21 C          -1.3731  -17.1175   20.3761 C.3     1  UNL1        0.0666
     22 S          -1.8467  -17.3448   21.7811 S.3     1  UNL1       -0.0756
     23 C          -3.9883  -18.1910   24.0935 C.3     1  UNL1        0.1340
     24 N          -3.8909  -16.8490   23.4305 N.ar    1  UNL1       -0.2872
     25 C          -2.9065  -16.4600   22.3676 C.ar    1  UNL1        0.1933
     26 N          -3.1680  -15.0310   21.9942 N.ar    1  UNL1       -0.1221
     27 N          -4.3139  -14.5367   22.8263 N.ar    1  UNL1       -0.1266
     28 C          -4.7608  -15.6602   23.7140 C.ar    1  UNL1        0.1862
     29 C          -5.8808  -15.6048   24.7103 C.ar    1  UNL1        0.1362
     30 C          -5.5774  -15.5758   26.1790 C.ar    1  UNL1        0.1211
     31 N          -6.6974  -15.5203   27.1753 N.ar    1  UNL1       -0.2390
     32 C          -8.1208  -15.4940   26.7027 C.ar    1  UNL1        0.1195
     33 C          -8.4242  -15.5230   25.2340 C.ar    1  UNL1        0.1196
     34 N          -7.3041  -15.5785   24.2378 N.ar    1  UNL1       -0.2375
@<TRIPOS>BOND
     1    23    24    1
     2    24    25   ar
     3    25    22    1
     4    22    21    1
     5    21    20    1
     6    20    19    1
     7    19     1    1
     8     1     2    1
     9     2     3    1
    10     3     4    1
    11     4     5    1
    12     5     6    1
    13     6     9    1
    14     9    10   ar
    15    10    11   ar
    16    11    12   ar
    17    12    15    1
    18    15    16    1
    19    15    17    1
    20    15    18    1
    21    12    13   ar
    22    13    14   ar
    23     6     7    1
    24     7     8    1
    25    25    26   ar
    26    26    27   ar
    27    27    28   ar
    28    28    29    1
    29    29    30   ar
    30    30    31   ar
    31    31    32   ar
    32    32    33   ar
    33    33    34   ar
    34    28    24   ar
    35    34    29   ar
    36     8     1    1
    37     7     3    1
    38    14     9   ar
@<TRIPOS>MOLECULE
*****
 34 38 0 0 0
SMALL
GASTEIGER

@<TRIPOS>ATOM
      1 N         -10.4064  -18.9011   20.2955 N.3     1  UNL1       -0.2712
      2 C         -10.7194  -19.6268   21.5704 C.3     1  UNL1        0.0738
      3 C          -9.4211  -19.9852   22.2305 C.3     1  UNL1        0.0372
      4 C          -8.8121  -20.6552   23.4265 C.3     1  UNL1        0.0245
      5 C          -7.3202  -20.5651   23.2988 C.3     1  UNL1        0.0909
      6 N          -7.0072  -19.8393   22.0238 N.pl3   1  UNL1       -0.3077
      7 C          -8.3056  -19.4809   21.3637 C.3     1  UNL1        0.0901
      8 C          -8.9145  -18.8109   20.1677 C.3     1  UNL1        0.0921
      9 C          -5.6365  -19.5268   21.5009 C.ar    1  UNL1        0.0478
     10 C          -4.4592  -19.5353   22.4304 C.ar    1  UNL1        0.0145
     11 C          -3.0885  -19.2228   21.9075 C.ar    1  UNL1        0.0051
     12 C          -2.8950  -18.9018   20.4552 C.ar    1  UNL1        0.0715
     13 C          -4.0723  -18.8932   19.5256 C.ar    1  UNL1        0.0051
     14 C          -5.4430  -19.2057   20.0485 C.ar    1  UNL1        0.0145
     15 C          -1.5242  -18.5893   19.9323 C.3     1  UNL1        0.4186
     16 F          -0.1535  -18.2768   19.4094 F       1  UNL1       -0.1659
     17 F          -2.0362  -18.6959   18.5264 F       1  UNL1       -0.1659
     18 F          -1.0122  -18.4827   21.3381 F       1  UNL1       -0.1659
     19 C         -11.4091  -18.3605   19.3197 C.3     1  UNL1        0.0731
     20 C         -11.6976  -16.8890   19.2785 C.3     1  UNL1        0.0294
     21 C         -12.4192  -16.2339   20.4187 C.3     1  UNL1        0.0666
     22 S         -11.8032  -16.2182   21.7862 S.3     1  UNL1       -0.0756
     23 C          -9.9337  -16.9814   24.3499 C.3     1  UNL1        0.1340
     24 N          -9.4921  -16.2297   23.1292 N.ar    1  UNL1       -0.2872
     25 C         -10.3513  -15.8789   21.9509 C.ar    1  UNL1        0.1933
     26 N          -9.5040  -15.1292   20.9660 N.ar    1  UNL1       -0.1221
     27 N          -8.1210  -15.0166   21.5357 N.ar    1  UNL1       -0.1266
     28 C          -8.1135  -15.6967   22.8727 C.ar    1  UNL1        0.1862
     29 C          -6.9346  -15.8219   23.7917 C.ar    1  UNL1        0.1362
     30 C          -7.0438  -15.3693   25.2176 C.ar    1  UNL1        0.1211
     31 N          -5.8649  -15.4945   26.1366 N.ar    1  UNL1       -0.2390
     32 C          -4.5768  -16.0724   25.6295 C.ar    1  UNL1        0.1195
     33 C          -4.4676  -16.5250   24.2036 C.ar    1  UNL1        0.1196
     34 N          -5.6466  -16.3997   23.2847 N.ar    1  UNL1       -0.2375
@<TRIPOS>BOND
     1    23    24    1
     2    24    25   ar
     3    25    22    1
     4    22    21    1
     5    21    20    1
     6    20    19    1
     7    19     1    1
     8     1     2    1
     9     2     3    1
    10     3     4    1
    11     4     5    1
    12     5     6    1
    13     6     9    1
    14     9    10   ar
    15    10    11   ar
    16    11    12   ar
    17    12    15    1
    18    15    16    1
    19    15    17    1
    20    15    18    1
    21    12    13   ar
    22    13    14   ar
    23     6     7    1
    24     7     8    1
    25    25    26   ar
    26    26    27   ar
    27    27    28   ar
    28    28    29    1
    29    29    30   ar
    30    30    31   ar
    31    31    32   ar
    32    32    33   ar
    33    33    34   ar
    34    28    24   ar
    35    34    29   ar
    36     8     1    1
    37     7     3    1
    38    14     9   ar
@<TRIPOS>MOLECULE
*****
 34 38 0 0 0
SMALL
GASTEIGER

@<TRIPOS>ATOM
      1 N         -10.9602  -19.3144   22.2358 N.3     1  UNL1       -0.2712
      2 C         -11.3856  -19.6686   20.8417 C.3     1  UNL1        0.0738
      3 C         -10.1508  -19.8077   20.0016 C.3     1  UNL1        0.0372
      4 C          -9.6505  -20.1127   18.6208 C.3     1  UNL1        0.0245
      5 C          -8.1527  -20.0328   18.6422 C.3     1  UNL1        0.0909
      6 N          -7.7274  -19.6786   20.0364 N.pl3   1  UNL1       -0.3077
      7 C          -8.9622  -19.5395   20.8765 C.3     1  UNL1        0.0901
      8 C          -9.4625  -19.2345   22.2573 C.3     1  UNL1        0.0921
      9 C          -6.3151  -19.4956   20.5076 C.ar    1  UNL1        0.0478
     10 C          -5.2540  -19.0545   19.5436 C.ar    1  UNL1        0.0145
     11 C          -3.8418  -18.8715   20.0148 C.ar    1  UNL1        0.0051
     12 C          -3.4906  -19.1295   21.4501 C.ar    1  UNL1        0.0715
     13 C          -4.5518  -19.5706   22.4142 C.ar    1  UNL1        0.0051
     14 C          -5.9640  -19.7536   21.9430 C.ar    1  UNL1        0.0145
     15 C          -2.0784  -18.9465   21.9213 C.3     1  UNL1        0.4186
     16 F          -0.6661  -18.7635   22.3926 F       1  UNL1       -0.1659
     17 F          -1.5791  -19.6706   20.7062 F       1  UNL1       -0.1659
     18 F          -2.5777  -18.2225   23.1364 F       1  UNL1       -0.1659
     19 C         -11.8724  -19.0809   23.4035 C.3     1  UNL1        0.0731
     20 C         -13.0071  -18.1069   23.2858 C.3     1  UNL1        0.0294
     21 C         -12.7256  -16.6513   23.0581 C.3     1  UNL1        0.0666
     22 S         -11.9982  -16.2124   21.8219 S.3     1  UNL1       -0.0756
     23 C         -10.0641  -16.5853   24.4239 C.3     1  UNL1        0.1340
     24 N          -9.6491  -16.0471   23.0867 N.ar    1  UNL1       -0.2872
     25 C         -10.5381  -15.8757   21.8907 C.ar    1  UNL1        0.1933
     26 N          -9.7106  -15.3084   20.7756 N.ar    1  UNL1       -0.1221
     27 N          -8.3102  -15.1292   21.2824 N.ar    1  UNL1       -0.1266
     28 C          -8.2722  -15.5857   22.7107 C.ar    1  UNL1        0.1862
     29 C          -7.0685  -15.5816   23.6059 C.ar    1  UNL1        0.1362
     30 C          -7.0992  -14.8245   24.9005 C.ar    1  UNL1        0.1211
     31 N          -5.8956  -14.8204   25.7956 N.ar    1  UNL1       -0.2390
     32 C          -4.6613  -15.5734   25.3961 C.ar    1  UNL1        0.1195
     33 C          -4.6306  -16.3305   24.1016 C.ar    1  UNL1        0.1196
     34 N          -5.8343  -16.3346   23.2065 N.ar    1  UNL1       -0.2375
@<TRIPOS>BOND
     1    23    24    1
     2    24    25   ar
     3    25    22    1
     4    22    21    1
     5    21    20    1
     6    20    19    1
     7    19     1    1
     8     1     2    1
     9     2     3    1
    10     3     4    1
    11     4     5    1
    12     5     6    1
    13     6     9    1
    14     9    10   ar
    15    10    11   ar
    16    11    12   ar
    17    12    15    1
    18    15    16    1
    19    15    17    1
    20    15    18    1
    21    12    13   ar
    22    13    14   ar
    23     6     7    1
    24     7     8    1
    25    25    26   ar
    26    26    27   ar
    27    27    28   ar
    28    28    29    1
    29    29    30   ar
    30    30    31   ar
    31    31    32   ar
    32    32    33   ar
    33    33    34   ar
    34    28    24   ar
    35    34    29   ar
    36     8     1    1
    37     7     3    1
    38    14     9   ar
@<TRIPOS>MOLECULE
*****
 34 38 0 0 0
SMALL
GASTEIGER

@<TRIPOS>ATOM
      1 N          -3.9312  -19.7937   20.5127 N.3     1  UNL1       -0.2712
      2 C          -2.6949  -19.0284   20.1442 C.3     1  UNL1        0.0738
      3 C          -2.6294  -17.8075   21.0133 C.3     1  UNL1        0.0372
      4 C          -1.8248  -16.5800   21.3227 C.3     1  UNL1        0.0245
      5 C          -2.5232  -15.8321   22.4195 C.3     1  UNL1        0.0909
      6 N          -3.7596  -16.5976   22.7879 N.pl3   1  UNL1       -0.3077
      7 C          -3.8251  -17.8184   21.9189 C.3     1  UNL1        0.0901
      8 C          -4.6298  -19.0459   21.6095 C.3     1  UNL1        0.0921
      9 C          -4.7555  -16.2101   23.8406 C.ar    1  UNL1        0.0478
     10 C          -6.1072  -15.6969   23.4416 C.ar    1  UNL1        0.0145
     11 C          -7.1031  -15.3094   24.4943 C.ar    1  UNL1        0.0051
     12 C          -6.7472  -15.4353   25.9460 C.ar    1  UNL1        0.0715
     13 C          -5.3954  -15.9486   26.3450 C.ar    1  UNL1        0.0051
     14 C          -4.3995  -16.3360   25.2924 C.ar    1  UNL1        0.0145
     15 C          -7.7431  -15.0478   26.9986 C.3     1  UNL1        0.4186
     16 F          -8.7390  -14.6604   28.0513 F       1  UNL1       -0.1659
     17 F          -8.8591  -15.2479   26.0165 F       1  UNL1       -0.1659
     18 F          -6.6271  -14.8478   27.9808 F       1  UNL1       -0.1659
     19 C          -4.3887  -21.0809   19.8932 C.3     1  UNL1        0.0731
     20 C          -5.7208  -21.6610   20.2661 C.3     1  UNL1        0.0294
     21 C          -6.9625  -21.2037   19.5596 C.3     1  UNL1        0.0666
     22 S          -7.3961  -19.7710   19.6567 S.3     1  UNL1       -0.0756
     23 C         -10.6299  -19.6453   20.0773 C.3     1  UNL1        0.1340
     24 N          -9.5936  -19.2266   21.0778 N.ar    1  UNL1       -0.2872
     25 C          -8.1073  -19.2844   20.8845 C.ar    1  UNL1        0.1933
     26 N          -7.4569  -18.7701   22.1345 N.ar    1  UNL1       -0.1221
     27 N          -8.5413  -18.3944   23.1004 N.ar    1  UNL1       -0.1266
     28 C          -9.8619  -18.6765   22.4474 C.ar    1  UNL1        0.1862
     29 C         -11.2134  -18.4486   23.0569 C.ar    1  UNL1        0.1362
     30 C         -11.5363  -19.0266   24.4028 C.ar    1  UNL1        0.1211
     31 N         -12.8878  -18.7987   25.0123 N.ar    1  UNL1       -0.2390
     32 C         -13.9164  -17.9927   24.2757 C.ar    1  UNL1        0.1195
     33 C         -13.5935  -17.4147   22.9297 C.ar    1  UNL1        0.1196
     34 N         -12.2420  -17.6427   22.3203 N.ar    1  UNL1       -0.2375
@<TRIPOS>BOND
     1    23    24    1
     2    24    25   ar
     3    25    22    1
     4    22    21    1
     5    21    20    1
     6    20    19    1
     7    19     1    1
     8     1     2    1
     9     2     3    1
    10     3     4    1
    11     4     5    1
    12     5     6    1
    13     6     9    1
    14     9    10   ar
    15    10    11   ar
    16    11    12   ar
    17    12    15    1
    18    15    16    1
    19    15    17    1
    20    15    18    1
    21    12    13   ar
    22    13    14   ar
    23     6     7    1
    24     7     8    1
    25    25    26   ar
    26    26    27   ar
    27    27    28   ar
    28    28    29    1
    29    29    30   ar
    30    30    31   ar
    31    31    32   ar
    32    32    33   ar
    33    33    34   ar
    34    28    24   ar
    35    34    29   ar
    36     8     1    1
    37     7     3    1
    38    14     9   ar
@<TRIPOS>MOLECULE
*****
 34 38 0 0 0
SMALL
GASTEIGER

@<TRIPOS>ATOM
      1 N           0.3583    2.3227   22.6609 N.3     1  UNL1       -0.2712
      2 C           0.8844    2.4448   24.0603 C.3     1  UNL1        0.0738
      3 C           1.8787    1.3434   24.2794 C.3     1  UNL1        0.0372
      4 C           2.8184    0.7381   25.2797 C.3     1  UNL1        0.0245
      5 C           3.4878   -0.4388   24.6341 C.3     1  UNL1        0.0909
      6 N           2.9617   -0.5609   23.2346 N.pl3   1  UNL1       -0.3077
      7 C           1.9673    0.5405   23.0154 C.3     1  UNL1        0.0901
      8 C           1.0276    1.1458   22.0151 C.3     1  UNL1        0.0921
      9 C           3.3600   -1.6018   22.2306 C.ar    1  UNL1        0.0478
     10 C           2.8950   -1.4893   20.8090 C.ar    1  UNL1        0.0145
     11 C           3.2934   -2.5302   19.8050 C.ar    1  UNL1        0.0051
     12 C           4.1568   -3.6834   20.2227 C.ar    1  UNL1        0.0715
     13 C           4.6219   -3.7959   21.6444 C.ar    1  UNL1        0.0051
     14 C           4.2235   -2.7551   22.6483 C.ar    1  UNL1        0.0145
     15 C           4.5552   -4.7242   19.2187 C.3     1  UNL1        0.4186
     16 F           4.9536   -5.7651   18.2147 F       1  UNL1       -0.1659
     17 F           5.6326   -3.8160   18.7046 F       1  UNL1       -0.1659
     18 F           3.4778   -5.6325   19.7328 F       1  UNL1       -0.1659
     19 C          -0.6585    3.2199   22.0197 C.3     1  UNL1        0.0731
     20 C          -0.2172    4.3010   21.0782 C.3     1  UNL1        0.0294
     21 C          -0.6465    4.2656   19.6413 C.3     1  UNL1        0.0666
     22 S           0.3768    4.1042   18.5566 S.3     1  UNL1       -0.0756
     23 C           3.6285    3.8321   18.5954 C.3     1  UNL1        0.1340
     24 N           2.6507    2.7024   18.4626 N.ar    1  UNL1       -0.2872
     25 C           1.1561    2.8275   18.4447 C.ar    1  UNL1        0.1933
     26 N           0.5775    1.4516   18.2954 N.ar    1  UNL1       -0.1221
     27 N           1.7146    0.4762   18.2209 N.ar    1  UNL1       -0.1266
     28 C           2.9960    1.2491   18.3243 C.ar    1  UNL1        0.1862
     29 C           4.3796    0.6705   18.2945 C.ar    1  UNL1        0.1362
     30 C           4.8353   -0.1231   17.1060 C.ar    1  UNL1        0.1211
     31 N           6.2188   -0.7017   17.0763 N.ar    1  UNL1       -0.2390
     32 C           7.1467   -0.4866   18.2351 C.ar    1  UNL1        0.1195
     33 C           6.6910    0.3069   19.4236 C.ar    1  UNL1        0.1196
     34 N           5.3074    0.8855   19.4533 N.ar    1  UNL1       -0.2375
@<TRIPOS>BOND
     1    23    24    1
     2    24    25   ar
     3    25    22    1
     4    22    21    1
     5    21    20    1
     6    20    19    1
     7    19     1    1
     8     1     2    1
     9     2     3    1
    10     3     4    1
    11     4     5    1
    12     5     6    1
    13     6     9    1
    14     9    10   ar
    15    10    11   ar
    16    11    12   ar
    17    12    15    1
    18    15    16    1
    19    15    17    1
    20    15    18    1
    21    12    13   ar
    22    13    14   ar
    23     6     7    1
    24     7     8    1
    25    25    26   ar
    26    26    27   ar
    27    27    28   ar
    28    28    29    1
    29    29    30   ar
    30    30    31   ar
    31    31    32   ar
    32    32    33   ar
    33    33    34   ar
    34    28    24   ar
    35    34    29   ar
    36     8     1    1
    37     7     3    1
    38    14     9   ar
@<TRIPOS>MOLECULE
*****
 34 38 0 0 0
SMALL
GASTEIGER

@<TRIPOS>ATOM
      1 N           7.8153   -4.3873   23.3687 N.3     1  UNL1       -0.2712
      2 C           8.1223   -5.8501   23.2428 C.3     1  UNL1        0.0738
      3 C           8.0293   -6.4625   24.6089 C.3     1  UNL1        0.0372
      4 C           8.1616   -7.7451   25.3754 C.3     1  UNL1        0.0245
      5 C           7.8789   -7.4535   26.8194 C.3     1  UNL1        0.0909
      6 N           7.5718   -5.9906   26.9453 N.pl3   1  UNL1       -0.3077
      7 C           7.6648   -5.3782   25.5792 C.3     1  UNL1        0.0901
      8 C           7.5325   -4.0956   24.8127 C.3     1  UNL1        0.0921
      9 C           7.2315   -5.2673   28.2145 C.ar    1  UNL1        0.0478
     10 C           6.7974   -3.8323   28.1666 C.ar    1  UNL1        0.0145
     11 C           6.4571   -3.1089   29.4359 C.ar    1  UNL1        0.0051
     12 C           6.5510   -3.8205   30.7530 C.ar    1  UNL1        0.0715
     13 C           6.9851   -5.2555   30.8009 C.ar    1  UNL1        0.0051
     14 C           7.3254   -5.9789   29.5317 C.ar    1  UNL1        0.0145
     15 C           6.2107   -3.0971   32.0222 C.3     1  UNL1        0.4186
     16 F           5.8704   -2.3737   33.2914 F       1  UNL1       -0.1659
     17 F           6.1708   -1.7990   31.2716 F       1  UNL1       -0.1659
     18 F           6.2506   -4.3952   32.7727 F       1  UNL1       -0.1659
     19 C           7.7946   -3.3910   22.2476 C.3     1  UNL1        0.0731
     20 C           8.1103   -3.8298   20.8484 C.3     1  UNL1        0.0294
     21 C           9.0947   -3.0549   20.0234 C.3     1  UNL1        0.0666
     22 S           8.6539   -1.8218   19.2920 S.3     1  UNL1       -0.0756
     23 C           6.1466   -0.3699   20.7936 C.3     1  UNL1        0.1340
     24 N           6.0991   -1.0537   19.4593 N.ar    1  UNL1       -0.2872
     25 C           7.2516   -1.7210   18.7691 C.ar    1  UNL1        0.1933
     26 N           6.7557   -2.2699   17.4642 N.ar    1  UNL1       -0.1221
     27 N           5.2966   -1.9418   17.3479 N.ar    1  UNL1       -0.1266
     28 C           4.8908   -1.1901   18.5810 C.ar    1  UNL1        0.1862
     29 C           3.5178   -0.6667   18.8827 C.ar    1  UNL1        0.1362
     30 C           2.9667    0.4883   18.1002 C.ar    1  UNL1        0.1211
     31 N           1.5937    1.0116   18.4020 N.ar    1  UNL1       -0.2390
     32 C           0.7719    0.3798   19.4862 C.ar    1  UNL1        0.1195
     33 C           1.3229   -0.7752   20.2686 C.ar    1  UNL1        0.1196
     34 N           2.6960   -1.2985   19.9668 N.ar    1  UNL1       -0.2375
@<TRIPOS>BOND
     1    23    24    1
     2    24    25   ar
     3    25    22    1
     4    22    21    1
     5    21    20    1
     6    20    19    1
     7    19     1    1
     8     1     2    1
     9     2     3    1
    10     3     4    1
    11     4     5    1
    12     5     6    1
    13     6     9    1
    14     9    10   ar
    15    10    11   ar
    16    11    12   ar
    17    12    15    1
    18    15    16    1
    19    15    17    1
    20    15    18    1
    21    12    13   ar
    22    13    14   ar
    23     6     7    1
    24     7     8    1
    25    25    26   ar
    26    26    27   ar
    27    27    28   ar
    28    28    29    1
    29    29    30   ar
    30    30    31   ar
    31    31    32   ar
    32    32    33   ar
    33    33    34   ar
    34    28    24   ar
    35    34    29   ar
    36     8     1    1
    37     7     3    1
    38    14     9   ar
@<TRIPOS>MOLECULE
*****
 34 38 0 0 0
SMALL
GASTEIGER

@<TRIPOS>ATOM
      1 N          -0.5217    2.9180   23.3208 N.3     1  UNL1       -0.2712
      2 C          -1.1808    3.8158   22.3161 C.3     1  UNL1        0.0738
      3 C          -0.7254    3.3957   20.9501 C.3     1  UNL1        0.0372
      4 C          -0.8513    3.6909   19.4848 C.3     1  UNL1        0.0245
      5 C           0.0114    2.7159   18.7396 C.3     1  UNL1        0.0909
      6 N           0.6705    1.8181   19.7445 N.pl3   1  UNL1       -0.3077
      7 C           0.2151    2.2382   21.1105 C.3     1  UNL1        0.0901
      8 C           0.3410    1.9430   22.5758 C.3     1  UNL1        0.0921
      9 C           1.6185    0.6970   19.4371 C.ar    1  UNL1        0.0478
     10 C           1.6622   -0.5125   20.3232 C.ar    1  UNL1        0.0145
     11 C           2.6102   -1.6336   20.0159 C.ar    1  UNL1        0.0051
     12 C           3.5145   -1.5451   18.8225 C.ar    1  UNL1        0.0715
     13 C           3.4709   -0.3356   17.9363 C.ar    1  UNL1        0.0051
     14 C           2.5229    0.7855   18.2436 C.ar    1  UNL1        0.0145
     15 C           4.4625   -2.6662   18.5151 C.3     1  UNL1        0.4186
     16 F           5.4106   -3.7873   18.2078 F       1  UNL1       -0.1659
     17 F           5.5522   -1.6711   18.2461 F       1  UNL1       -0.1659
     18 F           3.3729   -3.6614   18.7841 F       1  UNL1       -0.1659
     19 C          -0.6949    2.9836   24.8094 C.3     1  UNL1        0.0731
     20 C          -0.4092    1.7758   25.6517 C.3     1  UNL1        0.0294
     21 C           0.1278    1.9411   27.0425 C.3     1  UNL1        0.0666
     22 S          -0.1985    0.9265   28.0980 S.3     1  UNL1       -0.0756
     23 C           2.5781   -0.7641   28.3845 C.3     1  UNL1        0.1340
     24 N           1.9265    0.0503   29.4625 N.ar    1  UNL1       -0.2872
     25 C           0.6503    0.8274   29.3308 C.ar    1  UNL1        0.1933
     26 N           0.3717    1.4881   30.6483 N.ar    1  UNL1       -0.1221
     27 N           1.4758    1.1193   31.5944 N.ar    1  UNL1       -0.1266
     28 C           2.4368    0.2307   30.8615 C.ar    1  UNL1        0.1862
     29 C           3.6882   -0.3718   31.4281 C.ar    1  UNL1        0.1362
     30 C           5.0211    0.2468   31.1274 C.ar    1  UNL1        0.1211
     31 N           6.2726   -0.3556   31.6940 N.ar    1  UNL1       -0.2390
     32 C           6.1909   -1.5767   32.5614 C.ar    1  UNL1        0.1195
     33 C           4.8579   -2.1953   32.8622 C.ar    1  UNL1        0.1196
     34 N           3.6065   -1.5928   32.2955 N.ar    1  UNL1       -0.2375
@<TRIPOS>BOND
     1    23    24    1
     2    24    25   ar
     3    25    22    1
     4    22    21    1
     5    21    20    1
     6    20    19    1
     7    19     1    1
     8     1     2    1
     9     2     3    1
    10     3     4    1
    11     4     5    1
    12     5     6    1
    13     6     9    1
    14     9    10   ar
    15    10    11   ar
    16    11    12   ar
    17    12    15    1
    18    15    16    1
    19    15    17    1
    20    15    18    1
    21    12    13   ar
    22    13    14   ar
    23     6     7    1
    24     7     8    1
    25    25    26   ar
    26    26    27   ar
    27    27    28   ar
    28    28    29    1
    29    29    30   ar
    30    30    31   ar
    31    31    32   ar
    32    32    33   ar
    33    33    34   ar
    34    28    24   ar
    35    34    29   ar
    36     8     1    1
    37     7     3    1
    38    14     9   ar
@<TRIPOS>MOLECULE
*****
 34 38 0 0 0
SMALL
GASTEIGER

@<TRIPOS>ATOM
      1 N          -3.8648  -18.4156   19.2061 N.3     1  UNL1       -0.2712
      2 C          -3.5875  -19.8840   19.3358 C.3     1  UNL1        0.0738
      3 C          -4.7783  -20.5250   19.9850 C.3     1  UNL1        0.0372
      4 C          -5.3428  -21.8286   20.4663 C.3     1  UNL1        0.0245
      5 C          -6.7049  -21.5621   21.0353 C.3     1  UNL1        0.0909
      6 N          -6.9822  -20.0936   20.9056 N.pl3   1  UNL1       -0.3077
      7 C          -5.7914  -19.4527   20.2564 C.3     1  UNL1        0.0901
      8 C          -5.2269  -18.1490   19.7750 C.3     1  UNL1        0.0921
      9 C          -8.2309  -19.3897   21.3474 C.ar    1  UNL1        0.0478
     10 C          -8.5339  -19.2467   22.8094 C.ar    1  UNL1        0.0145
     11 C          -9.7827  -18.5428   23.2512 C.ar    1  UNL1        0.0051
     12 C         -10.7284  -17.9819   22.2310 C.ar    1  UNL1        0.0715
     13 C         -10.4254  -18.1249   20.7688 C.ar    1  UNL1        0.0051
     14 C          -9.1766  -18.8288   20.3270 C.ar    1  UNL1        0.0145
     15 C         -11.9771  -17.2780   22.6728 C.3     1  UNL1        0.4186
     16 F         -13.2258  -16.5741   23.1146 F       1  UNL1       -0.1659
     17 F         -11.9101  -17.9876   23.9927 F       1  UNL1       -0.1659
     18 F         -12.0441  -16.5685   21.3529 F       1  UNL1       -0.1659
     19 C          -2.9421  -17.3932   18.6117 C.3     1  UNL1        0.0731
     20 C          -1.6409  -17.0749   19.2867 C.3     1  UNL1        0.0294
     21 C          -1.0419  -18.0483   20.2582 C.3     1  UNL1        0.0666
     22 S          -1.5189  -18.0786   21.6799 S.3     1  UNL1       -0.0756
     23 C          -4.1672  -18.6795   23.4896 C.3     1  UNL1        0.1340
     24 N          -3.7253  -17.3349   22.9928 N.ar    1  UNL1       -0.2872
     25 C          -2.5080  -17.0587   22.1610 C.ar    1  UNL1        0.1933
     26 N          -2.4534  -15.5836   21.8947 N.ar    1  UNL1       -0.1221
     27 N          -3.6370  -14.9480   22.5619 N.ar    1  UNL1       -0.1266
     28 C          -4.4231  -16.0303   23.2406 C.ar    1  UNL1        0.1862
     29 C          -5.6854  -15.8414   24.0287 C.ar    1  UNL1        0.1362
     30 C          -7.0111  -15.8184   23.3274 C.ar    1  UNL1        0.1211
     31 N          -8.2733  -15.6294   24.1155 N.ar    1  UNL1       -0.2390
     32 C          -8.2097  -15.4634   25.6050 C.ar    1  UNL1        0.1195
     33 C          -6.8839  -15.4864   26.3063 C.ar    1  UNL1        0.1196
     34 N          -5.6217  -15.6754   25.5181 N.ar    1  UNL1       -0.2375
@<TRIPOS>BOND
     1    23    24    1
     2    24    25   ar
     3    25    22    1
     4    22    21    1
     5    21    20    1
     6    20    19    1
     7    19     1    1
     8     1     2    1
     9     2     3    1
    10     3     4    1
    11     4     5    1
    12     5     6    1
    13     6     9    1
    14     9    10   ar
    15    10    11   ar
    16    11    12   ar
    17    12    15    1
    18    15    16    1
    19    15    17    1
    20    15    18    1
    21    12    13   ar
    22    13    14   ar
    23     6     7    1
    24     7     8    1
    25    25    26   ar
    26    26    27   ar
    27    27    28   ar
    28    28    29    1
    29    29    30   ar
    30    30    31   ar
    31    31    32   ar
    32    32    33   ar
    33    33    34   ar
    34    28    24   ar
    35    34    29   ar
    36     8     1    1
    37     7     3    1
    38    14     9   ar
