@<TRIPOS>MOLECULE
*****
 25 27 0 0 0
SMALL
GASTEIGER

@<TRIPOS>ATOM
      1 C          -2.1027  -18.0386   20.7859 C.ar    1  UNL1        0.1109
      2 C          -2.0475  -16.7744   21.5913 C.ar    1  UNL1        0.1468
      3 F          -1.0451  -15.7116   21.2512 F       1  UNL1       -0.2039
      4 C          -2.9946  -16.5730   22.7369 C.ar    1  UNL1        0.0331
      5 C          -3.9970  -17.6358   23.0771 C.ar    1  UNL1        0.0416
      6 C          -4.0522  -18.9000   22.2716 C.ar    1  UNL1        0.1667
      7 C          -3.1050  -19.1014   21.1261 C.ar    1  UNL1        0.1803
      8 F          -3.1602  -20.3656   20.3207 F       1  UNL1       -0.2007
      9 N          -1.5425  -17.7971   18.2605 N.am    1  UNL1       -0.3252
     10 C          -1.1555  -18.2400   19.6404 C.2     1  UNL1        0.2472
     11 O           0.1787  -18.8843   19.8747 O.2     1  UNL1       -0.2702
     12 H          -0.9208  -17.9292   17.5087 H       1  UNL1        0.1453
     13 H          -2.4181  -17.3742   18.1067 H       1  UNL1        0.1453
     14 O          -5.0545  -19.9629   22.6118 O.3     1  UNL1       -0.4661
     15 C          -6.1952  -20.2441   21.6792 C.3     1  UNL1        0.2575
     16 C          -7.4883  -19.4991   21.8300 C.ar    1  UNL1        0.1338
     17 N          -7.8576  -18.2236   21.1324 N.ar    1  UNL1       -0.2202
     18 C          -9.2368  -17.8350   21.5761 C.ar    1  UNL1        0.1687
     19 N         -10.1151  -16.6721   21.2207 N.ar    1  UNL1       -0.2237
     20 C         -11.4765  -16.5447   21.8372 C.ar    1  UNL1        0.1119
     21 C         -11.9597  -17.5800   22.8091 C.ar    1  UNL1        0.0774
     22 CL        -13.3212  -17.4525   23.4256 Cl      1  UNL1       -0.0806
     23 C         -11.0814  -18.7429   23.1645 C.ar    1  UNL1        0.0226
     24 C          -9.7199  -18.8703   22.5480 C.ar    1  UNL1        0.0673
     25 S          -8.6393  -19.8988   22.7049 S.2     1  UNL1       -0.0655
@<TRIPOS>BOND
     1     9    10   am
     2    10    11    2
     3    10     1    1
     4     1     2   ar
     5     2     3    1
     6     2     4   ar
     7     4     5   ar
     8     5     6   ar
     9     6    14    1
    10    14    15    1
    11    15    16    1
    12    16    17   ar
    13    17    18   ar
    14    18    19   ar
    15    19    20   ar
    16    20    21   ar
    17    21    22    1
    18    21    23   ar
    19    23    24   ar
    20    24    25   ar
    21     6     7   ar
    22     7     8    1
    23     7     1   ar
    24    25    16   ar
    25    24    18   ar
    26     9    12    1
    27     9    13    1
@<TRIPOS>MOLECULE
*****
 25 27 0 0 0
SMALL
GASTEIGER

@<TRIPOS>ATOM
      1 C          -2.1696  -18.1318   21.0700 C.ar    1  UNL1        0.1109
      2 C          -2.8601  -19.4344   21.3460 C.ar    1  UNL1        0.1468
      3 F          -2.4034  -20.6861   20.6570 F       1  UNL1       -0.2039
      4 C          -4.0073  -19.4855   22.3111 C.ar    1  UNL1        0.0331
      5 C          -4.4640  -18.2339   23.0001 C.ar    1  UNL1        0.0416
      6 C          -3.7734  -16.9311   22.7241 C.ar    1  UNL1        0.1667
      7 C          -2.6262  -16.8801   21.7591 C.ar    1  UNL1        0.1803
      8 F          -1.9357  -15.5775   21.4831 F       1  UNL1       -0.2007
      9 N          -1.2787  -17.8358   18.6475 N.am    1  UNL1       -0.3252
     10 C          -1.0224  -18.0808   20.1050 C.2     1  UNL1        0.2472
     11 O           0.3812  -18.2748   20.5975 O.2     1  UNL1       -0.2702
     12 H          -0.5257  -17.8023   18.0142 H       1  UNL1        0.1453
     13 H          -2.1998  -17.7085   18.3243 H       1  UNL1        0.1453
     14 O          -4.2301  -15.6795   23.4132 O.3     1  UNL1       -0.4661
     15 C          -5.4175  -15.7180   24.3289 C.3     1  UNL1        0.2575
     16 C          -6.7928  -15.9205   23.7656 C.ar    1  UNL1        0.1338
     17 N          -7.2600  -15.4945   22.4054 N.ar    1  UNL1       -0.2202
     18 C          -8.6985  -15.8953   22.2627 C.ar    1  UNL1        0.1687
     19 N          -9.6786  -15.7338   21.1388 N.ar    1  UNL1       -0.2237
     20 C         -11.0806  -16.2460   21.2871 C.ar    1  UNL1        0.1119
     21 C         -11.5025  -16.9196   22.5592 C.ar    1  UNL1        0.0774
     22 CL        -12.9046  -17.4317   22.7074 Cl      1  UNL1       -0.0806
     23 C         -10.5223  -17.0810   23.6831 C.ar    1  UNL1        0.0226
     24 C          -9.1203  -16.5689   23.5348 C.ar    1  UNL1        0.0673
     25 S          -7.9426  -16.5845   24.4637 S.2     1  UNL1       -0.0655
@<TRIPOS>BOND
     1     9    10   am
     2    10    11    2
     3    10     1    1
     4     1     2   ar
     5     2     3    1
     6     2     4   ar
     7     4     5   ar
     8     5     6   ar
     9     6    14    1
    10    14    15    1
    11    15    16    1
    12    16    17   ar
    13    17    18   ar
    14    18    19   ar
    15    19    20   ar
    16    20    21   ar
    17    21    22    1
    18    21    23   ar
    19    23    24   ar
    20    24    25   ar
    21     6     7   ar
    22     7     8    1
    23     7     1   ar
    24    25    16   ar
    25    24    18   ar
    26     9    12    1
    27     9    13    1
@<TRIPOS>MOLECULE
*****
 25 27 0 0 0
SMALL
GASTEIGER

@<TRIPOS>ATOM
      1 C         -12.0412  -18.1218   22.5673 C.ar    1  UNL1        0.1109
      2 C         -12.2760  -16.7845   21.9297 C.ar    1  UNL1        0.1468
      3 F         -12.9788  -15.7021   22.6942 F       1  UNL1       -0.2039
      4 C         -11.8079  -16.5296   20.5276 C.ar    1  UNL1        0.0331
      5 C         -11.1050  -17.6120   19.7631 C.ar    1  UNL1        0.0416
      6 C         -10.8702  -18.9493   20.4008 C.ar    1  UNL1        0.1667
      7 C         -11.3383  -19.2041   21.8029 C.ar    1  UNL1        0.1803
      8 F         -11.1035  -20.5414   22.4405 F       1  UNL1       -0.2007
      9 N         -11.5438  -18.8754   25.0035 N.am    1  UNL1       -0.3252
     10 C         -12.5093  -18.3766   23.9694 C.2     1  UNL1        0.2472
     11 O         -13.9429  -18.1328   24.3375 O.2     1  UNL1       -0.2702
     12 H         -11.8511  -19.0426   25.9237 H       1  UNL1        0.1453
     13 H         -10.6030  -19.0354   24.7619 H       1  UNL1        0.1453
     14 O         -10.1673  -20.0317   19.6363 O.3     1  UNL1       -0.4661
     15 C          -8.7571  -19.8251   19.1689 C.3     1  UNL1        0.2575
     16 C          -7.7216  -19.2995   20.1184 C.ar    1  UNL1        0.1338
     17 N          -7.9178  -18.1942   21.1133 N.ar    1  UNL1       -0.2202
     18 C          -6.6256  -17.9985   21.8496 C.ar    1  UNL1        0.1687
     19 N          -6.2263  -17.0511   22.9418 N.ar    1  UNL1       -0.2237
     20 C          -4.8322  -17.0881   23.4941 C.ar    1  UNL1        0.1119
     21 C          -3.8375  -18.0725   22.9543 C.ar    1  UNL1        0.0774
     22 CL         -2.4433  -18.1095   23.5067 Cl      1  UNL1       -0.0806
     23 C          -4.2368  -19.0199   21.8620 C.ar    1  UNL1        0.0226
     24 C          -5.6308  -18.9829   21.3097 C.ar    1  UNL1        0.0673
     25 S          -6.3082  -19.7869   20.2398 S.2     1  UNL1       -0.0655
@<TRIPOS>BOND
     1     9    10   am
     2    10    11    2
     3    10     1    1
     4     1     2   ar
     5     2     3    1
     6     2     4   ar
     7     4     5   ar
     8     5     6   ar
     9     6    14    1
    10    14    15    1
    11    15    16    1
    12    16    17   ar
    13    17    18   ar
    14    18    19   ar
    15    19    20   ar
    16    20    21   ar
    17    21    22    1
    18    21    23   ar
    19    23    24   ar
    20    24    25   ar
    21     6     7   ar
    22     7     8    1
    23     7     1   ar
    24    25    16   ar
    25    24    18   ar
    26     9    12    1
    27     9    13    1
@<TRIPOS>MOLECULE
*****
 25 27 0 0 0
SMALL
GASTEIGER

@<TRIPOS>ATOM
      1 C         -11.2633  -18.0035   22.6055 C.ar    1  UNL1        0.1109
      2 C         -11.5927  -18.6794   23.9034 C.ar    1  UNL1        0.1468
      3 F         -12.8003  -18.2543   24.6851 F       1  UNL1       -0.2039
      4 C         -10.7144  -19.7804   24.4197 C.ar    1  UNL1        0.0331
      5 C          -9.5068  -20.2054   23.6381 C.ar    1  UNL1        0.0416
      6 C          -9.1775  -19.5294   22.3401 C.ar    1  UNL1        0.1667
      7 C         -10.0557  -18.4285   21.8238 C.ar    1  UNL1        0.1803
      8 F          -9.7264  -17.7526   20.5259 F       1  UNL1       -0.2007
      9 N         -12.1308  -15.5592   22.7565 N.am    1  UNL1       -0.3252
     10 C         -12.1416  -16.9025   22.0893 C.2     1  UNL1        0.2472
     11 O         -13.0307  -17.1449   20.9057 O.2     1  UNL1       -0.2702
     12 H         -12.7073  -14.8366   22.4177 H       1  UNL1        0.1453
     13 H         -11.5473  -15.4001   23.5333 H       1  UNL1        0.1453
     14 O          -7.9699  -19.9545   21.5584 O.3     1  UNL1       -0.4661
     15 C          -6.6387  -20.0721   22.2397 C.3     1  UNL1        0.2575
     16 C          -5.4105  -19.5088   21.5884 C.ar    1  UNL1        0.1338
     17 N          -5.3352  -18.9153   20.2129 N.ar    1  UNL1       -0.2202
     18 C          -3.9201  -18.4797   19.9727 C.ar    1  UNL1        0.1687
     19 N          -3.2562  -17.8297   18.7952 N.ar    1  UNL1       -0.2237
     20 C          -1.7928  -17.5039   18.8448 C.ar    1  UNL1        0.1119
     21 C          -0.9934  -17.8282   20.0720 C.ar    1  UNL1        0.0774
     22 CL          0.4700  -17.5024   20.1215 Cl      1  UNL1       -0.0806
     23 C          -1.6574  -18.4782   21.2495 C.ar    1  UNL1        0.0226
     24 C          -3.1207  -18.8040   21.1999 C.ar    1  UNL1        0.0673
     25 S          -4.0418  -19.4400   22.1984 S.2     1  UNL1       -0.0655
@<TRIPOS>BOND
     1     9    10   am
     2    10    11    2
     3    10     1    1
     4     1     2   ar
     5     2     3    1
     6     2     4   ar
     7     4     5   ar
     8     5     6   ar
     9     6    14    1
    10    14    15    1
    11    15    16    1
    12    16    17   ar
    13    17    18   ar
    14    18    19   ar
    15    19    20   ar
    16    20    21   ar
    17    21    22    1
    18    21    23   ar
    19    23    24   ar
    20    24    25   ar
    21     6     7   ar
    22     7     8    1
    23     7     1   ar
    24    25    16   ar
    25    24    18   ar
    26     9    12    1
    27     9    13    1
@<TRIPOS>MOLECULE
*****
 25 27 0 0 0
SMALL
GASTEIGER

@<TRIPOS>ATOM
      1 C         -10.9944  -17.8415   21.9410 C.ar    1  UNL1        0.1109
      2 C         -11.0652  -17.9350   20.4456 C.ar    1  UNL1        0.1468
      3 F         -12.1744  -17.2507   19.7029 F       1  UNL1       -0.2039
      4 C         -10.0267  -18.7129   19.6928 C.ar    1  UNL1        0.0331
      5 C          -8.9176  -19.3971   20.4354 C.ar    1  UNL1        0.0416
      6 C          -8.8469  -19.3036   21.9309 C.ar    1  UNL1        0.1667
      7 C          -9.8853  -18.5258   22.6836 C.ar    1  UNL1        0.1803
      8 F          -9.8145  -18.4322   24.1790 F       1  UNL1       -0.2007
      9 N         -12.0083  -15.5640   22.6724 N.am    1  UNL1       -0.3252
     10 C         -12.0328  -17.0637   22.6937 C.2     1  UNL1        0.2472
     11 O         -13.0958  -17.7855   23.4677 O.2     1  UNL1       -0.2702
     12 H         -12.6899  -15.0535   23.1665 H       1  UNL1        0.1453
     13 H         -11.3107  -15.0902   22.1644 H       1  UNL1        0.1453
     14 O          -7.7377  -19.9878   22.6735 O.3     1  UNL1       -0.4661
     15 C          -6.5601  -20.5368   21.9238 C.3     1  UNL1        0.2575
     16 C          -5.3416  -19.6873   21.7152 C.ar    1  UNL1        0.1338
     17 N          -5.0767  -18.3544   22.3503 N.ar    1  UNL1       -0.2202
     18 C          -3.7454  -17.8649   21.8625 C.ar    1  UNL1        0.1687
     19 N          -2.9691  -16.6141   22.1501 N.ar    1  UNL1       -0.2237
     20 C          -1.6349  -16.3935   21.5011 C.ar    1  UNL1        0.1119
     21 C          -1.0770  -17.4238   20.5645 C.ar    1  UNL1        0.0774
     22 CL          0.2573  -17.2032   19.9154 Cl      1  UNL1       -0.0806
     23 C          -1.8533  -18.6746   20.2768 C.ar    1  UNL1        0.0226
     24 C          -3.1875  -18.8951   20.9258 C.ar    1  UNL1        0.0673
     25 S          -4.1740  -20.0214   20.8348 S.2     1  UNL1       -0.0655
@<TRIPOS>BOND
     1     9    10   am
     2    10    11    2
     3    10     1    1
     4     1     2   ar
     5     2     3    1
     6     2     4   ar
     7     4     5   ar
     8     5     6   ar
     9     6    14    1
    10    14    15    1
    11    15    16    1
    12    16    17   ar
    13    17    18   ar
    14    18    19   ar
    15    19    20   ar
    16    20    21   ar
    17    21    22    1
    18    21    23   ar
    19    23    24   ar
    20    24    25   ar
    21     6     7   ar
    22     7     8    1
    23     7     1   ar
    24    25    16   ar
    25    24    18   ar
    26     9    12    1
    27     9    13    1
@<TRIPOS>MOLECULE
*****
 25 27 0 0 0
SMALL
GASTEIGER

@<TRIPOS>ATOM
      1 C         -10.1395  -19.0127   23.0259 C.ar    1  UNL1        0.1109
      2 C         -11.3764  -18.4830   22.3631 C.ar    1  UNL1        0.1468
      3 F         -12.5439  -18.0433   23.1959 F       1  UNL1       -0.2039
      4 C         -11.4459  -18.3930   20.8673 C.ar    1  UNL1        0.0331
      5 C         -10.2784  -18.8327   20.0345 C.ar    1  UNL1        0.0416
      6 C          -9.0414  -19.3624   20.6974 C.ar    1  UNL1        0.1667
      7 C          -8.9720  -19.4524   22.1931 C.ar    1  UNL1        0.1803
      8 F          -7.7350  -19.9821   22.8559 F       1  UNL1       -0.2007
      9 N         -10.4653  -20.3723   25.2157 N.am    1  UNL1       -0.3252
     10 C         -10.0700  -19.1027   24.5215 C.2     1  UNL1        0.2472
     11 O          -9.6053  -17.9230   25.3231 O.2     1  UNL1       -0.2702
     12 H         -10.4197  -20.4313   26.1974 H       1  UNL1        0.1453
     13 H         -10.7704  -21.1465   24.6896 H       1  UNL1        0.1453
     14 O          -7.8739  -19.8021   19.8646 O.3     1  UNL1       -0.4661
     15 C          -6.6695  -20.4080   20.5220 C.3     1  UNL1        0.2575
     16 C          -5.3932  -19.6257   20.6161 C.ar    1  UNL1        0.1338
     17 N          -5.1448  -18.4482   21.5115 N.ar    1  UNL1       -0.2202
     18 C          -3.7392  -17.9782   21.2801 C.ar    1  UNL1        0.1687
     19 N          -2.9440  -16.8572   21.8808 N.ar    1  UNL1       -0.2237
     20 C          -1.5286  -16.6232   21.4431 C.ar    1  UNL1        0.1119
     21 C          -0.9083  -17.5102   20.4045 C.ar    1  UNL1        0.0774
     22 CL          0.5072  -17.2761   19.9668 Cl      1  UNL1       -0.0806
     23 C          -1.7035  -18.6312   19.8038 C.ar    1  UNL1        0.0226
     24 C          -3.1190  -18.8652   20.2416 C.ar    1  UNL1        0.0673
     25 S          -4.1412  -19.8834   19.8312 S.2     1  UNL1       -0.0655
@<TRIPOS>BOND
     1     9    10   am
     2    10    11    2
     3    10     1    1
     4     1     2   ar
     5     2     3    1
     6     2     4   ar
     7     4     5   ar
     8     5     6   ar
     9     6    14    1
    10    14    15    1
    11    15    16    1
    12    16    17   ar
    13    17    18   ar
    14    18    19   ar
    15    19    20   ar
    16    20    21   ar
    17    21    22    1
    18    21    23   ar
    19    23    24   ar
    20    24    25   ar
    21     6     7   ar
    22     7     8    1
    23     7     1   ar
    24    25    16   ar
    25    24    18   ar
    26     9    12    1
    27     9    13    1
@<TRIPOS>MOLECULE
*****
 25 27 0 0 0
SMALL
GASTEIGER

@<TRIPOS>ATOM
      1 C          -3.1121  -18.3145   21.4181 C.ar    1  UNL1        0.1109
      2 C          -2.2993  -18.7892   20.2502 C.ar    1  UNL1        0.1468
      3 F          -0.9279  -18.2295   20.0139 F       1  UNL1       -0.2039
      4 C          -2.8580  -19.8236   19.3185 C.ar    1  UNL1        0.0331
      5 C          -4.2295  -20.3833   19.5548 C.ar    1  UNL1        0.0416
      6 C          -5.0423  -19.9085   20.7228 C.ar    1  UNL1        0.1667
      7 C          -4.4836  -18.8742   21.6544 C.ar    1  UNL1        0.1803
      8 F          -5.2964  -18.3995   22.8223 F       1  UNL1       -0.2007
      9 N          -2.2857  -15.8902   21.8534 N.am    1  UNL1       -0.3252
     10 C          -2.5534  -17.2801   22.3497 C.2     1  UNL1        0.2472
     11 O          -2.2624  -17.6358   23.7776 O.2     1  UNL1       -0.2702
     12 H          -1.9190  -15.2113   22.4649 H       1  UNL1        0.1453
     13 H          -2.4767  -15.6568   20.9163 H       1  UNL1        0.1453
     14 O          -6.4138  -20.4682   20.9591 O.3     1  UNL1       -0.4661
     15 C          -7.0492  -20.3497   22.3126 C.3     1  UNL1        0.2575
     16 C          -8.4272  -19.7724   22.4464 C.ar    1  UNL1        0.1338
     17 N          -9.1588  -18.9854   21.3998 N.ar    1  UNL1       -0.2202
     18 C         -10.4992  -18.6073   21.9567 C.ar    1  UNL1        0.1687
     19 N         -11.6442  -17.8307   21.3771 N.ar    1  UNL1       -0.2237
     20 C         -12.8859  -17.6074   22.1883 C.ar    1  UNL1        0.1119
     21 C         -12.9827  -18.1607   23.5792 C.ar    1  UNL1        0.0774
     22 CL        -14.2246  -17.9373   24.3905 Cl      1  UNL1       -0.0806
     23 C         -11.8378  -18.9373   24.1588 C.ar    1  UNL1        0.0226
     24 C         -10.5961  -19.1606   23.3476 C.ar    1  UNL1        0.0673
     25 S          -9.3155  -19.8807   23.6502 S.2     1  UNL1       -0.0655
@<TRIPOS>BOND
     1     9    10   am
     2    10    11    2
     3    10     1    1
     4     1     2   ar
     5     2     3    1
     6     2     4   ar
     7     4     5   ar
     8     5     6   ar
     9     6    14    1
    10    14    15    1
    11    15    16    1
    12    16    17   ar
    13    17    18   ar
    14    18    19   ar
    15    19    20   ar
    16    20    21   ar
    17    21    22    1
    18    21    23   ar
    19    23    24   ar
    20    24    25   ar
    21     6     7   ar
    22     7     8    1
    23     7     1   ar
    24    25    16   ar
    25    24    18   ar
    26     9    12    1
    27     9    13    1
@<TRIPOS>MOLECULE
*****
 25 27 0 0 0
SMALL
GASTEIGER

@<TRIPOS>ATOM
      1 C         -10.0124  -17.9949   23.8700 C.ar    1  UNL1        0.1109
      2 C         -10.3443  -17.9555   22.4078 C.ar    1  UNL1        0.1468
      3 F         -11.3484  -18.9147   21.8405 F       1  UNL1       -0.2039
      4 C          -9.6721  -16.9570   21.5127 C.ar    1  UNL1        0.0331
      5 C          -8.6679  -15.9979   22.0799 C.ar    1  UNL1        0.0416
      6 C          -8.3360  -16.0373   23.5423 C.ar    1  UNL1        0.1667
      7 C          -9.0083  -17.0357   24.4373 C.ar    1  UNL1        0.1803
      8 F          -8.6764  -17.0751   25.8995 F       1  UNL1       -0.2007
      9 N         -12.1573  -18.8902   25.0310 N.am    1  UNL1       -0.3252
     10 C         -10.6846  -18.9934   24.7650 C.2     1  UNL1        0.2472
     11 O          -9.8842  -20.0951   25.3941 O.2     1  UNL1       -0.2702
     12 H         -12.5985  -19.5456   25.6184 H       1  UNL1        0.1453
     13 H         -12.6826  -18.1672   24.6181 H       1  UNL1        0.1453
     14 O          -7.3319  -15.0781   24.1095 O.3     1  UNL1       -0.4661
     15 C          -6.0516  -15.5932   24.6972 C.3     1  UNL1        0.2575
     16 C          -5.0508  -16.2880   23.8223 C.ar    1  UNL1        0.1338
     17 N          -5.0028  -17.7593   23.5339 N.ar    1  UNL1       -0.2202
     18 C          -3.8446  -18.0141   22.6154 C.ar    1  UNL1        0.1687
     19 N          -3.3119  -19.2727   21.9974 N.ar    1  UNL1       -0.2237
     20 C          -2.1112  -19.2176   21.1000 C.ar    1  UNL1        0.1119
     21 C          -1.4433  -17.9039   20.8207 C.ar    1  UNL1        0.0774
     22 CL         -0.2425  -17.8488   19.9233 Cl      1  UNL1       -0.0806
     23 C          -1.9760  -16.6453   21.4388 C.ar    1  UNL1        0.0226
     24 C          -3.1767  -16.7004   22.3362 C.ar    1  UNL1        0.0673
     25 S          -3.9221  -15.6336   23.0820 S.2     1  UNL1       -0.0655
@<TRIPOS>BOND
     1     9    10   am
     2    10    11    2
     3    10     1    1
     4     1     2   ar
     5     2     3    1
     6     2     4   ar
     7     4     5   ar
     8     5     6   ar
     9     6    14    1
    10    14    15    1
    11    15    16    1
    12    16    17   ar
    13    17    18   ar
    14    18    19   ar
    15    19    20   ar
    16    20    21   ar
    17    21    22    1
    18    21    23   ar
    19    23    24   ar
    20    24    25   ar
    21     6     7   ar
    22     7     8    1
    23     7     1   ar
    24    25    16   ar
    25    24    18   ar
    26     9    12    1
    27     9    13    1
@<TRIPOS>MOLECULE
*****
 25 27 0 0 0
SMALL
GASTEIGER

@<TRIPOS>ATOM
      1 C          -9.1675  -16.8419   22.1688 C.ar    1  UNL1        0.1109
      2 C         -10.4450  -16.7404   21.3893 C.ar    1  UNL1        0.1468
      3 F         -11.3804  -15.5925   21.6285 F       1  UNL1       -0.2039
      4 C         -10.7871  -17.7869   20.3705 C.ar    1  UNL1        0.0331
      5 C          -9.8517  -18.9349   20.1313 C.ar    1  UNL1        0.0416
      6 C          -8.5742  -19.0363   20.9109 C.ar    1  UNL1        0.1667
      7 C          -8.2321  -17.9898   21.9296 C.ar    1  UNL1        0.1803
      8 F          -6.9546  -18.0913   22.7091 F       1  UNL1       -0.2007
      9 N          -7.9082  -14.6657   22.8234 N.am    1  UNL1       -0.3252
     10 C          -8.8255  -15.7954   23.1875 C.2     1  UNL1        0.2472
     11 O          -9.4007  -15.8785   24.5704 O.2     1  UNL1       -0.2702
     12 H          -7.6837  -13.9789   23.4921 H       1  UNL1        0.1453
     13 H          -7.5307  -14.6112   21.9158 H       1  UNL1        0.1453
     14 O          -7.6387  -20.1842   20.6717 O.3     1  UNL1       -0.4661
     15 C          -6.3832  -20.3102   21.4827 C.3     1  UNL1        0.2575
     16 C          -5.1091  -19.6872   20.9942 C.ar    1  UNL1        0.1338
     17 N          -4.9244  -18.9608   19.6949 N.ar    1  UNL1       -0.2202
     18 C          -3.4972  -18.5060   19.6170 C.ar    1  UNL1        0.1687
     19 N          -2.7425  -17.7438   18.5684 N.ar    1  UNL1       -0.2237
     20 C          -1.2904  -17.4270   18.7709 C.ar    1  UNL1        0.1119
     21 C          -0.5930  -17.8723   20.0221 C.ar    1  UNL1        0.0774
     22 CL          0.8591  -17.5555   20.2246 Cl      1  UNL1       -0.0806
     23 C          -1.3477  -18.6344   21.0707 C.ar    1  UNL1        0.0226
     24 C          -2.7998  -18.9513   20.8681 C.ar    1  UNL1        0.0673
     25 S          -3.7960  -19.6813   21.7193 S.2     1  UNL1       -0.0655
@<TRIPOS>BOND
     1     9    10   am
     2    10    11    2
     3    10     1    1
     4     1     2   ar
     5     2     3    1
     6     2     4   ar
     7     4     5   ar
     8     5     6   ar
     9     6    14    1
    10    14    15    1
    11    15    16    1
    12    16    17   ar
    13    17    18   ar
    14    18    19   ar
    15    19    20   ar
    16    20    21   ar
    17    21    22    1
    18    21    23   ar
    19    23    24   ar
    20    24    25   ar
    21     6     7   ar
    22     7     8    1
    23     7     1   ar
    24    25    16   ar
    25    24    18   ar
    26     9    12    1
    27     9    13    1
