@<TRIPOS>MOLECULE
*****
 35 38 0 0 0
SMALL
GASTEIGER

@<TRIPOS>ATOM
      1 C          -5.8421  -20.5935   20.4275 C.2     1  UNL1        0.2015
      2 O          -5.7338  -21.9263   19.7481 O.2     1  UNL1       -0.2864
      3 C          -4.6327  -19.7149   20.5525 C.ar    1  UNL1        0.0611
      4 C          -3.3899  -19.8014   19.7170 C.ar    1  UNL1        0.1037
      5 N          -2.4430  -18.7355   20.1831 N.ar    1  UNL1       -0.2269
      6 C          -3.1006  -17.9902   21.3066 C.ar    1  UNL1        0.1407
      7 N          -2.6419  -16.8386   22.1512 N.ar    1  UNL1       -0.3374
      8 C          -3.5365  -16.2923   23.2240 C.ar    1  UNL1        0.0735
      9 C          -4.8899  -16.8976   23.4523 C.ar    1  UNL1        0.0186
     10 C          -5.3486  -18.0492   22.6077 C.ar    1  UNL1        0.0047
     11 C          -4.4539  -18.5955   21.5348 C.ar    1  UNL1        0.0386
     12 H          -1.7537  -16.4414   22.0013 H       1  UNL1        0.1674
     13 C          -5.7845  -16.3512   24.5253 C.ar    1  UNL1        0.0206
     14 C          -5.2029  -15.9187   25.8385 C.ar    1  UNL1        0.0028
     15 C          -6.0976  -15.3724   26.9115 C.ar    1  UNL1        0.0147
     16 C          -7.5738  -15.2585   26.6711 C.ar    1  UNL1        0.0594
     17 C          -8.4685  -14.7122   27.7440 C.3     1  UNL1        0.0521
     18 N          -8.1554  -15.6911   25.3578 N.ar    1  UNL1       -0.2481
     19 C          -7.2608  -16.2374   24.2849 C.ar    1  UNL1        0.0984
     20 C          -9.4151  -18.8848   20.6814 C.ar    1  UNL1        0.0920
     21 C          -9.7950  -19.2304   22.0908 C.ar    1  UNL1        0.0204
     22 C          -8.8573  -20.0303   22.9457 C.ar    1  UNL1        0.0312
     23 C          -7.5397  -20.4846   22.3913 C.ar    1  UNL1        0.1454
     24 F          -6.6020  -21.2845   23.2462 F       1  UNL1       -0.2040
     25 C          -7.1598  -20.1391   20.9820 C.ar    1  UNL1        0.0951
     26 C          -8.0975  -19.3392   20.1271 C.ar    1  UNL1        0.1598
     27 F          -7.7175  -18.9937   18.7177 F       1  UNL1       -0.2026
     28 N         -10.3528  -18.0849   19.8265 N.pl3   1  UNL1       -0.2166
     29 H         -10.2943  -18.1418   18.8454 H       1  UNL1        0.1734
     30 S         -11.3796  -17.1983   20.4665 S.O2    1  UNL1        0.0540
     31 O         -10.3730  -16.0890   20.5447 O.2     1  UNL1       -0.1545
     32 O         -12.3862  -18.3077   20.3882 O.2     1  UNL1       -0.1545
     33 C         -12.4065  -16.3118   21.1064 C.3     1  UNL1        0.1724
     34 C         -13.1684  -17.3987   23.3399 C.3     1  UNL1        0.0019
     35 C         -12.5276  -16.2617   22.6007 C.3     1  UNL1        0.0273
@<TRIPOS>BOND
     1    34    35    1
     2    35    33    1
     3    33    30    1
     4    30    31    2
     5    30    32    2
     6    30    28    1
     7    28    20    1
     8    20    21   ar
     9    21    22   ar
    10    22    23   ar
    11    23    24    1
    12    23    25   ar
    13    25     1    1
    14     1     2    2
    15     1     3    1
    16     3     4   ar
    17     4     5   ar
    18     5     6   ar
    19     6     7   ar
    20     7     8   ar
    21     8     9   ar
    22     9    13    1
    23    13    14   ar
    24    14    15   ar
    25    15    16   ar
    26    16    17    1
    27    16    18   ar
    28    18    19   ar
    29     9    10   ar
    30    10    11   ar
    31    25    26   ar
    32    26    27    1
    33    26    20   ar
    34    11     3   ar
    35    11     6    1
    36    19    13   ar
    37    28    29    1
    38     7    12    1
@<TRIPOS>MOLECULE
*****
 35 38 0 0 0
SMALL
GASTEIGER

@<TRIPOS>ATOM
      1 C          -6.2569  -19.8706   21.9532 C.2     1  UNL1        0.2015
      2 O          -6.3712  -21.1581   22.7141 O.2     1  UNL1       -0.2864
      3 C          -7.1726  -19.5990   20.7966 C.ar    1  UNL1        0.0611
      4 C          -6.7856  -19.5959   19.3474 C.ar    1  UNL1        0.1037
      5 N          -8.0100  -19.2778   18.5414 N.ar    1  UNL1       -0.2269
      6 C          -9.1537  -19.0843   19.4924 C.ar    1  UNL1        0.1407
      7 N         -10.5995  -18.7530   19.2693 N.ar    1  UNL1       -0.3374
      8 C         -11.5278  -18.6202   20.4400 C.ar    1  UNL1        0.0735
      9 C         -11.0103  -18.8187   21.8338 C.ar    1  UNL1        0.0186
     10 C          -9.5645  -19.1500   22.0570 C.ar    1  UNL1        0.0047
     11 C          -8.6362  -19.2828   20.8863 C.ar    1  UNL1        0.0386
     12 H         -10.9392  -18.6227   18.3545 H       1  UNL1        0.1674
     13 C         -11.9387  -18.6858   23.0046 C.ar    1  UNL1        0.0206
     14 C         -13.3275  -18.1559   22.8041 C.ar    1  UNL1        0.0028
     15 C         -14.2559  -18.0231   23.9748 C.ar    1  UNL1        0.0147
     16 C         -13.7953  -18.4202   25.3460 C.ar    1  UNL1        0.0594
     17 C         -14.7236  -18.2874   26.5167 C.3     1  UNL1        0.0521
     18 N         -12.4064  -18.9501   25.5465 N.ar    1  UNL1       -0.2481
     19 C         -11.4781  -19.0829   24.3758 C.ar    1  UNL1        0.0984
     20 C          -4.6153  -16.5789   23.4433 C.ar    1  UNL1        0.0920
     21 C          -3.1666  -16.8224   23.1402 C.ar    1  UNL1        0.0204
     22 C          -2.7480  -18.0820   22.4414 C.ar    1  UNL1        0.0312
     23 C          -3.7780  -19.0980   22.0458 C.ar    1  UNL1        0.1454
     24 F          -3.3594  -20.3576   21.3470 F       1  UNL1       -0.2040
     25 C          -5.2267  -18.8545   22.3489 C.ar    1  UNL1        0.0951
     26 C          -5.6453  -17.5949   23.0476 C.ar    1  UNL1        0.1598
     27 F          -7.0941  -17.3515   23.3507 F       1  UNL1       -0.2026
     28 N          -5.0339  -15.3193   24.1421 N.pl3   1  UNL1       -0.2166
     29 H          -4.8017  -14.4430   23.7582 H       1  UNL1        0.1734
     30 S          -5.8063  -15.3950   25.4257 S.O2    1  UNL1        0.0540
     31 O          -6.9391  -14.6465   24.7881 O.2     1  UNL1       -0.1545
     32 O          -4.6736  -16.1436   26.0632 O.2     1  UNL1       -0.1545
     33 C          -6.5787  -15.4707   26.7093 C.3     1  UNL1        0.1724
     34 C          -8.7162  -16.9452   26.7948 C.3     1  UNL1        0.0019
     35 C          -8.0733  -15.5949   26.6791 C.3     1  UNL1        0.0273
@<TRIPOS>BOND
     1    34    35    1
     2    35    33    1
     3    33    30    1
     4    30    31    2
     5    30    32    2
     6    30    28    1
     7    28    20    1
     8    20    21   ar
     9    21    22   ar
    10    22    23   ar
    11    23    24    1
    12    23    25   ar
    13    25     1    1
    14     1     2    2
    15     1     3    1
    16     3     4   ar
    17     4     5   ar
    18     5     6   ar
    19     6     7   ar
    20     7     8   ar
    21     8     9   ar
    22     9    13    1
    23    13    14   ar
    24    14    15   ar
    25    15    16   ar
    26    16    17    1
    27    16    18   ar
    28    18    19   ar
    29     9    10   ar
    30    10    11   ar
    31    25    26   ar
    32    26    27    1
    33    26    20   ar
    34    11     3   ar
    35    11     6    1
    36    19    13   ar
    37    28    29    1
    38     7    12    1
@<TRIPOS>MOLECULE
*****
 35 38 0 0 0
SMALL
GASTEIGER

@<TRIPOS>ATOM
      1 C          -6.4763  -19.8250   21.9660 C.2     1  UNL1        0.2015
      2 O          -6.5085  -21.1511   22.6661 O.2     1  UNL1       -0.2864
      3 C          -7.4142  -19.5552   20.8269 C.ar    1  UNL1        0.0611
      4 C          -7.0537  -19.5472   19.3709 C.ar    1  UNL1        0.1037
      5 N          -8.2940  -19.2330   18.5881 N.ar    1  UNL1       -0.2269
      6 C          -9.4211  -19.0468   19.5603 C.ar    1  UNL1        0.1407
      7 N         -10.8722  -18.7217   19.3643 N.ar    1  UNL1       -0.3374
      8 C         -11.7796  -18.5957   20.5520 C.ar    1  UNL1        0.0735
      9 C         -11.2358  -18.7948   21.9357 C.ar    1  UNL1        0.0186
     10 C          -9.7847  -19.1199   22.1317 C.ar    1  UNL1        0.0047
     11 C          -8.8773  -19.2459   20.9440 C.ar    1  UNL1        0.0386
     12 H         -11.2291  -18.5910   18.4561 H       1  UNL1        0.1674
     13 C         -12.1433  -18.6688   23.1235 C.ar    1  UNL1        0.0206
     14 C         -13.5370  -18.1423   22.9500 C.ar    1  UNL1        0.0028
     15 C         -14.4445  -18.0163   24.1378 C.ar    1  UNL1        0.0147
     16 C         -13.9581  -18.4168   25.4990 C.ar    1  UNL1        0.0594
     17 C         -14.8654  -18.2908   26.6868 C.3     1  UNL1        0.0521
     18 N         -12.5642  -18.9433   25.6725 N.ar    1  UNL1       -0.2481
     19 C         -11.6569  -19.0693   24.4848 C.ar    1  UNL1        0.0984
     20 C          -3.0759  -17.8581   22.5311 C.ar    1  UNL1        0.0920
     21 C          -3.5654  -16.6559   23.2828 C.ar    1  UNL1        0.0204
     22 C          -5.0251  -16.5101   23.5956 C.ar    1  UNL1        0.0312
     23 C          -5.9954  -17.5664   23.1567 C.ar    1  UNL1        0.1454
     24 F          -7.4552  -17.4205   23.4695 F       1  UNL1       -0.2040
     25 C          -5.5059  -18.7686   22.4050 C.ar    1  UNL1        0.0951
     26 C          -4.0462  -18.9144   22.0922 C.ar    1  UNL1        0.1598
     27 F          -3.5568  -20.1167   21.3404 F       1  UNL1       -0.2026
     28 N          -1.6161  -18.0040   22.2183 N.pl3   1  UNL1       -0.2166
     29 H          -0.9824  -18.2507   22.9302 H       1  UNL1        0.1734
     30 S          -1.1219  -17.7739   20.8209 S.O2    1  UNL1        0.0540
     31 O          -1.2219  -16.2919   21.0295 O.2     1  UNL1       -0.1545
     32 O          -1.0219  -19.2559   20.6122 O.2     1  UNL1       -0.1545
     33 C          -0.6277  -17.5439   19.4234 C.3     1  UNL1        0.1724
     34 C          -3.0134  -17.3586   18.4113 C.3     1  UNL1        0.0019
     35 C          -1.5620  -17.7064   18.2612 C.3     1  UNL1        0.0273
@<TRIPOS>BOND
     1    34    35    1
     2    35    33    1
     3    33    30    1
     4    30    31    2
     5    30    32    2
     6    30    28    1
     7    28    20    1
     8    20    21   ar
     9    21    22   ar
    10    22    23   ar
    11    23    24    1
    12    23    25   ar
    13    25     1    1
    14     1     2    2
    15     1     3    1
    16     3     4   ar
    17     4     5   ar
    18     5     6   ar
    19     6     7   ar
    20     7     8   ar
    21     8     9   ar
    22     9    13    1
    23    13    14   ar
    24    14    15   ar
    25    15    16   ar
    26    16    17    1
    27    16    18   ar
    28    18    19   ar
    29     9    10   ar
    30    10    11   ar
    31    25    26   ar
    32    26    27    1
    33    26    20   ar
    34    11     3   ar
    35    11     6    1
    36    19    13   ar
    37    28    29    1
    38     7    12    1
@<TRIPOS>MOLECULE
*****
 35 38 0 0 0
SMALL
GASTEIGER

@<TRIPOS>ATOM
      1 C           4.6303   -3.6947   21.0838 C.2     1  UNL1        0.2015
      2 O           4.0232   -5.0458   20.8476 O.2     1  UNL1       -0.2864
      3 C           4.8591   -3.2096   22.4847 C.ar    1  UNL1        0.0611
      4 C           5.8254   -3.7926   23.4727 C.ar    1  UNL1        0.1037
      5 N           5.7252   -2.9997   24.7421 N.ar    1  UNL1       -0.2269
      6 C           4.6970   -1.9267   24.5385 C.ar    1  UNL1        0.1407
      7 N           4.1790   -0.8483   25.4433 N.ar    1  UNL1       -0.3374
      8 C           3.1256    0.1003   24.9529 C.ar    1  UNL1        0.0735
      9 C           2.5903   -0.0294   23.5577 C.ar    1  UNL1        0.0186
     10 C           3.1083   -1.1078   22.6529 C.ar    1  UNL1        0.0047
     11 C           4.1616   -2.0565   23.1433 C.ar    1  UNL1        0.0386
     12 H           4.5303   -0.7632   26.3590 H       1  UNL1        0.1674
     13 C           1.5369    0.9193   23.0673 C.ar    1  UNL1        0.0206
     14 C           1.2176    2.1566   23.8528 C.ar    1  UNL1        0.0028
     15 C           0.1642    3.1053   23.3624 C.ar    1  UNL1        0.0147
     16 C          -0.5698    2.8166   22.0865 C.ar    1  UNL1        0.0594
     17 C          -1.6231    3.7652   21.5961 C.3     1  UNL1        0.0521
     18 N          -0.2504    1.5792   21.3010 N.ar    1  UNL1       -0.2481
     19 C           0.8029    0.6306   21.7914 C.ar    1  UNL1        0.0984
     20 C           4.3602   -1.0754   18.1144 C.ar    1  UNL1        0.0920
     21 C           5.7652   -1.0962   17.5895 C.ar    1  UNL1        0.0204
     22 C           6.7919   -1.9831   18.2293 C.ar    1  UNL1        0.0312
     23 C           6.4136   -2.8493   19.3940 C.ar    1  UNL1        0.1454
     24 F           7.4403   -3.7362   20.0338 F       1  UNL1       -0.2040
     25 C           5.0086   -2.8285   19.9190 C.ar    1  UNL1        0.0951
     26 C           3.9820   -1.9416   19.2792 C.ar    1  UNL1        0.1598
     27 F           2.5770   -1.9208   19.8042 F       1  UNL1       -0.2026
     28 N           3.3336   -0.1885   17.4746 N.pl3   1  UNL1       -0.2166
     29 H           2.9905   -0.4009   16.5766 H       1  UNL1        0.1734
     30 S           2.8297    1.0221   18.2031 S.O2    1  UNL1        0.0540
     31 O           4.2198    1.5848   18.2296 O.2     1  UNL1       -0.1545
     32 O           1.4395    0.4593   18.1766 O.2     1  UNL1       -0.1545
     33 C           2.3257    2.2325   18.9315 C.3     1  UNL1        0.1724
     34 C           2.6507    4.0639   20.7456 C.3     1  UNL1        0.0019
     35 C           3.1395    2.8347   20.0384 C.3     1  UNL1        0.0273
@<TRIPOS>BOND
     1    34    35    1
     2    35    33    1
     3    33    30    1
     4    30    31    2
     5    30    32    2
     6    30    28    1
     7    28    20    1
     8    20    21   ar
     9    21    22   ar
    10    22    23   ar
    11    23    24    1
    12    23    25   ar
    13    25     1    1
    14     1     2    2
    15     1     3    1
    16     3     4   ar
    17     4     5   ar
    18     5     6   ar
    19     6     7   ar
    20     7     8   ar
    21     8     9   ar
    22     9    13    1
    23    13    14   ar
    24    14    15   ar
    25    15    16   ar
    26    16    17    1
    27    16    18   ar
    28    18    19   ar
    29     9    10   ar
    30    10    11   ar
    31    25    26   ar
    32    26    27    1
    33    26    20   ar
    34    11     3   ar
    35    11     6    1
    36    19    13   ar
    37    28    29    1
    38     7    12    1
@<TRIPOS>MOLECULE
*****
 35 38 0 0 0
SMALL
GASTEIGER

@<TRIPOS>ATOM
      1 C           1.1260    0.6182   21.0965 C.2     1  UNL1        0.2015
      2 O          -0.1934    0.2099   20.5116 O.2     1  UNL1       -0.2864
      3 C           1.2547    0.8403   22.5744 C.ar    1  UNL1        0.0611
      4 C           0.4557    1.8105   23.3931 C.ar    1  UNL1        0.1037
      5 N           0.9123    1.7010   24.8177 N.ar    1  UNL1       -0.2269
      6 C           1.9935    0.6631   24.8795 C.ar    1  UNL1        0.1407
      7 N           2.8126    0.1337   26.0191 N.ar    1  UNL1       -0.3374
      8 C           3.8434   -0.9277   25.7722 C.ar    1  UNL1        0.0735
      9 C           4.0550   -1.4597   24.3857 C.ar    1  UNL1        0.0186
     10 C           3.2359   -0.9302   23.2462 C.ar    1  UNL1        0.0047
     11 C           2.2051    0.1311   23.4930 C.ar    1  UNL1        0.0386
     12 H           2.6737    0.4828   26.9290 H       1  UNL1        0.1674
     13 C           5.0859   -2.5211   24.1389 C.ar    1  UNL1        0.0206
     14 C           6.1606   -2.7734   25.1544 C.ar    1  UNL1        0.0028
     15 C           7.1914   -3.8349   24.9076 C.ar    1  UNL1        0.0147
     16 C           7.1475   -4.6439   23.6452 C.ar    1  UNL1        0.0594
     17 C           8.1782   -5.7052   23.3984 C.3     1  UNL1        0.0521
     18 N           6.0727   -4.3915   22.6297 N.ar    1  UNL1       -0.2481
     19 C           5.0419   -3.3301   22.8765 C.ar    1  UNL1        0.0984
     20 C           4.1406   -0.1967   18.6473 C.ar    1  UNL1        0.0920
     21 C           4.6984    1.1766   18.4177 C.ar    1  UNL1        0.0204
     22 C           4.0654    2.3638   19.0809 C.ar    1  UNL1        0.0312
     23 C           2.8747    2.1777   19.9739 C.ar    1  UNL1        0.1454
     24 F           2.2417    3.3649   20.6372 F       1  UNL1       -0.2040
     25 C           2.3169    0.8044   20.2035 C.ar    1  UNL1        0.0951
     26 C           2.9498   -0.3828   19.5403 C.ar    1  UNL1        0.1598
     27 F           2.3920   -1.7562   19.7700 F       1  UNL1       -0.2026
     28 N           4.7736   -1.3839   17.9841 N.pl3   1  UNL1       -0.2166
     29 H           4.2695   -1.9006   17.3146 H       1  UNL1        0.1734
     30 S           6.1746   -1.7838   18.3408 S.O2    1  UNL1        0.0540
     31 O           6.6792   -1.1358   17.0857 O.2     1  UNL1       -0.1545
     32 O           5.6699   -2.4318   19.5960 O.2     1  UNL1       -0.1545
     33 C           7.5755   -2.1838   18.6977 C.3     1  UNL1        0.1724
     34 C           8.9707   -3.5746   20.3917 C.3     1  UNL1        0.0019
     35 C           7.9144   -2.5467   20.1132 C.3     1  UNL1        0.0273
@<TRIPOS>BOND
     1    34    35    1
     2    35    33    1
     3    33    30    1
     4    30    31    2
     5    30    32    2
     6    30    28    1
     7    28    20    1
     8    20    21   ar
     9    21    22   ar
    10    22    23   ar
    11    23    24    1
    12    23    25   ar
    13    25     1    1
    14     1     2    2
    15     1     3    1
    16     3     4   ar
    17     4     5   ar
    18     5     6   ar
    19     6     7   ar
    20     7     8   ar
    21     8     9   ar
    22     9    13    1
    23    13    14   ar
    24    14    15   ar
    25    15    16   ar
    26    16    17    1
    27    16    18   ar
    28    18    19   ar
    29     9    10   ar
    30    10    11   ar
    31    25    26   ar
    32    26    27    1
    33    26    20   ar
    34    11     3   ar
    35    11     6    1
    36    19    13   ar
    37    28    29    1
    38     7    12    1
@<TRIPOS>MOLECULE
*****
 35 38 0 0 0
SMALL
GASTEIGER

@<TRIPOS>ATOM
      1 C           4.1155   -2.6400   19.7014 C.2     1  UNL1        0.2015
      2 O           3.3713   -3.8701   19.2738 O.2     1  UNL1       -0.2864
      3 C           5.5684   -2.4862   19.3614 C.ar    1  UNL1        0.0611
      4 C           6.1282   -1.6753   18.2305 C.ar    1  UNL1        0.1037
      5 N           7.6223   -1.8042   18.2630 N.ar    1  UNL1       -0.2269
      6 C           7.9858   -2.6947   19.4139 C.ar    1  UNL1        0.1407
      7 N           9.3088   -3.1763   19.9315 N.ar    1  UNL1       -0.3374
      8 C           9.3623   -4.0794   21.1279 C.ar    1  UNL1        0.0735
      9 C           8.0929   -4.5009   21.8068 C.ar    1  UNL1        0.0186
     10 C           6.7700   -4.0193   21.2893 C.ar    1  UNL1        0.0047
     11 C           6.7164   -3.1162   20.0928 C.ar    1  UNL1        0.0386
     12 H          10.1419   -2.8997   19.4859 H       1  UNL1        0.1674
     13 C           8.1465   -5.4040   23.0034 C.ar    1  UNL1        0.0206
     14 C           8.8891   -6.7050   22.9284 C.ar    1  UNL1        0.0028
     15 C           8.9427   -7.6081   24.1249 C.ar    1  UNL1        0.0147
     16 C           8.2536   -7.2101   25.3964 C.ar    1  UNL1        0.0594
     17 C           8.3071   -8.1131   26.5929 C.3     1  UNL1        0.0521
     18 N           7.5109   -5.9090   25.4713 N.ar    1  UNL1       -0.2481
     19 C           7.4573   -5.0060   24.2749 C.ar    1  UNL1        0.0984
     20 C           2.7245   -0.4941   22.7363 C.ar    1  UNL1        0.0920
     21 C           1.9893    0.5891   22.0041 C.ar    1  UNL1        0.0204
     22 C           1.9628    0.5960   20.5044 C.ar    1  UNL1        0.0312
     23 C           2.6715   -0.4803   19.7368 C.ar    1  UNL1        0.1454
     24 F           2.6450   -0.4735   18.2370 F       1  UNL1       -0.2040
     25 C           3.4067   -1.5636   20.4690 C.ar    1  UNL1        0.0951
     26 C           3.4332   -1.5704   21.9687 C.ar    1  UNL1        0.1598
     27 F           4.1685   -2.6537   22.7008 F       1  UNL1       -0.2026
     28 N           2.7510   -0.5010   24.2361 N.pl3   1  UNL1       -0.2166
     29 H           1.9130   -0.6020   24.7428 H       1  UNL1        0.1734
     30 S           4.0544   -0.3541   24.9638 S.O2    1  UNL1        0.0540
     31 O           3.8213   -1.6691   25.6468 O.2     1  UNL1       -0.1545
     32 O           4.2875    0.9609   24.2809 O.2     1  UNL1       -0.1545
     33 C           5.3578   -0.2071   25.6915 C.3     1  UNL1        0.1724
     34 C           6.9726   -1.2444   23.9403 C.3     1  UNL1        0.0019
     35 C           6.5079   -1.1113   25.3603 C.3     1  UNL1        0.0273
@<TRIPOS>BOND
     1    34    35    1
     2    35    33    1
     3    33    30    1
     4    30    31    2
     5    30    32    2
     6    30    28    1
     7    28    20    1
     8    20    21   ar
     9    21    22   ar
    10    22    23   ar
    11    23    24    1
    12    23    25   ar
    13    25     1    1
    14     1     2    2
    15     1     3    1
    16     3     4   ar
    17     4     5   ar
    18     5     6   ar
    19     6     7   ar
    20     7     8   ar
    21     8     9   ar
    22     9    13    1
    23    13    14   ar
    24    14    15   ar
    25    15    16   ar
    26    16    17    1
    27    16    18   ar
    28    18    19   ar
    29     9    10   ar
    30    10    11   ar
    31    25    26   ar
    32    26    27    1
    33    26    20   ar
    34    11     3   ar
    35    11     6    1
    36    19    13   ar
    37    28    29    1
    38     7    12    1
@<TRIPOS>MOLECULE
*****
 35 38 0 0 0
SMALL
GASTEIGER

@<TRIPOS>ATOM
      1 C          -9.4769  -15.9730   24.5076 C.2     1  UNL1        0.2015
      2 O         -10.4388  -14.8420   24.2943 O.2     1  UNL1       -0.2864
      3 C          -8.3556  -15.8282   25.4933 C.ar    1  UNL1        0.0611
      4 C          -8.4897  -15.4009   26.9248 C.ar    1  UNL1        0.1037
      5 N          -7.1202  -15.3939   27.5367 N.ar    1  UNL1       -0.2269
      6 C          -6.1396  -15.8170   26.4833 C.ar    1  UNL1        0.1407
      7 N          -4.6502  -15.9924   26.5109 N.ar    1  UNL1       -0.3374
      8 C          -3.9243  -16.4363   25.2756 C.ar    1  UNL1        0.0735
      9 C          -4.6879  -16.7048   24.0127 C.ar    1  UNL1        0.0186
     10 C          -6.1773  -16.5293   23.9851 C.ar    1  UNL1        0.0047
     11 C          -6.9032  -16.0854   25.2204 C.ar    1  UNL1        0.0386
     12 H          -4.1491  -15.8163   27.3398 H       1  UNL1        0.1674
     13 C          -3.9619  -17.1487   22.7773 C.ar    1  UNL1        0.0206
     14 C          -4.2854  -18.4735   22.1526 C.ar    1  UNL1        0.0028
     15 C          -3.5594  -18.9174   20.9173 C.ar    1  UNL1        0.0147
     16 C          -2.5100  -18.0365   20.3067 C.ar    1  UNL1        0.0594
     17 C          -1.7841  -18.4803   19.0715 C.3     1  UNL1        0.0521
     18 N          -2.1866  -16.7116   20.9315 N.ar    1  UNL1       -0.2481
     19 C          -2.9125  -16.2678   22.1668 C.ar    1  UNL1        0.0984
     20 C          -9.7989  -18.4983   21.4630 C.ar    1  UNL1        0.0920
     21 C          -9.9556  -19.8007   22.1903 C.ar    1  UNL1        0.0204
     22 C          -9.9528  -19.8273   23.6901 C.ar    1  UNL1        0.0312
     23 C          -9.7932  -18.5514   24.4625 C.ar    1  UNL1        0.1454
     24 F          -9.7904  -18.5780   25.9623 F       1  UNL1       -0.2040
     25 C          -9.6365  -17.2490   23.7352 C.ar    1  UNL1        0.0951
     26 C          -9.6393  -17.2225   22.2354 C.ar    1  UNL1        0.1598
     27 F          -9.4826  -15.9199   21.5081 F       1  UNL1       -0.2026
     28 N          -9.8017  -18.4718   19.9632 N.pl3   1  UNL1       -0.2166
     29 H         -10.2590  -17.7430   19.4846 H       1  UNL1        0.1734
     30 S          -9.1078  -19.5556   19.1926 S.O2    1  UNL1        0.0540
     31 O         -10.4372  -20.1003   18.7616 O.2     1  UNL1       -0.1545
     32 O          -7.7783  -19.0108   19.6237 O.2     1  UNL1       -0.1545
     33 C          -8.4138  -20.6393   18.4221 C.3     1  UNL1        0.1724
     34 C          -9.2294  -21.4470   16.0913 C.3     1  UNL1        0.0019
     35 C          -9.2126  -21.5931   17.5840 C.3     1  UNL1        0.0273
@<TRIPOS>BOND
     1    34    35    1
     2    35    33    1
     3    33    30    1
     4    30    31    2
     5    30    32    2
     6    30    28    1
     7    28    20    1
     8    20    21   ar
     9    21    22   ar
    10    22    23   ar
    11    23    24    1
    12    23    25   ar
    13    25     1    1
    14     1     2    2
    15     1     3    1
    16     3     4   ar
    17     4     5   ar
    18     5     6   ar
    19     6     7   ar
    20     7     8   ar
    21     8     9   ar
    22     9    13    1
    23    13    14   ar
    24    14    15   ar
    25    15    16   ar
    26    16    17    1
    27    16    18   ar
    28    18    19   ar
    29     9    10   ar
    30    10    11   ar
    31    25    26   ar
    32    26    27    1
    33    26    20   ar
    34    11     3   ar
    35    11     6    1
    36    19    13   ar
    37    28    29    1
    38     7    12    1
@<TRIPOS>MOLECULE
*****
 35 38 0 0 0
SMALL
GASTEIGER

@<TRIPOS>ATOM
      1 C         -10.9045  -16.4818   22.6847 C.2     1  UNL1        0.2015
      2 O         -11.7921  -15.2728   22.6945 O.2     1  UNL1       -0.2864
      3 C         -11.0099  -17.4807   21.5706 C.ar    1  UNL1        0.0611
      4 C         -12.2654  -17.8610   20.8433 C.ar    1  UNL1        0.1037
      5 N         -11.9097  -18.8900   19.8115 N.ar    1  UNL1       -0.2269
      6 C         -10.4344  -19.1457   19.9011 C.ar    1  UNL1        0.1407
      7 N          -9.5255  -20.0590   19.1332 N.ar    1  UNL1       -0.3374
      8 C          -8.0606  -20.1013   19.4525 C.ar    1  UNL1        0.0735
      9 C          -7.5044  -19.2303   20.5397 C.ar    1  UNL1        0.0186
     10 C          -8.4133  -18.3170   21.3077 C.ar    1  UNL1        0.0047
     11 C          -9.8782  -18.2746   20.9883 C.ar    1  UNL1        0.0386
     12 H          -9.8905  -20.6307   18.4196 H       1  UNL1        0.1674
     13 C          -6.0394  -19.2727   20.8590 C.ar    1  UNL1        0.0206
     14 C          -5.0286  -19.0413   19.7752 C.ar    1  UNL1        0.0028
     15 C          -3.5635  -19.0837   20.0945 C.ar    1  UNL1        0.0147
     16 C          -3.1093  -19.3575   21.4977 C.ar    1  UNL1        0.0594
     17 C          -1.6444  -19.3998   21.8170 C.3     1  UNL1        0.0521
     18 N          -4.1202  -19.5888   22.5815 N.ar    1  UNL1       -0.2481
     19 C          -5.5852  -19.5465   22.2622 C.ar    1  UNL1        0.0984
     20 C          -7.6572  -16.0907   24.9324 C.ar    1  UNL1        0.0920
     21 C          -7.9250  -17.1123   25.9976 C.ar    1  UNL1        0.0204
     22 C          -9.1859  -17.9238   25.9584 C.ar    1  UNL1        0.0312
     23 C         -10.1791  -17.7136   24.8542 C.ar    1  UNL1        0.1454
     24 F         -11.4401  -18.5251   24.8150 F       1  UNL1       -0.2040
     25 C          -9.9113  -16.6920   23.7890 C.ar    1  UNL1        0.0951
     26 C          -8.6503  -15.8806   23.8282 C.ar    1  UNL1        0.1598
     27 F          -8.3826  -14.8589   22.7630 F       1  UNL1       -0.2026
     28 N          -6.3962  -15.2792   24.9716 N.pl3   1  UNL1       -0.2166
     29 H          -6.3899  -14.4005   25.4154 H       1  UNL1        0.1734
     30 S          -5.1449  -15.8067   24.3345 S.O2    1  UNL1        0.0540
     31 O          -4.9079  -16.6850   25.5272 O.2     1  UNL1       -0.1545
     32 O          -5.3818  -14.9284   23.1418 O.2     1  UNL1       -0.1545
     33 C          -3.8935  -16.3341   23.6974 C.3     1  UNL1        0.1724
     34 C          -2.0819  -15.9636   21.8722 C.3     1  UNL1        0.0019
     35 C          -3.5137  -15.8950   22.3142 C.3     1  UNL1        0.0273
@<TRIPOS>BOND
     1    34    35    1
     2    35    33    1
     3    33    30    1
     4    30    31    2
     5    30    32    2
     6    30    28    1
     7    28    20    1
     8    20    21   ar
     9    21    22   ar
    10    22    23   ar
    11    23    24    1
    12    23    25   ar
    13    25     1    1
    14     1     2    2
    15     1     3    1
    16     3     4   ar
    17     4     5   ar
    18     5     6   ar
    19     6     7   ar
    20     7     8   ar
    21     8     9   ar
    22     9    13    1
    23    13    14   ar
    24    14    15   ar
    25    15    16   ar
    26    16    17    1
    27    16    18   ar
    28    18    19   ar
    29     9    10   ar
    30    10    11   ar
    31    25    26   ar
    32    26    27    1
    33    26    20   ar
    34    11     3   ar
    35    11     6    1
    36    19    13   ar
    37    28    29    1
    38     7    12    1
@<TRIPOS>MOLECULE
*****
 35 38 0 0 0
SMALL
GASTEIGER

@<TRIPOS>ATOM
      1 C           6.4058   -1.6098   30.0108 C.2     1  UNL1        0.2015
      2 O           7.5695   -0.7127   29.7098 O.2     1  UNL1       -0.2864
      3 C           6.5949   -3.0974   30.0460 C.ar    1  UNL1        0.0611
      4 C           6.6774   -3.9467   31.2797 C.ar    1  UNL1        0.1037
      5 N           6.8683   -5.3711   30.8499 N.ar    1  UNL1       -0.2269
      6 C           6.9038   -5.4021   29.3506 C.ar    1  UNL1        0.1407
      7 N           7.0682   -6.5283   28.3736 N.ar    1  UNL1       -0.3374
      8 C           7.0637   -6.2493   26.8999 C.ar    1  UNL1        0.0735
      9 C           6.8947   -4.8441   26.4030 C.ar    1  UNL1        0.0186
     10 C           6.7303   -3.7179   27.3800 C.ar    1  UNL1        0.0047
     11 C           6.7349   -3.9969   28.8538 C.ar    1  UNL1        0.0386
     12 H           7.1791   -7.4506   28.6997 H       1  UNL1        0.1674
     13 C           6.8902   -4.5652   24.9292 C.ar    1  UNL1        0.0206
     14 C           6.0941   -3.4158   24.3858 C.ar    1  UNL1        0.0028
     15 C           6.0896   -3.1369   22.9120 C.ar    1  UNL1        0.0147
     16 C           6.8811   -4.0073   21.9815 C.ar    1  UNL1        0.0594
     17 C           6.8766   -3.7284   20.5077 C.3     1  UNL1        0.0521
     18 N           7.6772   -5.1567   22.5249 N.ar    1  UNL1       -0.2481
     19 C           7.6817   -5.4356   23.9987 C.ar    1  UNL1        0.0984
     20 C           2.6304   -0.5013   29.4925 C.ar    1  UNL1        0.0920
     21 C           2.3465    0.1616   30.8078 C.ar    1  UNL1        0.0204
     22 C           3.4157    0.2340   31.8574 C.ar    1  UNL1        0.0312
     23 C           4.7687   -0.3564   31.5918 C.ar    1  UNL1        0.1454
     24 F           5.8378   -0.2841   32.6414 F       1  UNL1       -0.2040
     25 C           5.0526   -1.0193   30.2765 C.ar    1  UNL1        0.0951
     26 C           3.9835   -1.0917   29.2269 C.ar    1  UNL1        0.1598
     27 F           4.2675   -1.7546   27.9115 F       1  UNL1       -0.2026
     28 N           1.5613   -0.5736   28.4428 N.pl3   1  UNL1       -0.2166
     29 H           1.5713   -1.3009   27.7794 H       1  UNL1        0.1734
     30 S           0.4770    0.4620   28.4042 S.O2    1  UNL1        0.0540
     31 O          -0.4398   -0.4703   29.1392 O.2     1  UNL1       -0.1545
     32 O           1.3937    1.3944   27.6691 O.2     1  UNL1       -0.1545
     33 C          -0.6073    1.4978   28.3654 C.3     1  UNL1        0.1724
     34 C          -1.7993    3.0545   26.6607 C.3     1  UNL1        0.0019
     35 C          -0.5487    2.6076   27.3580 C.3     1  UNL1        0.0273
@<TRIPOS>BOND
     1    34    35    1
     2    35    33    1
     3    33    30    1
     4    30    31    2
     5    30    32    2
     6    30    28    1
     7    28    20    1
     8    20    21   ar
     9    21    22   ar
    10    22    23   ar
    11    23    24    1
    12    23    25   ar
    13    25     1    1
    14     1     2    2
    15     1     3    1
    16     3     4   ar
    17     4     5   ar
    18     5     6   ar
    19     6     7   ar
    20     7     8   ar
    21     8     9   ar
    22     9    13    1
    23    13    14   ar
    24    14    15   ar
    25    15    16   ar
    26    16    17    1
    27    16    18   ar
    28    18    19   ar
    29     9    10   ar
    30    10    11   ar
    31    25    26   ar
    32    26    27    1
    33    26    20   ar
    34    11     3   ar
    35    11     6    1
    36    19    13   ar
    37    28    29    1
    38     7    12    1
