@<TRIPOS>MOLECULE
*****
 26 29 0 0 0
SMALL
GASTEIGER

@<TRIPOS>ATOM
      1 N           2.0572    0.9819   25.9752 N.ar    1  UNL1       -0.3256
      2 C           2.2772    0.5187   24.5656 C.ar    1  UNL1        0.0367
      3 C           1.1355    1.0176   23.7303 C.ar    1  UNL1        0.0108
      4 C           0.2099    1.7890   24.6237 C.ar    1  UNL1        0.0145
      5 C          -1.0780    2.5087   24.3530 C.ar    1  UNL1        0.0012
      6 C          -1.7963    3.2063   25.4698 C.ar    1  UNL1        0.0001
      7 C          -1.2267    3.1843   26.8573 C.ar    1  UNL1        0.0015
      8 C           0.0612    2.4646   27.1279 C.ar    1  UNL1        0.0172
      9 C           0.7795    1.7670   26.0111 C.ar    1  UNL1        0.0597
     10 C           1.0863    0.7049   22.2641 C.3     1  UNL1        0.1216
     11 N           2.1788   -0.1066   21.6332 N.am    1  UNL1       -0.2715
     12 C           2.1295   -0.4193   20.1669 C.2     1  UNL1        0.2493
     13 O           0.9878    0.0796   19.3316 O.2     1  UNL1       -0.2699
     14 C           3.3204   -0.6055   22.4685 C.3     1  UNL1        0.1003
     15 C           3.3697   -0.2928   23.9347 C.3     1  UNL1        0.0650
     16 C           3.2220   -1.2308   19.5361 C.ar    1  UNL1        0.0544
     17 C           4.3754   -0.5442   18.8666 C.ar    1  UNL1        0.0046
     18 C           5.4678   -1.3558   18.2358 C.ar    1  UNL1        0.0010
     19 C           5.4069   -2.8540   18.2745 C.ar    1  UNL1        0.0114
     20 C           4.2534   -3.5407   18.9439 C.ar    1  UNL1        0.0578
     21 CL          4.1924   -5.0390   18.9826 Cl      1  UNL1       -0.0822
     22 C           3.1610   -2.7291   19.5747 C.ar    1  UNL1        0.0159
     23 C           2.9568    0.7080   27.1438 C.3     1  UNL1        0.1474
     24 O           1.8243   -0.5428   29.1193 O.co2   1  UNL1       -0.5472
     25 C           2.7720   -0.5390   27.9566 C.2     1  UNL1        0.0732
     26 O           3.5349   -1.7822   27.6068 O.co2   1  UNL1       -0.5472
@<TRIPOS>UNITY_ATOM_ATTR
24 1
charge -1
@<TRIPOS>BOND
     1    24    25   ar
     2    25    26   ar
     3    25    23    1
     4    23     1    1
     5     1     2   ar
     6     2     3   ar
     7     3     4   ar
     8     4     5   ar
     9     5     6   ar
    10     6     7   ar
    11     7     8   ar
    12     8     9   ar
    13     3    10    1
    14    10    11    1
    15    11    12   am
    16    12    13    2
    17    12    16    1
    18    16    17   ar
    19    17    18   ar
    20    18    19   ar
    21    19    20   ar
    22    20    21    1
    23    20    22   ar
    24    11    14    1
    25    14    15    1
    26     9     1   ar
    27    22    16   ar
    28    15     2    1
    29     9     4   ar
@<TRIPOS>MOLECULE
*****
 26 29 0 0 0
SMALL
GASTEIGER

@<TRIPOS>ATOM
      1 N           3.2746   -1.6990   19.8627 N.ar    1  UNL1       -0.3256
      2 C           2.2941   -0.5758   20.0274 C.ar    1  UNL1        0.0367
      3 C           2.2482   -0.2102   21.4814 C.ar    1  UNL1        0.0108
      4 C           3.2003   -1.1074   22.2153 C.ar    1  UNL1        0.0145
      5 C           3.5715   -1.2053   23.6653 C.ar    1  UNL1        0.0012
      6 C           4.5771   -2.2234   24.1149 C.ar    1  UNL1        0.0001
      7 C           5.2115   -3.1436   23.1144 C.ar    1  UNL1        0.0015
      8 C           4.8403   -3.0456   21.6644 C.ar    1  UNL1        0.0172
      9 C           3.8347   -2.0275   21.2149 C.ar    1  UNL1        0.0597
     10 C           1.3454    0.8925   21.9492 C.3     1  UNL1        0.1216
     11 N           0.4884    1.6295   20.9631 N.am    1  UNL1       -0.2715
     12 C          -0.4145    2.7323   21.4310 C.2     1  UNL1        0.2493
     13 O          -0.4604    3.0979   22.8850 O.2     1  UNL1       -0.2699
     14 C           0.5344    1.2639   19.5090 C.3     1  UNL1        0.1003
     15 C           1.4372    0.1612   19.0412 C.3     1  UNL1        0.0650
     16 C          -1.2713    3.4693   20.4447 C.ar    1  UNL1        0.0544
     17 C          -0.6736    4.5474   19.5902 C.ar    1  UNL1        0.0046
     18 C          -1.5305    5.2843   18.6040 C.ar    1  UNL1        0.0010
     19 C          -2.9852    4.9431   18.4723 C.ar    1  UNL1        0.0114
     20 C          -3.5831    3.8649   19.3269 C.ar    1  UNL1        0.0578
     21 CL         -5.0378    3.5237   19.1952 Cl      1  UNL1       -0.0822
     22 C          -2.7261    3.1280   20.3131 C.ar    1  UNL1        0.0159
     23 C           3.6323   -2.3750   18.5723 C.3     1  UNL1        0.1474
     24 O           3.8087   -0.9953   16.3779 O.co2   1  UNL1       -0.5472
     25 C           4.4657   -1.6549   17.5542 C.2     1  UNL1        0.0732
     26 O           5.9562   -1.5942   17.7121 O.co2   1  UNL1       -0.5472
@<TRIPOS>UNITY_ATOM_ATTR
24 1
charge -1
@<TRIPOS>BOND
     1    24    25   ar
     2    25    26   ar
     3    25    23    1
     4    23     1    1
     5     1     2   ar
     6     2     3   ar
     7     3     4   ar
     8     4     5   ar
     9     5     6   ar
    10     6     7   ar
    11     7     8   ar
    12     8     9   ar
    13     3    10    1
    14    10    11    1
    15    11    12   am
    16    12    13    2
    17    12    16    1
    18    16    17   ar
    19    17    18   ar
    20    18    19   ar
    21    19    20   ar
    22    20    21    1
    23    20    22   ar
    24    11    14    1
    25    14    15    1
    26     9     1   ar
    27    22    16   ar
    28    15     2    1
    29     9     4   ar
@<TRIPOS>MOLECULE
*****
 26 29 0 0 0
SMALL
GASTEIGER

@<TRIPOS>ATOM
      1 N           6.8351   -3.7520   25.7582 N.ar    1  UNL1       -0.3256
      2 C           6.6784   -3.5860   27.2407 C.ar    1  UNL1        0.0367
      3 C           7.0670   -4.8784   27.8954 C.ar    1  UNL1        0.0108
      4 C           7.4640   -5.8431   26.8176 C.ar    1  UNL1        0.0145
      5 C           7.9374   -7.2655   26.8682 C.ar    1  UNL1        0.0012
      6 C           8.2675   -7.9917   25.5979 C.ar    1  UNL1        0.0001
      7 C           8.1242   -7.2955   24.2770 C.ar    1  UNL1        0.0015
      8 C           7.6508   -5.8731   24.2264 C.ar    1  UNL1        0.0172
      9 C           7.3207   -5.1469   25.4967 C.ar    1  UNL1        0.0597
     10 C           7.0092   -5.0099   29.3885 C.3     1  UNL1        0.1216
     11 N           6.5628   -3.8489   30.2269 N.am    1  UNL1       -0.2715
     12 C           6.5051   -3.9804   31.7201 C.2     1  UNL1        0.2493
     13 O           6.8937   -5.2728   32.3748 O.2     1  UNL1       -0.2699
     14 C           6.1742   -2.5565   29.5722 C.3     1  UNL1        0.1003
     15 C           6.2319   -2.4251   28.0791 C.3     1  UNL1        0.0650
     16 C           6.0586   -2.8194   32.5584 C.ar    1  UNL1        0.0544
     17 C           4.6456   -2.7539   33.0574 C.ar    1  UNL1        0.0046
     18 C           4.1993   -1.5928   33.8957 C.ar    1  UNL1        0.0010
     19 C           5.1659   -0.4972   34.2350 C.ar    1  UNL1        0.0114
     20 C           6.5791   -0.5627   33.7360 C.ar    1  UNL1        0.0578
     21 CL          7.5458    0.5329   34.0753 Cl      1  UNL1       -0.0822
     22 C           7.0254   -1.7237   32.8977 C.ar    1  UNL1        0.0159
     23 C           6.5555   -2.7065   24.7195 C.3     1  UNL1        0.1474
     24 O           4.1964   -1.6272   24.5796 O.co2   1  UNL1       -0.5472
     25 C           5.1998   -2.6255   24.0829 C.2     1  UNL1        0.0732
     26 O           4.8472   -3.5428   22.9496 O.co2   1  UNL1       -0.5472
@<TRIPOS>UNITY_ATOM_ATTR
24 1
charge -1
@<TRIPOS>BOND
     1    24    25   ar
     2    25    26   ar
     3    25    23    1
     4    23     1    1
     5     1     2   ar
     6     2     3   ar
     7     3     4   ar
     8     4     5   ar
     9     5     6   ar
    10     6     7   ar
    11     7     8   ar
    12     8     9   ar
    13     3    10    1
    14    10    11    1
    15    11    12   am
    16    12    13    2
    17    12    16    1
    18    16    17   ar
    19    17    18   ar
    20    18    19   ar
    21    19    20   ar
    22    20    21    1
    23    20    22   ar
    24    11    14    1
    25    14    15    1
    26     9     1   ar
    27    22    16   ar
    28    15     2    1
    29     9     4   ar
@<TRIPOS>MOLECULE
*****
 26 29 0 0 0
SMALL
GASTEIGER

@<TRIPOS>ATOM
      1 N           3.9086   -2.3897   20.3695 N.ar    1  UNL1       -0.3256
      2 C           4.5883   -2.7210   21.6649 C.ar    1  UNL1        0.0367
      3 C           4.0226   -1.8259   22.7273 C.ar    1  UNL1        0.0108
      4 C           2.9932   -0.9414   22.0885 C.ar    1  UNL1        0.0145
      5 C           2.1110    0.1362   22.6455 C.ar    1  UNL1        0.0012
      6 C           1.1583    0.8655   21.7452 C.ar    1  UNL1        0.0001
      7 C           1.0878    0.5170   20.2879 C.ar    1  UNL1        0.0015
      8 C           1.9701   -0.5606   19.7310 C.ar    1  UNL1        0.0172
      9 C           2.9228   -1.2898   20.6312 C.ar    1  UNL1        0.0597
     10 C           4.5178   -1.9320   24.1392 C.3     1  UNL1        0.1216
     11 N           5.5788   -2.9331   24.4887 N.am    1  UNL1       -0.2715
     12 C           6.0741   -3.0390   25.9007 C.2     1  UNL1        0.2493
     13 O           5.5084   -2.1440   26.9631 O.2     1  UNL1       -0.2699
     14 C           6.1446   -3.8281   23.4263 C.3     1  UNL1        0.1003
     15 C           5.6493   -3.7221   22.0144 C.3     1  UNL1        0.0650
     16 C           7.1351   -4.0402   26.2500 C.ar    1  UNL1        0.0544
     17 C           8.4744   -3.5741   26.7387 C.ar    1  UNL1        0.0046
     18 C           9.5354   -4.5753   27.0881 C.ar    1  UNL1        0.0010
     19 C           9.2570   -6.0426   26.9487 C.ar    1  UNL1        0.0114
     20 C           7.9175   -6.5088   26.4600 C.ar    1  UNL1        0.0578
     21 CL          7.6391   -7.9761   26.3206 Cl      1  UNL1       -0.0822
     22 C           6.8566   -5.5076   26.1106 C.ar    1  UNL1        0.0159
     23 C           4.1689   -3.0434   19.0448 C.3     1  UNL1        0.1474
     24 O           4.1957   -1.3436   17.0801 O.co2   1  UNL1       -0.5472
     25 C           4.9194   -2.3032   17.9777 C.2     1  UNL1        0.0732
     26 O           6.3936   -2.5224   17.8081 O.co2   1  UNL1       -0.5472
@<TRIPOS>UNITY_ATOM_ATTR
24 1
charge -1
@<TRIPOS>BOND
     1    24    25   ar
     2    25    26   ar
     3    25    23    1
     4    23     1    1
     5     1     2   ar
     6     2     3   ar
     7     3     4   ar
     8     4     5   ar
     9     5     6   ar
    10     6     7   ar
    11     7     8   ar
    12     8     9   ar
    13     3    10    1
    14    10    11    1
    15    11    12   am
    16    12    13    2
    17    12    16    1
    18    16    17   ar
    19    17    18   ar
    20    18    19   ar
    21    19    20   ar
    22    20    21    1
    23    20    22   ar
    24    11    14    1
    25    14    15    1
    26     9     1   ar
    27    22    16   ar
    28    15     2    1
    29     9     4   ar
@<TRIPOS>MOLECULE
*****
 26 29 0 0 0
SMALL
GASTEIGER

@<TRIPOS>ATOM
      1 N           4.4330   -1.5460   21.6954 N.ar    1  UNL1       -0.3256
      2 C           3.5509   -0.8085   22.6588 C.ar    1  UNL1        0.0367
      3 C           2.6278    0.0674   21.8647 C.ar    1  UNL1        0.0108
      4 C           2.9394   -0.1287   20.4105 C.ar    1  UNL1        0.0145
      5 C           2.3514    0.4719   19.1682 C.ar    1  UNL1        0.0012
      6 C           2.8790    0.0754   17.8213 C.ar    1  UNL1        0.0001
      7 C           3.9947   -0.9217   17.7167 C.ar    1  UNL1        0.0015
      8 C           4.5828   -1.5223   18.9590 C.ar    1  UNL1        0.0172
      9 C           4.0551   -1.1258   20.3059 C.ar    1  UNL1        0.0597
     10 C           1.6228    0.9304   22.5683 C.3     1  UNL1        0.1216
     11 N           1.5408    0.9175   24.0660 N.am    1  UNL1       -0.2715
     12 C           0.5357    1.7805   24.7696 C.2     1  UNL1        0.2493
     13 O          -0.3874    2.6565   23.9755 O.2     1  UNL1       -0.2699
     14 C           2.4639    0.0415   24.8601 C.3     1  UNL1        0.1003
     15 C           3.4690   -0.8215   24.1565 C.3     1  UNL1        0.0650
     16 C           0.4539    1.7675   26.2673 C.ar    1  UNL1        0.0544
     17 C           1.4121    2.5888   27.0781 C.ar    1  UNL1        0.0046
     18 C           1.3302    2.5757   28.5758 C.ar    1  UNL1        0.0010
     19 C           0.2900    1.7414   29.2628 C.ar    1  UNL1        0.0114
     20 C          -0.6684    0.9201   28.4520 C.ar    1  UNL1        0.0578
     21 CL         -1.7085    0.0858   29.1390 Cl      1  UNL1       -0.0822
     22 C          -0.5864    0.9332   26.9543 C.ar    1  UNL1        0.0159
     23 C           5.5049   -2.5307   22.0579 C.3     1  UNL1        0.1474
     24 O           4.2833   -4.6648   21.2193 O.co2   1  UNL1       -0.5472
     25 C           5.5461   -3.8737   21.3912 C.2     1  UNL1        0.0732
     26 O           6.8501   -4.4258   20.8963 O.co2   1  UNL1       -0.5472
@<TRIPOS>UNITY_ATOM_ATTR
24 1
charge -1
@<TRIPOS>BOND
     1    24    25   ar
     2    25    26   ar
     3    25    23    1
     4    23     1    1
     5     1     2   ar
     6     2     3   ar
     7     3     4   ar
     8     4     5   ar
     9     5     6   ar
    10     6     7   ar
    11     7     8   ar
    12     8     9   ar
    13     3    10    1
    14    10    11    1
    15    11    12   am
    16    12    13    2
    17    12    16    1
    18    16    17   ar
    19    17    18   ar
    20    18    19   ar
    21    19    20   ar
    22    20    21    1
    23    20    22   ar
    24    11    14    1
    25    14    15    1
    26     9     1   ar
    27    22    16   ar
    28    15     2    1
    29     9     4   ar
@<TRIPOS>MOLECULE
*****
 26 29 0 0 0
SMALL
GASTEIGER

@<TRIPOS>ATOM
      1 N           3.6785   -1.5090   20.0741 N.ar    1  UNL1       -0.3256
      2 C           4.5838   -2.3268   20.9468 C.ar    1  UNL1        0.0367
      3 C           5.9823   -2.1880   20.4227 C.ar    1  UNL1        0.0108
      4 C           5.9414   -1.2844   19.2260 C.ar    1  UNL1        0.0145
      5 C           7.0167   -0.7896   18.3048 C.ar    1  UNL1        0.0012
      6 C           6.6682    0.1249   17.1681 C.ar    1  UNL1        0.0001
      7 C           5.2443    0.5445   16.9526 C.ar    1  UNL1        0.0015
      8 C           4.1689    0.0497   17.8739 C.ar    1  UNL1        0.0172
      9 C           4.5175   -0.8648   19.0106 C.ar    1  UNL1        0.0597
     10 C           7.1124   -2.9023   21.1028 C.3     1  UNL1        0.1216
     11 N           6.8440   -3.7554   22.3070 N.am    1  UNL1       -0.2715
     12 C           7.9742   -4.4697   22.9872 C.2     1  UNL1        0.2493
     13 O           9.3728   -4.3309   22.4630 O.2     1  UNL1       -0.2699
     14 C           5.4454   -3.8942   22.8311 C.3     1  UNL1        0.1003
     15 C           4.3153   -3.1799   22.1510 C.3     1  UNL1        0.0650
     16 C           7.7056   -5.3228   24.1914 C.ar    1  UNL1        0.0544
     17 C           8.0395   -6.7850   24.1644 C.ar    1  UNL1        0.0046
     18 C           7.7709   -7.6380   25.3687 C.ar    1  UNL1        0.0010
     19 C           7.1684   -7.0289   26.5999 C.ar    1  UNL1        0.0114
     20 C           6.8346   -5.5667   26.6270 C.ar    1  UNL1        0.0578
     21 CL          6.2321   -4.9575   27.8582 Cl      1  UNL1       -0.0822
     22 C           7.1032   -4.7136   25.4227 C.ar    1  UNL1        0.0159
     23 C           2.1946   -1.3613   20.2363 C.3     1  UNL1        0.1474
     24 O           2.5358    0.9813   21.3066 O.co2   1  UNL1       -0.5472
     25 C           1.6227   -0.0849   20.7780 C.2     1  UNL1        0.0732
     26 O           0.1375    0.1254   20.7913 O.co2   1  UNL1       -0.5472
@<TRIPOS>UNITY_ATOM_ATTR
24 1
charge -1
@<TRIPOS>BOND
     1    24    25   ar
     2    25    26   ar
     3    25    23    1
     4    23     1    1
     5     1     2   ar
     6     2     3   ar
     7     3     4   ar
     8     4     5   ar
     9     5     6   ar
    10     6     7   ar
    11     7     8   ar
    12     8     9   ar
    13     3    10    1
    14    10    11    1
    15    11    12   am
    16    12    13    2
    17    12    16    1
    18    16    17   ar
    19    17    18   ar
    20    18    19   ar
    21    19    20   ar
    22    20    21    1
    23    20    22   ar
    24    11    14    1
    25    14    15    1
    26     9     1   ar
    27    22    16   ar
    28    15     2    1
    29     9     4   ar
@<TRIPOS>MOLECULE
*****
 26 29 0 0 0
SMALL
GASTEIGER

@<TRIPOS>ATOM
      1 N          -0.2852    2.7787   22.7891 N.ar    1  UNL1       -0.3256
      2 C           0.7626    1.7472   22.4923 C.ar    1  UNL1        0.0367
      3 C           1.0859    1.0336   23.7715 C.ar    1  UNL1        0.0108
      4 C           0.2379    1.6241   24.8588 C.ar    1  UNL1        0.0145
      5 C           0.1279    1.3190   26.3233 C.ar    1  UNL1        0.0012
      6 C          -0.8295    2.0925   27.1806 C.ar    1  UNL1        0.0001
      7 C          -1.6769    3.1711   26.5735 C.ar    1  UNL1        0.0015
      8 C          -1.5668    3.4761   25.1090 C.ar    1  UNL1        0.0172
      9 C          -0.6094    2.7026   24.2516 C.ar    1  UNL1        0.0597
     10 C           2.1107   -0.0617   23.7809 C.3     1  UNL1        0.1216
     11 N           2.8122   -0.4434   22.5111 N.am    1  UNL1       -0.2715
     12 C           3.8370   -1.5388   22.5206 C.2     1  UNL1        0.2493
     13 O           4.1603   -2.2524   23.7997 O.2     1  UNL1       -0.2699
     14 C           2.4889    0.2702   21.2320 C.3     1  UNL1        0.1003
     15 C           1.4641    1.3655   21.2225 C.3     1  UNL1        0.0650
     16 C           4.5384   -1.9204   21.2508 C.ar    1  UNL1        0.0544
     17 C           5.5743   -1.0087   20.6628 C.ar    1  UNL1        0.0046
     18 C           6.2757   -1.3904   19.3930 C.ar    1  UNL1        0.0010
     19 C           5.9412   -2.6839   18.7112 C.ar    1  UNL1        0.0114
     20 C           4.9053   -3.5958   19.2991 C.ar    1  UNL1        0.0578
     21 CL          4.5709   -4.8893   18.6173 Cl      1  UNL1       -0.0822
     22 C           4.2040   -3.2140   20.5689 C.ar    1  UNL1        0.0159
     23 C          -0.9006    3.7209   21.7974 C.3     1  UNL1        0.1474
     24 O          -3.0274    2.6675   20.7405 O.co2   1  UNL1       -0.5472
     25 C          -1.6252    3.1814   20.6000 C.2     1  UNL1        0.0732
     26 O          -0.9477    3.1558   19.2620 O.co2   1  UNL1       -0.5472
@<TRIPOS>UNITY_ATOM_ATTR
24 1
charge -1
@<TRIPOS>BOND
     1    24    25   ar
     2    25    26   ar
     3    25    23    1
     4    23     1    1
     5     1     2   ar
     6     2     3   ar
     7     3     4   ar
     8     4     5   ar
     9     5     6   ar
    10     6     7   ar
    11     7     8   ar
    12     8     9   ar
    13     3    10    1
    14    10    11    1
    15    11    12   am
    16    12    13    2
    17    12    16    1
    18    16    17   ar
    19    17    18   ar
    20    18    19   ar
    21    19    20   ar
    22    20    21    1
    23    20    22   ar
    24    11    14    1
    25    14    15    1
    26     9     1   ar
    27    22    16   ar
    28    15     2    1
    29     9     4   ar
@<TRIPOS>MOLECULE
*****
 26 29 0 0 0
SMALL
GASTEIGER

@<TRIPOS>ATOM
      1 N           1.0321    5.3192   34.9675 N.ar    1  UNL1       -0.3256
      2 C           1.0316    4.3995   33.7825 C.ar    1  UNL1        0.0367
      3 C           1.8538    3.1943   34.1308 C.ar    1  UNL1        0.0108
      4 C           2.3625    3.3691   35.5311 C.ar    1  UNL1        0.0145
      5 C           3.2224    2.5021   36.4021 C.ar    1  UNL1        0.0012
      6 C           3.5745    2.9483   37.7902 C.ar    1  UNL1        0.0001
      7 C           3.0667    4.2616   38.3073 C.ar    1  UNL1        0.0015
      8 C           2.2067    5.1286   37.4363 C.ar    1  UNL1        0.0172
      9 C           1.8546    4.6824   36.0482 C.ar    1  UNL1        0.0597
     10 C           2.0332    2.0934   33.1280 C.3     1  UNL1        0.1216
     11 N           1.3903    2.1977   31.7767 N.am    1  UNL1       -0.2715
     12 C           1.5696    1.0967   30.7738 C.2     1  UNL1        0.2493
     13 O           2.3918   -0.1085   31.1222 O.2     1  UNL1       -0.2699
     14 C           0.5681    3.4029   31.4283 C.3     1  UNL1        0.1003
     15 C           0.3887    4.5039   32.4312 C.3     1  UNL1        0.0650
     16 C           0.9267    1.2011   29.4226 C.ar    1  UNL1        0.0544
     17 C          -0.4934    0.7577   29.2314 C.ar    1  UNL1        0.0046
     18 C          -1.1363    0.8622   27.8801 C.ar    1  UNL1        0.0010
     19 C          -0.3590    1.4100   26.7201 C.ar    1  UNL1        0.0114
     20 C           1.0612    1.8534   26.9113 C.ar    1  UNL1        0.0578
     21 CL          1.8385    2.4012   25.7512 Cl      1  UNL1       -0.0822
     22 C           1.7041    1.7489   28.2625 C.ar    1  UNL1        0.0159
     23 C           0.3328    6.6433   35.0562 C.3     1  UNL1        0.1474
     24 O          -2.2612    6.6182   35.1980 O.co2   1  UNL1       -0.5472
     25 C          -0.9253    6.7745   35.8622 C.2     1  UNL1        0.0732
     26 O          -0.8478    7.0620   37.3323 O.co2   1  UNL1       -0.5472
@<TRIPOS>UNITY_ATOM_ATTR
24 1
charge -1
@<TRIPOS>BOND
     1    24    25   ar
     2    25    26   ar
     3    25    23    1
     4    23     1    1
     5     1     2   ar
     6     2     3   ar
     7     3     4   ar
     8     4     5   ar
     9     5     6   ar
    10     6     7   ar
    11     7     8   ar
    12     8     9   ar
    13     3    10    1
    14    10    11    1
    15    11    12   am
    16    12    13    2
    17    12    16    1
    18    16    17   ar
    19    17    18   ar
    20    18    19   ar
    21    19    20   ar
    22    20    21    1
    23    20    22   ar
    24    11    14    1
    25    14    15    1
    26     9     1   ar
    27    22    16   ar
    28    15     2    1
    29     9     4   ar
@<TRIPOS>MOLECULE
*****
 26 29 0 0 0
SMALL
GASTEIGER

@<TRIPOS>ATOM
      1 N           6.1070   -2.4402   26.1097 N.ar    1  UNL1       -0.3256
      2 C           5.5554   -2.3171   24.7203 C.ar    1  UNL1        0.0367
      3 C           5.9383   -3.5512   23.9586 C.ar    1  UNL1        0.0108
      4 C           6.7266   -4.4371   24.8772 C.ar    1  UNL1        0.0145
      5 C           7.3629   -5.7802   24.6749 C.ar    1  UNL1        0.0012
      6 C           8.1035   -6.4367   25.8021 C.ar    1  UNL1        0.0001
      7 C           8.2077   -5.7500   27.1316 C.ar    1  UNL1        0.0015
      8 C           7.5714   -4.4069   27.3339 C.ar    1  UNL1        0.0172
      9 C           6.8309   -3.7504   26.2068 C.ar    1  UNL1        0.0597
     10 C           5.5197   -3.7089   22.5269 C.3     1  UNL1        0.1216
     11 N           4.7182   -2.6325   21.8568 N.am    1  UNL1       -0.2715
     12 C           4.2996   -2.7903   20.4250 C.2     1  UNL1        0.2493
     13 O           4.6826   -4.0244   19.6633 O.2     1  UNL1       -0.2699
     14 C           4.3353   -1.3983   22.6186 C.3     1  UNL1        0.1003
     15 C           4.7539   -1.2406   24.0503 C.3     1  UNL1        0.0650
     16 C           3.4981   -1.7138   19.7551 C.ar    1  UNL1        0.0544
     17 C           3.9855   -1.1023   18.4751 C.ar    1  UNL1        0.0046
     18 C           3.1839   -0.0258   17.8052 C.ar    1  UNL1        0.0010
     19 C           1.8950    0.4392   18.4154 C.ar    1  UNL1        0.0114
     20 C           1.4075   -0.1723   19.6955 C.ar    1  UNL1        0.0578
     21 CL          0.1185    0.2926   20.3056 Cl      1  UNL1       -0.0822
     22 C           2.2091   -1.2488   20.3653 C.ar    1  UNL1        0.0159
     23 C           5.9605   -1.4303   27.2092 C.3     1  UNL1        0.1474
     24 O           3.3957   -1.7146   27.5104 O.co2   1  UNL1       -0.5472
     25 C           4.7522   -1.4585   28.0973 C.2     1  UNL1        0.0732
     26 O           4.9001   -1.2305   29.5725 O.co2   1  UNL1       -0.5472
@<TRIPOS>UNITY_ATOM_ATTR
24 1
charge -1
@<TRIPOS>BOND
     1    24    25   ar
     2    25    26   ar
     3    25    23    1
     4    23     1    1
     5     1     2   ar
     6     2     3   ar
     7     3     4   ar
     8     4     5   ar
     9     5     6   ar
    10     6     7   ar
    11     7     8   ar
    12     8     9   ar
    13     3    10    1
    14    10    11    1
    15    11    12   am
    16    12    13    2
    17    12    16    1
    18    16    17   ar
    19    17    18   ar
    20    18    19   ar
    21    19    20   ar
    22    20    21    1
    23    20    22   ar
    24    11    14    1
    25    14    15    1
    26     9     1   ar
    27    22    16   ar
    28    15     2    1
    29     9     4   ar
