@<TRIPOS>MOLECULE
*****
 32 35 0 0 0
SMALL
GASTEIGER

@<TRIPOS>ATOM
      1 N          -8.7203  -19.2529   21.0247 N.3     1  UNL1       -0.2679
      2 C          -9.0730  -19.0018   22.4609 C.3     1  UNL1        0.0978
      3 C          -9.7987  -20.0512   23.2495 C.3     1  UNL1        0.0224
      4 C         -10.1513  -19.8001   24.6856 C.3     1  UNL1        0.0065
      5 C          -9.7782  -18.4996   25.3332 C.3     1  UNL1        0.0277
      6 C          -9.0525  -17.4502   24.5446 C.ar    1  UNL1       -0.0073
      7 C          -8.6794  -16.1496   25.1922 C.ar    1  UNL1       -0.0015
      8 C          -7.9537  -15.1001   24.4035 C.ar    1  UNL1        0.0203
      9 C          -7.6010  -15.3512   22.9674 C.ar    1  UNL1        0.0985
     10 N          -7.9741  -16.6517   22.3198 N.ar    1  UNL1       -0.2471
     11 C          -8.6999  -17.7013   23.1084 C.ar    1  UNL1        0.0695
     12 C          -9.5852  -18.6980   19.9320 C.3     1  UNL1        0.0725
     13 C         -11.0712  -18.6160   20.1202 C.3     1  UNL1        0.0187
     14 C         -12.4844  -18.3189   21.6740 C.3     1  UNL1        0.0014
     15 C         -11.6776  -17.4173   20.7875 C.3     1  UNL1        0.0156
     16 C         -10.8707  -16.5156   19.9010 C.3     1  UNL1        0.0014
     17 C         -12.2840  -16.2186   21.4548 C.3     1  UNL1        0.0651
     18 N         -11.5942  -15.5827   22.6252 N.3     1  UNL1       -0.3211
     19 H         -11.5906  -16.2322   23.4117 H       1  UNL1        0.1189
     20 H         -12.0892  -14.7310   22.8899 H       1  UNL1        0.1189
     21 C          -7.5028  -20.0588   20.6812 C.3     1  UNL1        0.0886
     22 C          -6.1358  -19.5116   20.9675 C.3     1  UNL1        0.0748
     23 C          -5.1524  -19.3276   19.8499 C.3     1  UNL1        0.0432
     24 C          -3.7854  -18.7804   20.1362 C.ar    1  UNL1       -0.0234
     25 C          -2.8020  -18.5964   19.0186 C.ar    1  UNL1       -0.0045
     26 C          -1.4350  -18.0493   19.3050 C.ar    1  UNL1       -0.0003
     27 C          -1.0515  -17.6861   20.7089 C.ar    1  UNL1       -0.0003
     28 C          -2.0349  -17.8701   21.8265 C.ar    1  UNL1       -0.0032
     29 C          -3.4018  -18.4173   21.5401 C.ar    1  UNL1       -0.0103
     30 C          -4.3853  -18.6013   22.6577 C.3     1  UNL1        0.0953
     31 N          -5.7522  -19.1484   22.3714 N.3     1  UNL1       -0.2934
     32 H          -6.4222  -18.4474   22.6877 H       1  UNL1        0.1236
@<TRIPOS>BOND
     1    14    15    1
     2    15    16    1
     3    15    17    1
     4    17    18    1
     5    15    13    1
     6    13    12    1
     7    12     1    1
     8     1    21    1
     9    22    21    1
    10    22    23    1
    11    23    24    1
    12    24    25   ar
    13    25    26   ar
    14    26    27   ar
    15    27    28   ar
    16    28    29   ar
    17    29    30    1
    18    30    31    1
    19     2     1    1
    20     2     3    1
    21     3     4    1
    22     4     5    1
    23     5     6    1
    24     6     7   ar
    25     7     8   ar
    26     8     9   ar
    27     9    10   ar
    28    10    11   ar
    29    31    22    1
    30    11     2    1
    31    29    24   ar
    32    11     6   ar
    33    18    19    1
    34    18    20    1
    35    31    32    1
@<TRIPOS>MOLECULE
*****
 32 35 0 0 0
SMALL
GASTEIGER

@<TRIPOS>ATOM
      1 N          -7.8179  -17.9572   22.6842 N.3     1  UNL1       -0.2679
      2 C          -9.2468  -18.2015   23.0697 C.3     1  UNL1        0.0978
      3 C          -9.5661  -19.0153   24.2886 C.3     1  UNL1        0.0224
      4 C         -10.9950  -19.2597   24.6741 C.3     1  UNL1        0.0065
      5 C         -12.1046  -18.6903   23.8407 C.3     1  UNL1        0.0277
      6 C         -11.7852  -17.8765   22.6218 C.ar    1  UNL1       -0.0073
      7 C         -12.8948  -17.3070   21.7883 C.ar    1  UNL1       -0.0015
      8 C         -12.5755  -16.4932   20.5694 C.ar    1  UNL1        0.0203
      9 C         -11.1466  -16.2488   20.1840 C.ar    1  UNL1        0.0985
     10 N         -10.0370  -16.8183   21.0174 N.ar    1  UNL1       -0.2471
     11 C         -10.3564  -17.6321   22.2363 C.ar    1  UNL1        0.0695
     12 C          -7.2529  -16.5688   22.7402 C.3     1  UNL1        0.0725
     13 C          -7.7019  -15.6189   23.8108 C.3     1  UNL1        0.0187
     14 C          -5.6538  -15.5012   24.3506 C.3     1  UNL1        0.0014
     15 C          -6.9493  -15.5384   25.1058 C.3     1  UNL1        0.0156
     16 C          -8.2447  -15.5755   25.8610 C.3     1  UNL1        0.0014
     17 C          -6.1966  -15.4578   26.4008 C.3     1  UNL1        0.0651
     18 N          -6.7744  -14.6984   27.5581 N.3     1  UNL1       -0.3211
     19 H          -6.8199  -13.7064   27.3251 H       1  UNL1        0.1189
     20 H          -6.1831  -14.8281   28.3791 H       1  UNL1        0.1189
     21 C          -6.9541  -19.1012   22.2428 C.3     1  UNL1        0.0886
     22 C          -5.5017  -18.8729   21.9449 C.3     1  UNL1        0.0748
     23 C          -5.0447  -18.7033   20.5263 C.3     1  UNL1        0.0432
     24 C          -3.5924  -18.4751   20.2284 C.ar    1  UNL1       -0.0234
     25 C          -3.1354  -18.3054   18.8099 C.ar    1  UNL1       -0.0045
     26 C          -1.6831  -18.0772   18.5120 C.ar    1  UNL1       -0.0003
     27 C          -0.6878  -18.0186   19.6327 C.ar    1  UNL1       -0.0003
     28 C          -1.1448  -18.1882   21.0513 C.ar    1  UNL1       -0.0032
     29 C          -2.5971  -18.4164   21.3491 C.ar    1  UNL1       -0.0103
     30 C          -3.0542  -18.5861   22.7678 C.3     1  UNL1        0.0953
     31 N          -4.5064  -18.8143   23.0656 N.3     1  UNL1       -0.2934
     32 H          -4.8027  -18.0585   23.6832 H       1  UNL1        0.1236
@<TRIPOS>BOND
     1    14    15    1
     2    15    16    1
     3    15    17    1
     4    17    18    1
     5    15    13    1
     6    13    12    1
     7    12     1    1
     8     1    21    1
     9    22    21    1
    10    22    23    1
    11    23    24    1
    12    24    25   ar
    13    25    26   ar
    14    26    27   ar
    15    27    28   ar
    16    28    29   ar
    17    29    30    1
    18    30    31    1
    19     2     1    1
    20     2     3    1
    21     3     4    1
    22     4     5    1
    23     5     6    1
    24     6     7   ar
    25     7     8   ar
    26     8     9   ar
    27     9    10   ar
    28    10    11   ar
    29    31    22    1
    30    11     2    1
    31    29    24   ar
    32    11     6   ar
    33    18    19    1
    34    18    20    1
    35    31    32    1
@<TRIPOS>MOLECULE
*****
 32 35 0 0 0
SMALL
GASTEIGER

@<TRIPOS>ATOM
      1 N          -8.7292  -17.4849   22.6110 N.3     1  UNL1       -0.2679
      2 C         -10.1425  -17.2246   22.1810 C.3     1  UNL1        0.0978
      3 C         -10.4142  -16.5114   20.8897 C.3     1  UNL1        0.0224
      4 C         -11.8275  -16.2511   20.4597 C.3     1  UNL1        0.0065
      5 C         -12.9690  -16.7039   21.3210 C.3     1  UNL1        0.0277
      6 C         -12.6973  -17.4171   22.6122 C.ar    1  UNL1       -0.0073
      7 C         -13.8388  -17.8700   23.4736 C.ar    1  UNL1       -0.0015
      8 C         -13.5670  -18.5831   24.7649 C.ar    1  UNL1        0.0203
      9 C         -12.1538  -18.8435   25.1949 C.ar    1  UNL1        0.0985
     10 N         -11.0123  -18.3906   24.3336 N.ar    1  UNL1       -0.2471
     11 C         -11.2840  -17.6774   23.0423 C.ar    1  UNL1        0.0695
     12 C          -7.9655  -16.4303   23.3556 C.3     1  UNL1        0.0725
     13 C          -8.3309  -16.0992   24.7723 C.3     1  UNL1        0.0187
     14 C          -8.1747  -15.9576   26.8831 C.3     1  UNL1        0.0014
     15 C          -7.2756  -15.6281   25.7285 C.3     1  UNL1        0.0156
     16 C          -6.3766  -15.2986   24.5740 C.3     1  UNL1        0.0014
     17 C          -6.2204  -15.1570   26.6847 C.3     1  UNL1        0.0651
     18 N          -5.1009  -14.2861   26.1967 N.3     1  UNL1       -0.3211
     19 H          -4.5186  -14.8135   25.5462 H       1  UNL1        0.1189
     20 H          -4.5357  -13.9826   26.9897 H       1  UNL1        0.1189
     21 C          -8.0797  -18.7999   22.2964 C.3     1  UNL1        0.0886
     22 C          -6.7623  -18.8332   21.5797 C.3     1  UNL1        0.0748
     23 C          -5.4845  -18.6907   22.3522 C.3     1  UNL1        0.0432
     24 C          -4.1671  -18.7240   21.6355 C.ar    1  UNL1       -0.0234
     25 C          -2.8893  -18.5815   22.4080 C.ar    1  UNL1       -0.0045
     26 C          -1.5720  -18.6148   21.6914 C.ar    1  UNL1       -0.0003
     27 C          -1.5326  -18.7908   20.2022 C.ar    1  UNL1       -0.0003
     28 C          -2.8104  -18.9334   19.4298 C.ar    1  UNL1       -0.0032
     29 C          -4.1277  -18.9000   20.1464 C.ar    1  UNL1       -0.0103
     30 C          -5.4056  -19.0426   19.3739 C.3     1  UNL1        0.0953
     31 N          -6.7229  -19.0092   20.0906 N.3     1  UNL1       -0.2934
     32 H          -7.1919  -19.8915   19.8858 H       1  UNL1        0.1236
@<TRIPOS>BOND
     1    14    15    1
     2    15    16    1
     3    15    17    1
     4    17    18    1
     5    15    13    1
     6    13    12    1
     7    12     1    1
     8     1    21    1
     9    22    21    1
    10    22    23    1
    11    23    24    1
    12    24    25   ar
    13    25    26   ar
    14    26    27   ar
    15    27    28   ar
    16    28    29   ar
    17    29    30    1
    18    30    31    1
    19     2     1    1
    20     2     3    1
    21     3     4    1
    22     4     5    1
    23     5     6    1
    24     6     7   ar
    25     7     8   ar
    26     8     9   ar
    27     9    10   ar
    28    10    11   ar
    29    31    22    1
    30    11     2    1
    31    29    24   ar
    32    11     6   ar
    33    18    19    1
    34    18    20    1
    35    31    32    1
@<TRIPOS>MOLECULE
*****
 32 35 0 0 0
SMALL
GASTEIGER

@<TRIPOS>ATOM
      1 N          -6.6160  -17.4042   22.4145 N.3     1  UNL1       -0.2679
      2 C          -5.9590  -18.5587   21.7177 C.3     1  UNL1        0.0978
      3 C          -6.7863  -19.7137   21.2367 C.3     1  UNL1        0.0224
      4 C          -6.1293  -20.8681   20.5400 C.3     1  UNL1        0.0065
      5 C          -4.6449  -20.8676   20.3243 C.3     1  UNL1        0.0277
      6 C          -3.8176  -19.7126   20.8053 C.ar    1  UNL1       -0.0073
      7 C          -2.3331  -19.7121   20.5896 C.ar    1  UNL1       -0.0015
      8 C          -1.5058  -18.5571   21.0706 C.ar    1  UNL1        0.0203
      9 C          -2.1628  -17.4026   21.7673 C.ar    1  UNL1        0.0985
     10 N          -3.6472  -17.4031   21.9831 N.ar    1  UNL1       -0.2471
     11 C          -4.4746  -18.5581   21.5020 C.ar    1  UNL1        0.0695
     12 C          -6.2568  -17.0825   23.8348 C.3     1  UNL1        0.0725
     13 C          -6.4518  -15.6914   24.3612 C.3     1  UNL1        0.0187
     14 C          -8.2291  -15.4305   25.4894 C.3     1  UNL1        0.0014
     15 C          -6.7650  -15.4756   25.8121 C.3     1  UNL1        0.0156
     16 C          -5.3008  -15.5206   26.1348 C.3     1  UNL1        0.0014
     17 C          -7.0781  -15.2597   27.2631 C.3     1  UNL1        0.0651
     18 N          -8.4328  -14.7620   27.6720 N.3     1  UNL1       -0.3211
     19 H          -8.5646  -13.8116   27.3258 H       1  UNL1        0.1189
     20 H          -8.5035  -14.7660   28.6896 H       1  UNL1        0.1189
     21 C          -7.6322  -16.5714   21.6909 C.3     1  UNL1        0.0886
     22 C          -9.0879  -16.7039   22.0280 C.3     1  UNL1        0.0748
     23 C          -9.5258  -17.6577   23.0996 C.3     1  UNL1        0.0432
     24 C         -10.9814  -17.7903   23.4367 C.ar    1  UNL1       -0.0234
     25 C         -11.4193  -18.7440   24.5084 C.ar    1  UNL1       -0.0045
     26 C         -12.8749  -18.8765   24.8454 C.ar    1  UNL1       -0.0003
     27 C         -13.8926  -18.0553   24.1107 C.ar    1  UNL1       -0.0003
     28 C         -13.4548  -17.1015   23.0390 C.ar    1  UNL1       -0.0032
     29 C         -11.9992  -16.9690   22.7020 C.ar    1  UNL1       -0.0103
     30 C         -11.5613  -16.0152   21.6303 C.3     1  UNL1        0.0953
     31 N         -10.1057  -15.8827   21.2933 N.3     1  UNL1       -0.2934
     32 H          -9.8570  -14.9045   21.4411 H       1  UNL1        0.1236
@<TRIPOS>BOND
     1    14    15    1
     2    15    16    1
     3    15    17    1
     4    17    18    1
     5    15    13    1
     6    13    12    1
     7    12     1    1
     8     1    21    1
     9    22    21    1
    10    22    23    1
    11    23    24    1
    12    24    25   ar
    13    25    26   ar
    14    26    27   ar
    15    27    28   ar
    16    28    29   ar
    17    29    30    1
    18    30    31    1
    19     2     1    1
    20     2     3    1
    21     3     4    1
    22     4     5    1
    23     5     6    1
    24     6     7   ar
    25     7     8   ar
    26     8     9   ar
    27     9    10   ar
    28    10    11   ar
    29    31    22    1
    30    11     2    1
    31    29    24   ar
    32    11     6   ar
    33    18    19    1
    34    18    20    1
    35    31    32    1
@<TRIPOS>MOLECULE
*****
 32 35 0 0 0
SMALL
GASTEIGER

@<TRIPOS>ATOM
      1 N          -7.3200  -17.3969   23.1312 N.3     1  UNL1       -0.2679
      2 C          -8.7019  -17.9789   23.0893 C.3     1  UNL1        0.0978
      3 C          -9.5739  -17.9290   24.3087 C.3     1  UNL1        0.0224
      4 C         -10.9558  -18.5110   24.2669 C.3     1  UNL1        0.0065
      5 C         -11.4656  -19.1428   23.0056 C.3     1  UNL1        0.0277
      6 C         -10.5936  -19.1927   21.7862 C.ar    1  UNL1       -0.0073
      7 C         -11.1034  -19.8245   20.5249 C.ar    1  UNL1       -0.0015
      8 C         -10.2313  -19.8744   19.3054 C.ar    1  UNL1        0.0203
      9 C          -8.8495  -19.2924   19.3473 C.ar    1  UNL1        0.0985
     10 N          -8.3397  -18.6606   20.6086 N.ar    1  UNL1       -0.2471
     11 C          -9.2117  -18.6107   21.8281 C.ar    1  UNL1        0.0695
     12 C          -7.1305  -15.9100   23.0767 C.3     1  UNL1        0.0725
     13 C          -6.2438  -15.2298   24.0773 C.3     1  UNL1        0.0187
     14 C          -7.9409  -15.0316   25.3345 C.3     1  UNL1        0.0014
     15 C          -6.5019  -15.3987   25.5452 C.3     1  UNL1        0.0156
     16 C          -5.0629  -15.7658   25.7560 C.3     1  UNL1        0.0014
     17 C          -6.7600  -15.5676   27.0131 C.3     1  UNL1        0.0651
     18 N          -7.0440  -14.3680   27.8676 N.3     1  UNL1       -0.3211
     19 H          -6.2152  -13.7748   27.9072 H       1  UNL1        0.1189
     20 H          -7.2898  -14.6721   28.8097 H       1  UNL1        0.1189
     21 C          -6.1277  -18.3019   23.2275 C.3     1  UNL1        0.0886
     22 C          -5.1131  -18.3260   22.1228 C.3     1  UNL1        0.0748
     23 C          -3.7548  -17.7274   22.3388 C.3     1  UNL1        0.0432
     24 C          -2.7403  -17.7515   21.2342 C.ar    1  UNL1       -0.0234
     25 C          -1.3820  -17.1530   21.4502 C.ar    1  UNL1       -0.0045
     26 C          -0.3675  -17.1770   20.3456 C.ar    1  UNL1       -0.0003
     27 C          -0.7114  -17.7996   19.0249 C.ar    1  UNL1       -0.0003
     28 C          -2.0697  -18.3982   18.8089 C.ar    1  UNL1       -0.0032
     29 C          -3.0842  -18.3741   19.9135 C.ar    1  UNL1       -0.0103
     30 C          -4.4426  -18.9726   19.6975 C.3     1  UNL1        0.0953
     31 N          -5.4570  -18.9486   20.8022 N.3     1  UNL1       -0.2934
     32 H          -5.7099  -19.9185   20.9909 H       1  UNL1        0.1236
@<TRIPOS>BOND
     1    14    15    1
     2    15    16    1
     3    15    17    1
     4    17    18    1
     5    15    13    1
     6    13    12    1
     7    12     1    1
     8     1    21    1
     9    22    21    1
    10    22    23    1
    11    23    24    1
    12    24    25   ar
    13    25    26   ar
    14    26    27   ar
    15    27    28   ar
    16    28    29   ar
    17    29    30    1
    18    30    31    1
    19     2     1    1
    20     2     3    1
    21     3     4    1
    22     4     5    1
    23     5     6    1
    24     6     7   ar
    25     7     8   ar
    26     8     9   ar
    27     9    10   ar
    28    10    11   ar
    29    31    22    1
    30    11     2    1
    31    29    24   ar
    32    11     6   ar
    33    18    19    1
    34    18    20    1
    35    31    32    1
@<TRIPOS>MOLECULE
*****
 32 35 0 0 0
SMALL
GASTEIGER

@<TRIPOS>ATOM
      1 N          -7.4472  -17.1941   22.5552 N.3     1  UNL1       -0.2679
      2 C          -8.9088  -16.9775   22.2967 C.3     1  UNL1        0.0978
      3 C          -9.3477  -16.0268   21.2228 C.3     1  UNL1        0.0224
      4 C         -10.8093  -15.8102   20.9643 C.3     1  UNL1        0.0065
      5 C         -11.8320  -16.5443   21.7798 C.3     1  UNL1        0.0277
      6 C         -11.3931  -17.4950   22.8538 C.ar    1  UNL1       -0.0073
      7 C         -12.4158  -18.2292   23.6694 C.ar    1  UNL1       -0.0015
      8 C         -11.9769  -19.1800   24.7433 C.ar    1  UNL1        0.0203
      9 C         -10.5153  -19.3966   25.0017 C.ar    1  UNL1        0.0985
     10 N          -9.4926  -18.6624   24.1862 N.ar    1  UNL1       -0.2471
     11 C          -9.9315  -17.7116   23.1122 C.ar    1  UNL1        0.0695
     12 C          -6.6241  -16.1010   23.1697 C.3     1  UNL1        0.0725
     13 C          -7.2432  -15.1656   24.1657 C.3     1  UNL1        0.0187
     14 C          -5.6954  -15.4352   25.5910 C.3     1  UNL1        0.0014
     15 C          -7.1939  -15.4889   25.6295 C.3     1  UNL1        0.0156
     16 C          -8.6924  -15.5427   25.6681 C.3     1  UNL1        0.0014
     17 C          -7.1447  -15.8123   27.0934 C.3     1  UNL1        0.0651
     18 N          -8.3487  -16.3925   27.7743 N.3     1  UNL1       -0.3211
     19 H          -9.1023  -15.7051   27.7766 H       1  UNL1        0.1189
     20 H          -8.1103  -16.6389   28.7349 H       1  UNL1        0.1189
     21 C          -6.8086  -18.5038   22.1991 C.3     1  UNL1        0.0886
     22 C          -5.3448  -18.5614   21.8766 C.3     1  UNL1        0.0748
     23 C          -4.8643  -18.1958   20.5035 C.3     1  UNL1        0.0432
     24 C          -3.4005  -18.2534   20.1810 C.ar    1  UNL1       -0.0234
     25 C          -2.9200  -17.8877   18.8080 C.ar    1  UNL1       -0.0045
     26 C          -1.4563  -17.9453   18.4855 C.ar    1  UNL1       -0.0003
     27 C          -0.4729  -18.3686   19.5362 C.ar    1  UNL1       -0.0003
     28 C          -0.9534  -18.7342   20.9093 C.ar    1  UNL1       -0.0032
     29 C          -2.4172  -18.6766   21.2317 C.ar    1  UNL1       -0.0103
     30 C          -2.8977  -19.0423   22.6049 C.3     1  UNL1        0.0953
     31 N          -4.3614  -18.9847   22.9273 N.3     1  UNL1       -0.2934
     32 H          -4.4659  -18.3354   23.7070 H       1  UNL1        0.1236
@<TRIPOS>BOND
     1    14    15    1
     2    15    16    1
     3    15    17    1
     4    17    18    1
     5    15    13    1
     6    13    12    1
     7    12     1    1
     8     1    21    1
     9    22    21    1
    10    22    23    1
    11    23    24    1
    12    24    25   ar
    13    25    26   ar
    14    26    27   ar
    15    27    28   ar
    16    28    29   ar
    17    29    30    1
    18    30    31    1
    19     2     1    1
    20     2     3    1
    21     3     4    1
    22     4     5    1
    23     5     6    1
    24     6     7   ar
    25     7     8   ar
    26     8     9   ar
    27     9    10   ar
    28    10    11   ar
    29    31    22    1
    30    11     2    1
    31    29    24   ar
    32    11     6   ar
    33    18    19    1
    34    18    20    1
    35    31    32    1
@<TRIPOS>MOLECULE
*****
 32 35 0 0 0
SMALL
GASTEIGER

@<TRIPOS>ATOM
      1 N          -5.5925  -16.8097   22.9975 N.3     1  UNL1       -0.2679
      2 C          -4.5321  -17.7432   22.4936 C.3     1  UNL1        0.0978
      3 C          -3.0968  -17.5200   22.8678 C.3     1  UNL1        0.0224
      4 C          -2.0364  -18.4536   22.3639 C.3     1  UNL1        0.0065
      5 C          -2.4112  -19.6103   21.4857 C.3     1  UNL1        0.0277
      6 C          -3.8465  -19.8336   21.1114 C.ar    1  UNL1       -0.0073
      7 C          -4.2214  -20.9904   20.2332 C.ar    1  UNL1       -0.0015
      8 C          -5.6566  -21.2137   19.8589 C.ar    1  UNL1        0.0203
      9 C          -6.7171  -20.2801   20.3629 C.ar    1  UNL1        0.0985
     10 N          -6.3422  -19.1233   21.2411 N.ar    1  UNL1       -0.2471
     11 C          -4.9069  -18.9000   21.6154 C.ar    1  UNL1        0.0695
     12 C          -5.4260  -16.1323   24.3254 C.3     1  UNL1        0.0725
     13 C          -6.4735  -15.1777   24.8170 C.3     1  UNL1        0.0187
     14 C          -5.6880  -15.2011   26.7874 C.3     1  UNL1        0.0014
     15 C          -7.0559  -15.3449   26.1891 C.3     1  UNL1        0.0156
     16 C          -8.4239  -15.4887   25.5909 C.3     1  UNL1        0.0014
     17 C          -7.6384  -15.5121   27.5613 C.3     1  UNL1        0.0651
     18 N          -8.6904  -16.5525   27.8078 N.3     1  UNL1       -0.3211
     19 H          -9.5361  -16.3098   27.2918 H       1  UNL1        0.1189
     20 H          -8.9007  -16.5938   28.8051 H       1  UNL1        0.1189
     21 C          -6.8194  -16.5535   22.1736 C.3     1  UNL1        0.0886
     22 C          -8.1468  -17.0937   22.6167 C.3     1  UNL1        0.0748
     23 C          -9.4069  -16.3490   22.2889 C.3     1  UNL1        0.0432
     24 C         -10.7343  -16.8892   22.7321 C.ar    1  UNL1       -0.0234
     25 C         -11.9944  -16.1445   22.4042 C.ar    1  UNL1       -0.0045
     26 C         -13.3216  -16.6848   22.8474 C.ar    1  UNL1       -0.0003
     27 C         -13.3888  -17.9697   23.6184 C.ar    1  UNL1       -0.0003
     28 C         -12.1287  -18.7144   23.9462 C.ar    1  UNL1       -0.0032
     29 C         -10.8014  -18.1742   23.5031 C.ar    1  UNL1       -0.0103
     30 C          -9.5413  -18.9189   23.8309 C.3     1  UNL1        0.0953
     31 N          -8.2140  -18.3786   23.3877 N.3     1  UNL1       -0.2934
     32 H          -7.7846  -19.0957   22.8030 H       1  UNL1        0.1236
@<TRIPOS>BOND
     1    14    15    1
     2    15    16    1
     3    15    17    1
     4    17    18    1
     5    15    13    1
     6    13    12    1
     7    12     1    1
     8     1    21    1
     9    22    21    1
    10    22    23    1
    11    23    24    1
    12    24    25   ar
    13    25    26   ar
    14    26    27   ar
    15    27    28   ar
    16    28    29   ar
    17    29    30    1
    18    30    31    1
    19     2     1    1
    20     2     3    1
    21     3     4    1
    22     4     5    1
    23     5     6    1
    24     6     7   ar
    25     7     8   ar
    26     8     9   ar
    27     9    10   ar
    28    10    11   ar
    29    31    22    1
    30    11     2    1
    31    29    24   ar
    32    11     6   ar
    33    18    19    1
    34    18    20    1
    35    31    32    1
@<TRIPOS>MOLECULE
*****
 32 35 0 0 0
SMALL
GASTEIGER

@<TRIPOS>ATOM
      1 N         -13.7841   -6.4440   18.9691 N.3     1  UNL1       -0.2679
      2 C         -14.9753   -6.5991   18.0708 C.3     1  UNL1        0.0978
      3 C         -15.1392   -5.7010   16.8806 C.3     1  UNL1        0.0224
      4 C         -16.3304   -5.8561   15.9824 C.3     1  UNL1        0.0065
      5 C         -17.3577   -6.9093   16.2742 C.3     1  UNL1        0.0277
      6 C         -17.1939   -7.8075   17.4643 C.ar    1  UNL1       -0.0073
      7 C         -18.2212   -8.8608   17.7562 C.ar    1  UNL1       -0.0015
      8 C         -18.0574   -9.7589   18.9464 C.ar    1  UNL1        0.0203
      9 C         -16.8661   -9.6038   19.8447 C.ar    1  UNL1        0.0985
     10 N         -15.8388   -8.5506   19.5528 N.ar    1  UNL1       -0.2471
     11 C         -16.0026   -7.6524   18.3626 C.ar    1  UNL1        0.0695
     12 C         -12.5592   -7.2794   18.7414 C.3     1  UNL1        0.0725
     13 C         -11.6095   -6.9317   17.6335 C.3     1  UNL1        0.0187
     14 C          -9.9362   -6.7026   18.9170 C.3     1  UNL1        0.0014
     15 C         -10.5702   -5.8705   17.8420 C.3     1  UNL1        0.0156
     16 C         -11.2042   -5.0384   16.7671 C.3     1  UNL1        0.0014
     17 C          -9.5308   -4.8093   18.0505 C.3     1  UNL1        0.0651
     18 N          -9.6255   -3.8883   19.2307 N.3     1  UNL1       -0.3211
     19 H         -10.4536   -3.3002   19.1375 H       1  UNL1        0.1189
     20 H          -8.7933   -3.2999   19.2704 H       1  UNL1        0.1189
     21 C         -13.8177   -5.4536   20.0950 C.3     1  UNL1        0.0886
     22 C         -14.1505   -4.0169   19.8205 C.3     1  UNL1        0.0748
     23 C         -13.1210   -3.1117   19.2117 C.3     1  UNL1        0.0432
     24 C         -13.4538   -1.6750   18.9371 C.ar    1  UNL1       -0.0234
     25 C         -12.4244   -0.7698   18.3283 C.ar    1  UNL1       -0.0045
     26 C         -12.7572    0.6668   18.0538 C.ar    1  UNL1       -0.0003
     27 C         -14.1195    1.1982   18.3881 C.ar    1  UNL1       -0.0003
     28 C         -15.1490    0.2930   18.9969 C.ar    1  UNL1       -0.0032
     29 C         -14.8162   -1.1436   19.2715 C.ar    1  UNL1       -0.0103
     30 C         -15.8456   -2.0489   19.8803 C.3     1  UNL1        0.0953
     31 N         -15.5128   -3.4855   20.1548 N.3     1  UNL1       -0.2934
     32 H         -16.1846   -4.0483   19.6330 H       1  UNL1        0.1236
@<TRIPOS>BOND
     1    14    15    1
     2    15    16    1
     3    15    17    1
     4    17    18    1
     5    15    13    1
     6    13    12    1
     7    12     1    1
     8     1    21    1
     9    22    21    1
    10    22    23    1
    11    23    24    1
    12    24    25   ar
    13    25    26   ar
    14    26    27   ar
    15    27    28   ar
    16    28    29   ar
    17    29    30    1
    18    30    31    1
    19     2     1    1
    20     2     3    1
    21     3     4    1
    22     4     5    1
    23     5     6    1
    24     6     7   ar
    25     7     8   ar
    26     8     9   ar
    27     9    10   ar
    28    10    11   ar
    29    31    22    1
    30    11     2    1
    31    29    24   ar
    32    11     6   ar
    33    18    19    1
    34    18    20    1
    35    31    32    1
@<TRIPOS>MOLECULE
*****
 32 35 0 0 0
SMALL
GASTEIGER

@<TRIPOS>ATOM
      1 N         -12.7451   -3.6067   18.2124 N.3     1  UNL1       -0.2679
      2 C         -12.5725   -2.1350   17.9790 C.3     1  UNL1        0.0978
      3 C         -11.3598   -1.6273   17.2568 C.3     1  UNL1        0.0224
      4 C         -11.1872   -0.1557   17.0234 C.3     1  UNL1        0.0065
      5 C         -12.2273    0.8083   17.5121 C.3     1  UNL1        0.0277
      6 C         -13.4400    0.3006   18.2343 C.ar    1  UNL1       -0.0073
      7 C         -14.4802    1.2646   18.7231 C.ar    1  UNL1       -0.0015
      8 C         -15.6929    0.7569   19.4453 C.ar    1  UNL1        0.0203
      9 C         -15.8655   -0.7148   19.6787 C.ar    1  UNL1        0.0985
     10 N         -14.8254   -1.6787   19.1900 N.ar    1  UNL1       -0.2471
     11 C         -13.6126   -1.1711   18.4677 C.ar    1  UNL1        0.0695
     12 C         -11.9820   -4.2865   19.3103 C.3     1  UNL1        0.0725
     13 C         -10.6708   -4.9513   19.0121 C.3     1  UNL1        0.0187
     14 C         -11.5086   -6.8902   19.2079 C.3     1  UNL1        0.0014
     15 C         -10.6363   -6.2090   18.1955 C.3     1  UNL1        0.0156
     16 C          -9.7639   -5.5278   17.1832 C.3     1  UNL1        0.0014
     17 C         -10.6017   -7.4668   17.3789 C.3     1  UNL1        0.0651
     18 N          -9.8623   -8.6696   17.8852 N.3     1  UNL1       -0.3211
     19 H          -8.8640   -8.4637   17.9238 H       1  UNL1        0.1189
     20 H         -10.0230   -9.4569   17.2569 H       1  UNL1        0.1189
     21 C         -13.6808   -4.3985   17.3479 C.3     1  UNL1        0.0886
     22 C         -14.6879   -5.3154   17.9764 C.3     1  UNL1        0.0748
     23 C         -14.6692   -6.7811   17.6580 C.3     1  UNL1        0.0432
     24 C         -15.6763   -7.6981   18.2866 C.ar    1  UNL1       -0.0234
     25 C         -15.6577   -9.1637   17.9682 C.ar    1  UNL1       -0.0045
     26 C         -16.6648  -10.0806   18.5967 C.ar    1  UNL1       -0.0003
     27 C         -17.6905   -9.5318   19.5436 C.ar    1  UNL1       -0.0003
     28 C         -17.7092   -8.0661   19.8620 C.ar    1  UNL1       -0.0032
     29 C         -16.7021   -7.1493   19.2335 C.ar    1  UNL1       -0.0103
     30 C         -16.7207   -5.6835   19.5519 C.3     1  UNL1        0.0953
     31 N         -15.7136   -4.7666   18.9234 N.3     1  UNL1       -0.2934
     32 H         -15.2024   -4.3232   19.6866 H       1  UNL1        0.1236
@<TRIPOS>BOND
     1    14    15    1
     2    15    16    1
     3    15    17    1
     4    17    18    1
     5    15    13    1
     6    13    12    1
     7    12     1    1
     8     1    21    1
     9    22    21    1
    10    22    23    1
    11    23    24    1
    12    24    25   ar
    13    25    26   ar
    14    26    27   ar
    15    27    28   ar
    16    28    29   ar
    17    29    30    1
    18    30    31    1
    19     2     1    1
    20     2     3    1
    21     3     4    1
    22     4     5    1
    23     5     6    1
    24     6     7   ar
    25     7     8   ar
    26     8     9   ar
    27     9    10   ar
    28    10    11   ar
    29    31    22    1
    30    11     2    1
    31    29    24   ar
    32    11     6   ar
    33    18    19    1
    34    18    20    1
    35    31    32    1
