@<TRIPOS>MOLECULE
*****
 27 29 0 0 0
SMALL
GASTEIGER

@<TRIPOS>ATOM
      1 C          -8.4079  -17.0257   22.4162 C.ar    1  UNL1        0.1357
      2 N          -9.5693  -16.2199   22.9181 N.ar    1  UNL1       -0.1992
      3 C         -10.9295  -16.4081   22.3144 C.ar    1  UNL1        0.2148
      4 N         -12.0908  -15.6022   22.8163 N.pl3   1  UNL1       -0.3274
      5 N         -11.1283  -17.4021   21.2088 N.ar    1  UNL1       -0.2138
      6 C          -9.9670  -18.2080   20.7068 C.ar    1  UNL1        0.0898
      7 C         -10.1659  -19.2020   19.6012 C.ar    1  UNL1        0.0195
      8 C          -9.0046  -20.0078   19.0993 C.ar    1  UNL1        0.0047
      9 C          -7.6444  -19.8196   19.7030 C.ar    1  UNL1        0.0371
     10 C          -7.4455  -18.8256   20.8086 C.ar    1  UNL1        0.1431
     11 C          -8.6068  -18.0198   21.3105 C.ar    1  UNL1        0.0831
     12 H         -11.9603  -14.9498   23.5420 H       1  UNL1        0.1452
     13 H         -12.9836  -15.7257   22.4201 H       1  UNL1        0.1452
     14 N          -7.0477  -16.8375   23.0198 N.pl3   1  UNL1       -0.3179
     15 H          -6.3516  -17.5209   22.8874 H       1  UNL1        0.1482
     16 C          -6.7483  -15.6082   23.8254 C.3     1  UNL1        0.0882
     17 C          -5.4271  -15.4717   24.5225 C.3     1  UNL1        0.0212
     18 C          -6.5840  -15.5766   26.8465 C.3     1  UNL1        0.0001
     19 C          -5.3805  -15.2641   26.0074 C.3     1  UNL1        0.0017
     20 O          -6.0853  -18.6374   21.4123 O.3     1  UNL1       -0.4704
     21 C          -5.0020  -19.6407   21.1479 C.3     1  UNL1        0.2335
     22 C          -3.6430  -19.1797   20.7115 C.ar    1  UNL1        0.0403
     23 C          -3.4540  -18.5901   19.3452 C.ar    1  UNL1        0.0025
     24 C          -2.0949  -18.1291   18.9088 C.ar    1  UNL1        0.0205
     25 C          -0.9249  -18.2576   19.8387 C.ar    1  UNL1        0.0989
     26 N          -1.1140  -18.8472   21.2049 N.ar    1  UNL1       -0.2425
     27 C          -2.4730  -19.3082   21.6413 C.ar    1  UNL1        0.0982
@<TRIPOS>BOND
     1    18    19    1
     2    19    17    1
     3    17    16    1
     4    16    14    1
     5    14     1    1
     6     1     2   ar
     7     2     3   ar
     8     3     4    1
     9     3     5   ar
    10     5     6   ar
    11     6     7   ar
    12     7     8   ar
    13     8     9   ar
    14     9    10   ar
    15    10    20    1
    16    20    21    1
    17    21    22    1
    18    22    23   ar
    19    23    24   ar
    20    24    25   ar
    21    25    26   ar
    22    26    27   ar
    23    10    11   ar
    24    11     1   ar
    25    11     6   ar
    26    27    22   ar
    27    14    15    1
    28     4    12    1
    29     4    13    1
@<TRIPOS>MOLECULE
*****
 27 29 0 0 0
SMALL
GASTEIGER

@<TRIPOS>ATOM
      1 C          -8.0459  -17.1889   22.2166 C.ar    1  UNL1        0.1357
      2 N          -9.5244  -17.1322   21.9702 N.ar    1  UNL1       -0.1992
      3 C         -10.4236  -16.4492   22.9576 C.ar    1  UNL1        0.2148
      4 N         -11.9022  -16.3925   22.7113 N.pl3   1  UNL1       -0.3274
      5 N          -9.8443  -15.8229   24.1913 N.ar    1  UNL1       -0.2138
      6 C          -8.3657  -15.8795   24.4377 C.ar    1  UNL1        0.0898
      7 C          -7.7864  -15.2532   25.6714 C.ar    1  UNL1        0.0195
      8 C          -6.3078  -15.3099   25.9177 C.ar    1  UNL1        0.0047
      9 C          -5.4086  -15.9929   24.9303 C.ar    1  UNL1        0.0371
     10 C          -5.9880  -16.6193   23.6966 C.ar    1  UNL1        0.1431
     11 C          -7.4665  -16.5626   23.4503 C.ar    1  UNL1        0.0831
     12 H         -12.2824  -16.8036   21.9015 H       1  UNL1        0.1452
     13 H         -12.4924  -15.9442   23.3593 H       1  UNL1        0.1452
     14 N          -7.1467  -17.8719   21.2292 N.pl3   1  UNL1       -0.3179
     15 H          -6.3887  -17.3837   20.8339 H       1  UNL1        0.1482
     16 C          -7.4024  -19.2989   20.8440 C.3     1  UNL1        0.0882
     17 C          -7.9708  -19.6210   19.4938 C.3     1  UNL1        0.0212
     18 C         -10.4257  -19.8670   20.3081 C.3     1  UNL1        0.0001
     19 C          -9.4428  -19.4742   19.2452 C.3     1  UNL1        0.0017
     20 O          -5.0888  -17.3023   22.7092 O.3     1  UNL1       -0.4704
     21 C          -3.6823  -17.6540   23.0940 C.3     1  UNL1        0.2335
     22 C          -2.6203  -17.7589   22.0400 C.ar    1  UNL1        0.0403
     23 C          -1.9841  -16.5167   21.4900 C.ar    1  UNL1        0.0025
     24 C          -0.9221  -16.6216   20.4360 C.ar    1  UNL1        0.0205
     25 C          -0.4962  -17.9687   19.9318 C.ar    1  UNL1        0.0989
     26 N          -1.1323  -19.2108   20.4818 N.ar    1  UNL1       -0.2425
     27 C          -2.1944  -19.1059   21.5358 C.ar    1  UNL1        0.0982
@<TRIPOS>BOND
     1    18    19    1
     2    19    17    1
     3    17    16    1
     4    16    14    1
     5    14     1    1
     6     1     2   ar
     7     2     3   ar
     8     3     4    1
     9     3     5   ar
    10     5     6   ar
    11     6     7   ar
    12     7     8   ar
    13     8     9   ar
    14     9    10   ar
    15    10    20    1
    16    20    21    1
    17    21    22    1
    18    22    23   ar
    19    23    24   ar
    20    24    25   ar
    21    25    26   ar
    22    26    27   ar
    23    10    11   ar
    24    11     1   ar
    25    11     6   ar
    26    27    22   ar
    27    14    15    1
    28     4    12    1
    29     4    13    1
@<TRIPOS>MOLECULE
*****
 27 29 0 0 0
SMALL
GASTEIGER

@<TRIPOS>ATOM
      1 C          -8.1256  -17.3604   22.0733 C.ar    1  UNL1        0.1357
      2 N          -9.5774  -17.4665   21.7116 N.ar    1  UNL1       -0.1992
      3 C         -10.6212  -16.8903   22.6218 C.ar    1  UNL1        0.2148
      4 N         -12.0731  -16.9964   22.2600 N.pl3   1  UNL1       -0.3274
      5 N         -10.2132  -16.2080   23.8938 N.ar    1  UNL1       -0.2138
      6 C          -8.7613  -16.1019   24.2556 C.ar    1  UNL1        0.0898
      7 C          -8.3533  -15.4196   25.5276 C.ar    1  UNL1        0.0195
      8 C          -6.9015  -15.3136   25.8893 C.ar    1  UNL1        0.0047
      9 C          -5.8577  -15.8897   24.9791 C.ar    1  UNL1        0.0371
     10 C          -6.2657  -16.5720   23.7071 C.ar    1  UNL1        0.1431
     11 C          -7.7175  -16.6781   23.3454 C.ar    1  UNL1        0.0831
     12 H         -12.3409  -17.4442   21.4252 H       1  UNL1        0.1452
     13 H         -12.7582  -16.6183   22.8574 H       1  UNL1        0.1452
     14 N          -7.0818  -17.9365   21.1631 N.pl3   1  UNL1       -0.3179
     15 H          -6.3311  -17.3771   20.8587 H       1  UNL1        0.1482
     16 C          -7.1819  -19.3650   20.7166 C.3     1  UNL1        0.0882
     17 C          -6.1395  -20.3575   21.1389 C.3     1  UNL1        0.0212
     18 C          -4.3315  -19.5271   19.4680 C.3     1  UNL1        0.0001
     19 C          -4.9680  -20.6406   20.2457 C.3     1  UNL1        0.0017
     20 O          -5.2219  -17.1482   22.7969 O.3     1  UNL1       -0.4704
     21 C          -3.7899  -17.2056   23.2395 C.3     1  UNL1        0.2335
     22 C          -2.7029  -17.4437   22.2335 C.ar    1  UNL1        0.0403
     23 C          -2.0744  -16.2837   21.5198 C.ar    1  UNL1        0.0025
     24 C          -0.9875  -16.5217   20.5138 C.ar    1  UNL1        0.0205
     25 C          -0.5291  -17.9198   20.2217 C.ar    1  UNL1        0.0989
     26 N          -1.1576  -19.0798   20.9354 N.ar    1  UNL1       -0.2425
     27 C          -2.2445  -18.8417   21.9414 C.ar    1  UNL1        0.0982
@<TRIPOS>BOND
     1    18    19    1
     2    19    17    1
     3    17    16    1
     4    16    14    1
     5    14     1    1
     6     1     2   ar
     7     2     3   ar
     8     3     4    1
     9     3     5   ar
    10     5     6   ar
    11     6     7   ar
    12     7     8   ar
    13     8     9   ar
    14     9    10   ar
    15    10    20    1
    16    20    21    1
    17    21    22    1
    18    22    23   ar
    19    23    24   ar
    20    24    25   ar
    21    25    26   ar
    22    26    27   ar
    23    10    11   ar
    24    11     1   ar
    25    11     6   ar
    26    27    22   ar
    27    14    15    1
    28     4    12    1
    29     4    13    1
@<TRIPOS>MOLECULE
*****
 27 29 0 0 0
SMALL
GASTEIGER

@<TRIPOS>ATOM
      1 C          -5.1221  -17.2962   22.7387 C.ar    1  UNL1        0.1357
      2 N          -3.7902  -16.6078   22.6903 N.ar    1  UNL1       -0.1992
      3 C          -2.6866  -17.1685   21.8432 C.ar    1  UNL1        0.2148
      4 N          -1.3547  -16.4801   21.7948 N.pl3   1  UNL1       -0.3274
      5 N          -2.9147  -18.4176   21.0446 N.ar    1  UNL1       -0.2138
      6 C          -4.2466  -19.1060   21.0930 C.ar    1  UNL1        0.0898
      7 C          -4.4747  -20.3550   20.2944 C.ar    1  UNL1        0.0195
      8 C          -5.8065  -21.0434   20.3429 C.ar    1  UNL1        0.0047
      9 C          -6.9102  -20.4827   21.1900 C.ar    1  UNL1        0.0371
     10 C          -6.6821  -19.2337   21.9886 C.ar    1  UNL1        0.1431
     11 C          -5.3503  -18.5453   21.9401 C.ar    1  UNL1        0.0831
     12 H          -1.2050  -15.6603   22.3189 H       1  UNL1        0.1452
     13 H          -0.6303  -16.8481   21.2388 H       1  UNL1        0.1452
     14 N          -6.2257  -16.7355   23.5858 N.pl3   1  UNL1       -0.3179
     15 H          -7.0989  -17.1891   23.6201 H       1  UNL1        0.1482
     16 C          -5.9991  -15.4838   24.3807 C.3     1  UNL1        0.0882
     17 C          -5.4801  -15.5709   25.7853 C.3     1  UNL1        0.0212
     18 C          -7.8405  -15.7897   26.8487 C.3     1  UNL1        0.0001
     19 C          -6.4087  -15.3525   26.9429 C.3     1  UNL1        0.0017
     20 O          -7.7857  -18.6730   22.8357 O.3     1  UNL1       -0.4704
     21 C          -9.0768  -19.4231   22.9781 C.3     1  UNL1        0.2335
     22 C         -10.3571  -18.8118   22.4909 C.ar    1  UNL1        0.0403
     23 C         -11.4566  -18.4999   23.4625 C.ar    1  UNL1        0.0025
     24 C         -12.7369  -17.8887   22.9753 C.ar    1  UNL1        0.0205
     25 C         -12.9176  -17.5893   21.5166 C.ar    1  UNL1        0.0989
     26 N         -11.8181  -17.9011   20.5451 N.ar    1  UNL1       -0.2425
     27 C         -10.5378  -18.5124   21.0323 C.ar    1  UNL1        0.0982
@<TRIPOS>BOND
     1    18    19    1
     2    19    17    1
     3    17    16    1
     4    16    14    1
     5    14     1    1
     6     1     2   ar
     7     2     3   ar
     8     3     4    1
     9     3     5   ar
    10     5     6   ar
    11     6     7   ar
    12     7     8   ar
    13     8     9   ar
    14     9    10   ar
    15    10    20    1
    16    20    21    1
    17    21    22    1
    18    22    23   ar
    19    23    24   ar
    20    24    25   ar
    21    25    26   ar
    22    26    27   ar
    23    10    11   ar
    24    11     1   ar
    25    11     6   ar
    26    27    22   ar
    27    14    15    1
    28     4    12    1
    29     4    13    1
@<TRIPOS>MOLECULE
*****
 27 29 0 0 0
SMALL
GASTEIGER

@<TRIPOS>ATOM
      1 C          -8.1125  -18.4020   21.4494 C.ar    1  UNL1        0.1357
      2 N          -9.4243  -17.6747   21.4479 N.ar    1  UNL1       -0.1992
      3 C          -9.5879  -16.4212   22.2552 C.ar    1  UNL1        0.2148
      4 N         -10.8999  -15.6939   22.2537 N.pl3   1  UNL1       -0.3274
      5 N          -8.4396  -15.8948   23.0640 N.ar    1  UNL1       -0.2138
      6 C          -7.1276  -16.6220   23.0656 C.ar    1  UNL1        0.0898
      7 C          -5.9793  -16.0956   23.8744 C.ar    1  UNL1        0.0195
      8 C          -4.6674  -16.8228   23.8759 C.ar    1  UNL1        0.0047
      9 C          -4.5038  -18.0764   23.0686 C.ar    1  UNL1        0.0371
     10 C          -5.6521  -18.6028   22.2598 C.ar    1  UNL1        0.1431
     11 C          -6.9640  -17.8756   22.2583 C.ar    1  UNL1        0.0831
     12 H         -11.6536  -16.0394   21.7228 H       1  UNL1        0.1452
     13 H         -11.0073  -14.8712   22.7835 H       1  UNL1        0.1452
     14 N          -7.9489  -19.6555   20.6421 N.pl3   1  UNL1       -0.3179
     15 H          -7.6432  -20.4844   21.0765 H       1  UNL1        0.1482
     16 C          -8.2511  -19.6462   19.1729 C.3     1  UNL1        0.0882
     17 C          -9.3115  -20.5514   18.6196 C.3     1  UNL1        0.0212
     18 C          -9.3722  -21.4446   16.1806 C.3     1  UNL1        0.0001
     19 C          -8.9499  -21.6015   17.6113 C.3     1  UNL1        0.0017
     20 O          -5.4886  -19.8564   21.4525 O.3     1  UNL1       -0.4704
     21 C          -4.8167  -19.8032   20.1124 C.3     1  UNL1        0.2335
     22 C          -3.4629  -19.1715   19.9768 C.ar    1  UNL1        0.0403
     23 C          -3.2341  -18.1012   18.9510 C.ar    1  UNL1        0.0025
     24 C          -1.8804  -17.4696   18.8153 C.ar    1  UNL1        0.0205
     25 C          -0.7554  -17.9083   19.7054 C.ar    1  UNL1        0.0989
     26 N          -0.9843  -18.9785   20.7311 N.ar    1  UNL1       -0.2425
     27 C          -2.3380  -19.6102   20.8668 C.ar    1  UNL1        0.0982
@<TRIPOS>BOND
     1    18    19    1
     2    19    17    1
     3    17    16    1
     4    16    14    1
     5    14     1    1
     6     1     2   ar
     7     2     3   ar
     8     3     4    1
     9     3     5   ar
    10     5     6   ar
    11     6     7   ar
    12     7     8   ar
    13     8     9   ar
    14     9    10   ar
    15    10    20    1
    16    20    21    1
    17    21    22    1
    18    22    23   ar
    19    23    24   ar
    20    24    25   ar
    21    25    26   ar
    22    26    27   ar
    23    10    11   ar
    24    11     1   ar
    25    11     6   ar
    26    27    22   ar
    27    14    15    1
    28     4    12    1
    29     4    13    1
@<TRIPOS>MOLECULE
*****
 27 29 0 0 0
SMALL
GASTEIGER

@<TRIPOS>ATOM
      1 C          -7.8007  -18.9824   20.4306 C.ar    1  UNL1        0.1357
      2 N          -7.7622  -19.9933   19.3231 N.ar    1  UNL1       -0.1992
      3 C          -9.0376  -20.4459   18.6761 C.ar    1  UNL1        0.2148
      4 N          -8.9991  -21.4568   17.5685 N.pl3   1  UNL1       -0.3274
      5 N         -10.3514  -19.8876   19.1366 N.ar    1  UNL1       -0.2138
      6 C         -10.3899  -18.8767   20.2442 C.ar    1  UNL1        0.0898
      7 C         -11.7038  -18.3184   20.7047 C.ar    1  UNL1        0.0195
      8 C         -11.7422  -17.3075   21.8122 C.ar    1  UNL1        0.0047
      9 C         -10.4669  -16.8549   22.4592 C.ar    1  UNL1        0.0371
     10 C          -9.1530  -17.4132   21.9986 C.ar    1  UNL1        0.1431
     11 C          -9.1146  -18.4241   20.8912 C.ar    1  UNL1        0.0831
     12 H          -8.1367  -21.8232   17.2663 H       1  UNL1        0.1452
     13 H          -9.8361  -21.7539   17.1439 H       1  UNL1        0.1452
     14 N          -6.5253  -18.5298   21.0776 N.pl3   1  UNL1       -0.3179
     15 H          -6.2513  -17.5860   21.0185 H       1  UNL1        0.1482
     16 C          -5.6675  -19.5151   21.8146 C.3     1  UNL1        0.0882
     17 C          -4.1729  -19.4075   21.7453 C.3     1  UNL1        0.0212
     18 C          -2.8645  -19.0029   19.5375 C.3     1  UNL1        0.0001
     19 C          -3.4367  -19.9456   20.5543 C.3     1  UNL1        0.0017
     20 O          -7.8777  -16.9606   22.6456 O.3     1  UNL1       -0.4704
     21 C          -7.7951  -15.5988   23.2689 C.3     1  UNL1        0.2335
     22 C          -7.4615  -15.4592   24.7247 C.ar    1  UNL1        0.0403
     23 C          -8.5526  -15.5132   25.7527 C.ar    1  UNL1        0.0025
     24 C          -8.2191  -15.3736   27.2084 C.ar    1  UNL1        0.0205
     25 C          -6.7944  -15.1801   27.6363 C.ar    1  UNL1        0.0989
     26 N          -5.7034  -15.1261   26.6083 N.ar    1  UNL1       -0.2425
     27 C          -6.0369  -15.2657   25.1526 C.ar    1  UNL1        0.0982
@<TRIPOS>BOND
     1    18    19    1
     2    19    17    1
     3    17    16    1
     4    16    14    1
     5    14     1    1
     6     1     2   ar
     7     2     3   ar
     8     3     4    1
     9     3     5   ar
    10     5     6   ar
    11     6     7   ar
    12     7     8   ar
    13     8     9   ar
    14     9    10   ar
    15    10    20    1
    16    20    21    1
    17    21    22    1
    18    22    23   ar
    19    23    24   ar
    20    24    25   ar
    21    25    26   ar
    22    26    27   ar
    23    10    11   ar
    24    11     1   ar
    25    11     6   ar
    26    27    22   ar
    27    14    15    1
    28     4    12    1
    29     4    13    1
@<TRIPOS>MOLECULE
*****
 27 29 0 0 0
SMALL
GASTEIGER

@<TRIPOS>ATOM
      1 C          -5.8914  -19.1286   21.6901 C.ar    1  UNL1        0.1357
      2 N          -4.6620  -19.8770   21.2678 N.ar    1  UNL1       -0.1992
      3 C          -3.3143  -19.4490   21.7685 C.ar    1  UNL1        0.2148
      4 N          -2.0849  -20.1975   21.3461 N.pl3   1  UNL1       -0.3274
      5 N          -3.1961  -18.2727   22.6916 N.ar    1  UNL1       -0.2138
      6 C          -4.4255  -17.5242   23.1140 C.ar    1  UNL1        0.0898
      7 C          -4.3072  -16.3479   24.0371 C.ar    1  UNL1        0.0195
      8 C          -5.5366  -15.5994   24.4595 C.ar    1  UNL1        0.0047
      9 C          -6.8843  -16.0274   23.9588 C.ar    1  UNL1        0.0371
     10 C          -7.0025  -17.2037   23.0357 C.ar    1  UNL1        0.1431
     11 C          -5.7731  -17.9521   22.6133 C.ar    1  UNL1        0.0831
     12 H          -2.1625  -20.9696   20.7402 H       1  UNL1        0.1452
     13 H          -1.2004  -19.9167   21.6748 H       1  UNL1        0.1452
     14 N          -7.2390  -19.5565   21.1894 N.pl3   1  UNL1       -0.3179
     15 H          -7.9120  -19.9005   21.8202 H       1  UNL1        0.1482
     16 C          -7.5612  -19.4603   19.7276 C.3     1  UNL1        0.0882
     17 C          -8.9027  -19.9044   19.2244 C.3     1  UNL1        0.0212
     18 C         -11.0657  -19.9936   20.6609 C.3     1  UNL1        0.0001
     19 C         -10.1505  -19.2475   19.7358 C.3     1  UNL1        0.0017
     20 O          -8.3502  -17.6316   22.5349 O.3     1  UNL1       -0.4704
     21 C          -9.2421  -18.4682   23.4036 C.3     1  UNL1        0.2335
     22 C         -10.7026  -18.1437   23.5115 C.ar    1  UNL1        0.0403
     23 C         -11.5739  -18.9135   24.4593 C.ar    1  UNL1        0.0025
     24 C         -13.0344  -18.5891   24.5672 C.ar    1  UNL1        0.0205
     25 C         -13.6236  -17.4948   23.7272 C.ar    1  UNL1        0.0989
     26 N         -12.7524  -16.7251   22.7795 N.ar    1  UNL1       -0.2425
     27 C         -11.2919  -17.0495   22.6716 C.ar    1  UNL1        0.0982
@<TRIPOS>BOND
     1    18    19    1
     2    19    17    1
     3    17    16    1
     4    16    14    1
     5    14     1    1
     6     1     2   ar
     7     2     3   ar
     8     3     4    1
     9     3     5   ar
    10     5     6   ar
    11     6     7   ar
    12     7     8   ar
    13     8     9   ar
    14     9    10   ar
    15    10    20    1
    16    20    21    1
    17    21    22    1
    18    22    23   ar
    19    23    24   ar
    20    24    25   ar
    21    25    26   ar
    22    26    27   ar
    23    10    11   ar
    24    11     1   ar
    25    11     6   ar
    26    27    22   ar
    27    14    15    1
    28     4    12    1
    29     4    13    1
@<TRIPOS>MOLECULE
*****
 27 29 0 0 0
SMALL
GASTEIGER

@<TRIPOS>ATOM
      1 C          -7.6304  -17.5529   22.9867 C.ar    1  UNL1        0.1357
      2 N          -7.0342  -16.4779   23.8462 N.ar    1  UNL1       -0.1992
      3 C          -5.5465  -16.2902   23.8883 C.ar    1  UNL1        0.2148
      4 N          -4.9503  -15.2152   24.7480 N.pl3   1  UNL1       -0.3274
      5 N          -4.6552  -17.1775   23.0709 N.ar    1  UNL1       -0.2138
      6 C          -5.2515  -18.2526   22.2113 C.ar    1  UNL1        0.0898
      7 C          -4.3601  -19.1399   21.3939 C.ar    1  UNL1        0.0195
      8 C          -4.9564  -20.2148   20.5344 C.ar    1  UNL1        0.0047
      9 C          -6.4440  -20.4025   20.4922 C.ar    1  UNL1        0.0371
     10 C          -7.3354  -19.5152   21.3096 C.ar    1  UNL1        0.1431
     11 C          -6.7391  -18.4402   22.1692 C.ar    1  UNL1        0.0831
     12 H          -5.5353  -14.6329   25.2845 H       1  UNL1        0.1452
     13 H          -3.9739  -15.0920   24.7756 H       1  UNL1        0.1452
     14 N          -9.1181  -17.7405   22.9445 N.pl3   1  UNL1       -0.3179
     15 H          -9.5645  -17.9440   22.0910 H       1  UNL1        0.1482
     16 C          -9.9254  -17.6182   24.2027 C.3     1  UNL1        0.0882
     17 C         -10.9548  -18.6566   24.5373 C.3     1  UNL1        0.0212
     18 C          -9.5209  -20.8222   24.4701 C.3     1  UNL1        0.0001
     19 C         -10.7636  -20.0746   24.0868 C.3     1  UNL1        0.0017
     20 O          -8.8230  -19.7028   21.2675 O.3     1  UNL1       -0.4704
     21 C          -9.6012  -19.2589   20.0645 C.3     1  UNL1        0.2335
     22 C         -10.6837  -18.2307   20.2090 C.ar    1  UNL1        0.0403
     23 C         -10.5438  -16.8953   19.5402 C.ar    1  UNL1        0.0025
     24 C         -11.6264  -15.8671   19.6847 C.ar    1  UNL1        0.0205
     25 C         -12.8488  -16.1743   20.4980 C.ar    1  UNL1        0.0989
     26 N         -12.9886  -17.5097   21.1667 N.ar    1  UNL1       -0.2425
     27 C         -11.9061  -18.5379   21.0222 C.ar    1  UNL1        0.0982
@<TRIPOS>BOND
     1    18    19    1
     2    19    17    1
     3    17    16    1
     4    16    14    1
     5    14     1    1
     6     1     2   ar
     7     2     3   ar
     8     3     4    1
     9     3     5   ar
    10     5     6   ar
    11     6     7   ar
    12     7     8   ar
    13     8     9   ar
    14     9    10   ar
    15    10    20    1
    16    20    21    1
    17    21    22    1
    18    22    23   ar
    19    23    24   ar
    20    24    25   ar
    21    25    26   ar
    22    26    27   ar
    23    10    11   ar
    24    11     1   ar
    25    11     6   ar
    26    27    22   ar
    27    14    15    1
    28     4    12    1
    29     4    13    1
@<TRIPOS>MOLECULE
*****
 27 29 0 0 0
SMALL
GASTEIGER

@<TRIPOS>ATOM
      1 C          -6.4828  -17.7115   22.7387 C.ar    1  UNL1        0.1357
      2 N          -5.0808  -17.8884   22.2359 N.ar    1  UNL1       -0.1992
      3 C          -3.9442  -17.1902   22.9219 C.ar    1  UNL1        0.2148
      4 N          -2.5421  -17.3672   22.4190 N.pl3   1  UNL1       -0.3274
      5 N          -4.2097  -16.3150   24.1108 N.ar    1  UNL1       -0.2138
      6 C          -5.6118  -16.1380   24.6137 C.ar    1  UNL1        0.0898
      7 C          -5.8773  -15.2627   25.8025 C.ar    1  UNL1        0.0195
      8 C          -7.2793  -15.0858   26.3054 C.ar    1  UNL1        0.0047
      9 C          -8.4159  -15.7840   25.6193 C.ar    1  UNL1        0.0371
     10 C          -8.1504  -16.6592   24.4304 C.ar    1  UNL1        0.1431
     11 C          -6.7484  -16.8362   23.9276 C.ar    1  UNL1        0.0831
     12 H          -2.3678  -17.9417   21.6387 H       1  UNL1        0.1452
     13 H          -1.7961  -16.9089   22.8693 H       1  UNL1        0.1452
     14 N          -7.6194  -18.4097   22.0526 N.pl3   1  UNL1       -0.3179
     15 H          -8.5456  -18.1166   22.2124 H       1  UNL1        0.1482
     16 C          -7.3449  -19.5545   21.1232 C.3     1  UNL1        0.0882
     17 C          -7.7142  -19.4485   19.6732 C.3     1  UNL1        0.0212
     18 C         -10.2910  -19.1163   19.6781 C.3     1  UNL1        0.0001
     19 C          -9.0791  -19.8688   19.2143 C.3     1  UNL1        0.0017
     20 O          -9.2870  -17.3575   23.7444 O.3     1  UNL1       -0.4704
     21 C         -10.5787  -16.6328   23.5070 C.3     1  UNL1        0.2335
     22 C         -11.0126  -16.3125   22.1073 C.ar    1  UNL1        0.0403
     23 C         -12.4003  -16.6584   21.6546 C.ar    1  UNL1        0.0025
     24 C         -12.8342  -16.3381   20.2549 C.ar    1  UNL1        0.0205
     25 C         -11.8805  -15.6718   19.3080 C.ar    1  UNL1        0.0989
     26 N         -10.4930  -15.3259   19.7607 N.ar    1  UNL1       -0.2425
     27 C         -10.0590  -15.6463   21.1604 C.ar    1  UNL1        0.0982
@<TRIPOS>BOND
     1    18    19    1
     2    19    17    1
     3    17    16    1
     4    16    14    1
     5    14     1    1
     6     1     2   ar
     7     2     3   ar
     8     3     4    1
     9     3     5   ar
    10     5     6   ar
    11     6     7   ar
    12     7     8   ar
    13     8     9   ar
    14     9    10   ar
    15    10    20    1
    16    20    21    1
    17    21    22    1
    18    22    23   ar
    19    23    24   ar
    20    24    25   ar
    21    25    26   ar
    22    26    27   ar
    23    10    11   ar
    24    11     1   ar
    25    11     6   ar
    26    27    22   ar
    27    14    15    1
    28     4    12    1
    29     4    13    1
