@<TRIPOS>MOLECULE
*****
 30 34 0 0 0
SMALL
GASTEIGER

@<TRIPOS>ATOM
      1 C           2.3573   -0.7219   21.3151 C.2     1  UNL1        0.0294
      2 C           1.8333   -0.6386   19.9121 C.2     1  UNL1        0.2320
      3 N           0.7592    0.3510   19.5702 N.2     1  UNL1       -0.0311
      4 C           0.2091    1.2574   20.6312 C.2     1  UNL1        0.3720
      5 N          -0.8447    2.3242   20.5925 N.2     1  UNL1       -0.0308
      6 C          -0.9720    2.9002   21.9716 C.2     1  UNL1        0.2355
      7 C           0.0031    2.1894   22.8626 C.2     1  UNL1        0.0469
      8 C           0.7331    1.1741   22.0343 C.2     1  UNL1        0.0740
      9 C           1.8072    0.1845   22.3762 C.3     1  UNL1        0.0645
     10 C           0.2117    2.4485   24.3253 C.2     1  UNL1       -0.0140
     11 C           0.8208    3.7421   24.7785 C.2     1  UNL1       -0.0023
     12 C           1.0294    4.0012   26.2412 C.2     1  UNL1        0.0185
     13 C           0.6288    2.9665   27.2507 C.2     1  UNL1        0.0777
     14 N           0.7116    2.9405   28.7481 N.2     1  UNL1       -0.2442
     15 C           0.1537    1.6306   29.2205 C.2     1  UNL1        0.0985
     16 C          -0.2739    0.8473   28.0149 C.2     1  UNL1        0.0182
     17 C           0.0197    1.6729   26.7975 C.2     1  UNL1        0.0014
     18 C          -0.1888    1.4139   25.3348 C.3     1  UNL1        0.0543
     19 C           4.9962   -3.6647   20.9595 C.ar    1  UNL1        0.1754
     20 C           3.9221   -2.6751   20.6175 C.ar    1  UNL1        0.0401
     21 C           3.4314   -1.7115   21.6571 C.ar    1  UNL1        0.0063
     22 C           4.0148   -1.7376   23.0387 C.ar    1  UNL1        0.0401
     23 C           5.0889   -2.7272   23.3808 C.ar    1  UNL1        0.1754
     24 C           5.5796   -3.6908   22.3411 C.ar    1  UNL1        0.2061
     25 C           4.5891   -5.0317   18.7880 C.3     1  UNL1        0.2526
     26 O           5.4868   -4.6282   19.9199 O.3     1  UNL1       -0.4683
     27 O           5.6724   -2.7533   24.7624 O.3     1  UNL1       -0.4683
     28 C           5.2191   -1.7557   25.7869 C.3     1  UNL1        0.2526
     29 O           6.6537   -4.6804   22.6831 O.3     1  UNL1       -0.4654
     30 C           8.0974   -4.2914   22.5637 C.3     1  UNL1        0.2528
@<TRIPOS>BOND
     1    25    26    1
     2    26    19    1
     3    19    20   ar
     4    20    21   ar
     5    21     1    1
     6     1     2    2
     7     2     3    1
     8     3     4    2
     9     4     5    1
    10     5     6    2
    11     6     7    1
    12     7    10    1
    13    10    11    2
    14    11    12    1
    15    12    13    2
    16    13    14    1
    17    14    15    2
    18    15    16    1
    19    16    17    2
    20    17    18    1
    21     7     8    2
    22     8     9    1
    23    21    22   ar
    24    22    23   ar
    25    23    27    1
    26    27    28    1
    27    23    24   ar
    28    24    29    1
    29    29    30    1
    30    24    19   ar
    31     9     1    1
    32     8     4    1
    33    18    10    1
    34    17    13    1
@<TRIPOS>MOLECULE
*****
 30 34 0 0 0
SMALL
GASTEIGER

@<TRIPOS>ATOM
      1 C           1.1887    0.9488   22.0076 C.2     1  UNL1        0.0294
      2 C           0.4340    1.9016   21.1286 C.2     1  UNL1        0.2320
      3 N          -0.5269    2.8807   21.7351 N.2     1  UNL1       -0.0311
      4 C          -0.7332    2.9070   23.2206 C.2     1  UNL1        0.3720
      5 N          -1.6074    3.7536   24.0977 N.2     1  UNL1       -0.0308
      6 C          -1.3930    3.3239   25.5188 C.2     1  UNL1        0.2355
      7 C          -0.3863    2.2119   25.5199 C.2     1  UNL1        0.0469
      8 C           0.0214    1.9542   24.0996 C.2     1  UNL1        0.0740
      9 C           0.9824    0.9751   23.4931 C.3     1  UNL1        0.0645
     10 C           0.1232    1.4851   26.7291 C.2     1  UNL1       -0.0140
     11 C          -0.8417    0.9606   27.7508 C.2     1  UNL1       -0.0023
     12 C          -0.3322    0.2338   28.9601 C.2     1  UNL1        0.0185
     13 C           1.1422    0.0315   29.1476 C.2     1  UNL1        0.0777
     14 N           1.9334   -0.6407   30.2302 N.2     1  UNL1       -0.2442
     15 C           3.3873   -0.5317   29.8776 C.2     1  UNL1        0.0985
     16 C           3.4946    0.2079   28.5771 C.2     1  UNL1        0.0182
     17 C           2.1071    0.5560   28.1259 C.2     1  UNL1        0.0014
     18 C           1.5976    1.2828   26.9167 C.3     1  UNL1        0.0543
     19 C           3.8848   -1.9445   21.6757 C.ar    1  UNL1        0.1754
     20 C           2.9238   -0.9654   22.2822 C.ar    1  UNL1        0.0401
     21 C           2.1497   -0.0304   21.4011 C.ar    1  UNL1        0.0063
     22 C           2.3365   -0.0745   19.9134 C.ar    1  UNL1        0.0401
     23 C           3.2975   -1.0536   19.3069 C.ar    1  UNL1        0.1754
     24 C           4.0717   -1.9886   20.1881 C.ar    1  UNL1        0.2061
     25 C           4.8685   -2.5454   24.0041 C.3     1  UNL1        0.2526
     26 O           4.6589   -2.8795   22.5569 O.3     1  UNL1       -0.4683
     27 O           3.4843   -1.0976   17.8192 O.3     1  UNL1       -0.4683
     28 C           4.6299   -0.3656   17.1852 C.3     1  UNL1        0.2526
     29 O           5.0326   -2.9677   19.5816 O.3     1  UNL1       -0.4654
     30 C           4.5219   -4.2370   18.9668 C.3     1  UNL1        0.2528
@<TRIPOS>BOND
     1    25    26    1
     2    26    19    1
     3    19    20   ar
     4    20    21   ar
     5    21     1    1
     6     1     2    2
     7     2     3    1
     8     3     4    2
     9     4     5    1
    10     5     6    2
    11     6     7    1
    12     7    10    1
    13    10    11    2
    14    11    12    1
    15    12    13    2
    16    13    14    1
    17    14    15    2
    18    15    16    1
    19    16    17    2
    20    17    18    1
    21     7     8    2
    22     8     9    1
    23    21    22   ar
    24    22    23   ar
    25    23    27    1
    26    27    28    1
    27    23    24   ar
    28    24    29    1
    29    29    30    1
    30    24    19   ar
    31     9     1    1
    32     8     4    1
    33    18    10    1
    34    17    13    1
@<TRIPOS>MOLECULE
*****
 30 34 0 0 0
SMALL
GASTEIGER

@<TRIPOS>ATOM
      1 C           1.5600    0.2826   21.2429 C.2     1  UNL1        0.0294
      2 C           0.9978    0.6889   19.9129 C.2     1  UNL1        0.2320
      3 N          -0.0057    1.8008   19.8310 N.2     1  UNL1       -0.0311
      4 C          -0.4469    2.5064   21.0790 C.2     1  UNL1        0.3720
      5 N          -1.4140    3.6299   21.3082 N.2     1  UNL1       -0.0308
      6 C          -1.4494    3.9180   22.7798 C.2     1  UNL1        0.2355
      7 C          -0.5043    2.9725   23.4601 C.2     1  UNL1        0.0469
      8 C           0.1153    2.1001   22.4089 C.2     1  UNL1        0.0740
      9 C           1.1187    0.9882   22.4909 C.3     1  UNL1        0.0645
     10 C          -0.2273    2.9103   24.9330 C.2     1  UNL1       -0.0140
     11 C           0.4362    4.0663   25.6209 C.2     1  UNL1       -0.0023
     12 C           0.7132    4.0042   27.0938 C.2     1  UNL1        0.0185
     13 C           0.3266    2.7859   27.8788 C.2     1  UNL1        0.0777
     14 N           0.4714    2.4400   29.3312 N.2     1  UNL1       -0.2442
     15 C          -0.1026    1.0702   29.5409 C.2     1  UNL1        0.0985
     16 C          -0.6022    0.5695   28.2182 C.2     1  UNL1        0.0182
     17 C          -0.3370    1.6298   27.1910 C.2     1  UNL1        0.0014
     18 C          -0.6139    1.6920   25.7181 C.3     1  UNL1        0.0543
     19 C           4.1857   -2.2973   22.7261 C.ar    1  UNL1        0.1754
     20 C           3.1822   -1.1854   22.6441 C.ar    1  UNL1        0.0401
     21 C           2.5635   -0.8293   21.3249 C.ar    1  UNL1        0.0063
     22 C           2.9482   -1.5851   20.0877 C.ar    1  UNL1        0.0401
     23 C           3.9517   -2.6969   20.1696 C.ar    1  UNL1        0.1754
     24 C           4.5705   -3.0531   21.4889 C.ar    1  UNL1        0.2061
     25 C           4.7853   -1.6654   25.1738 C.3     1  UNL1        0.2526
     26 O           4.8044   -2.6534   24.0453 O.3     1  UNL1       -0.4683
     27 O           4.3365   -3.4527   18.9324 O.3     1  UNL1       -0.4683
     28 C           5.5100   -3.0031   18.1134 C.3     1  UNL1        0.2526
     29 O           5.5739   -4.1650   21.5708 O.3     1  UNL1       -0.4654
     30 C           7.0398   -3.8604   21.4799 C.3     1  UNL1        0.2528
@<TRIPOS>BOND
     1    25    26    1
     2    26    19    1
     3    19    20   ar
     4    20    21   ar
     5    21     1    1
     6     1     2    2
     7     2     3    1
     8     3     4    2
     9     4     5    1
    10     5     6    2
    11     6     7    1
    12     7    10    1
    13    10    11    2
    14    11    12    1
    15    12    13    2
    16    13    14    1
    17    14    15    2
    18    15    16    1
    19    16    17    2
    20    17    18    1
    21     7     8    2
    22     8     9    1
    23    21    22   ar
    24    22    23   ar
    25    23    27    1
    26    27    28    1
    27    23    24   ar
    28    24    29    1
    29    29    30    1
    30    24    19   ar
    31     9     1    1
    32     8     4    1
    33    18    10    1
    34    17    13    1
@<TRIPOS>MOLECULE
*****
 30 34 0 0 0
SMALL
GASTEIGER

@<TRIPOS>ATOM
      1 C           1.3950    1.1355   19.7866 C.2     1  UNL1        0.0294
      2 C           0.5590    1.9221   18.8211 C.2     1  UNL1        0.2320
      3 N          -0.4793    2.8763   19.3324 N.2     1  UNL1       -0.0311
      4 C          -0.6814    3.0439   20.8093 C.2     1  UNL1        0.3720
      5 N          -1.6209    3.9030   21.6026 N.2     1  UNL1       -0.0308
      6 C          -1.3655    3.6474   23.0584 C.2     1  UNL1        0.2355
      7 C          -0.2681    2.6303   23.1648 C.2     1  UNL1        0.0469
      8 C           0.1547    2.2573   21.7748 C.2     1  UNL1        0.0740
      9 C           1.1929    1.3031   21.2634 C.3     1  UNL1        0.0645
     10 C           0.3058    2.0823   24.4377 C.2     1  UNL1       -0.0140
     11 C           1.7907    1.9329   24.5878 C.2     1  UNL1       -0.0023
     12 C           2.3646    1.3849   25.8607 C.2     1  UNL1        0.0185
     13 C           1.4535    0.9863   26.9837 C.2     1  UNL1        0.0777
     14 N           1.7272    0.4204   28.3456 N.2     1  UNL1       -0.2442
     15 C           0.4114    0.2201   29.0373 C.2     1  UNL1        0.0985
     16 C          -0.6755    0.6622   28.1028 C.2     1  UNL1        0.0182
     17 C          -0.0314    1.1357   26.8336 C.2     1  UNL1        0.0014
     18 C          -0.6053    1.6837   25.5607 C.3     1  UNL1        0.0543
     19 C           3.6495   -2.1101   19.4202 C.ar    1  UNL1        0.1754
     20 C           2.6112   -1.1558   19.9315 C.ar    1  UNL1        0.0401
     21 C           2.4333    0.1812   19.2752 C.ar    1  UNL1        0.0063
     22 C           3.2937    0.5640   18.1077 C.ar    1  UNL1        0.0401
     23 C           4.3319   -0.3902   17.5963 C.ar    1  UNL1        0.1754
     24 C           4.5099   -1.7273   18.2526 C.ar    1  UNL1        0.2061
     25 C           3.3830   -4.6940   19.3709 C.3     1  UNL1        0.2526
     26 O           3.8274   -3.4471   20.0764 O.3     1  UNL1       -0.4683
     27 O           5.1923   -0.0073   16.4287 O.3     1  UNL1       -0.4683
     28 C           6.4099    0.8426   16.6411 C.3     1  UNL1        0.2526
     29 O           5.5481   -2.6814   17.7412 O.3     1  UNL1       -0.4654
     30 C           6.9773   -2.5364   18.1727 C.3     1  UNL1        0.2528
@<TRIPOS>BOND
     1    25    26    1
     2    26    19    1
     3    19    20   ar
     4    20    21   ar
     5    21     1    1
     6     1     2    2
     7     2     3    1
     8     3     4    2
     9     4     5    1
    10     5     6    2
    11     6     7    1
    12     7    10    1
    13    10    11    2
    14    11    12    1
    15    12    13    2
    16    13    14    1
    17    14    15    2
    18    15    16    1
    19    16    17    2
    20    17    18    1
    21     7     8    2
    22     8     9    1
    23    21    22   ar
    24    22    23   ar
    25    23    27    1
    26    27    28    1
    27    23    24   ar
    28    24    29    1
    29    29    30    1
    30    24    19   ar
    31     9     1    1
    32     8     4    1
    33    18    10    1
    34    17    13    1
@<TRIPOS>MOLECULE
*****
 30 34 0 0 0
SMALL
GASTEIGER

@<TRIPOS>ATOM
      1 C           1.4127    1.0997   19.8188 C.2     1  UNL1        0.0294
      2 C           0.5681    1.8832   18.8581 C.2     1  UNL1        0.2320
      3 N          -0.4727    2.8313   19.3755 N.2     1  UNL1       -0.0311
      4 C          -0.6690    2.9960   20.8534 C.2     1  UNL1        0.3720
      5 N          -1.6093    3.8492   21.6522 N.2     1  UNL1       -0.0308
      6 C          -1.3458    3.5930   23.1064 C.2     1  UNL1        0.2355
      7 C          -0.2427    2.5814   23.2065 C.2     1  UNL1        0.0469
      8 C           0.1756    2.2125   21.8141 C.2     1  UNL1        0.0740
      9 C           1.2164    1.2643   21.2967 C.3     1  UNL1        0.0645
     10 C           0.3398    2.0348   24.4761 C.2     1  UNL1       -0.0140
     11 C           1.8259    1.8885   24.6173 C.2     1  UNL1       -0.0023
     12 C           2.4085    1.3419   25.8869 C.2     1  UNL1        0.0185
     13 C           1.5049    0.9415   27.0153 C.2     1  UNL1        0.0777
     14 N           1.7878    0.3764   28.3756 N.2     1  UNL1       -0.2442
     15 C           0.4765    0.1734   29.0751 C.2     1  UNL1        0.0985
     16 C          -0.6168    0.6131   28.1471 C.2     1  UNL1        0.0182
     17 C           0.0187    1.0878   26.8740 C.2     1  UNL1        0.0014
     18 C          -0.5638    1.6345   25.6044 C.3     1  UNL1        0.0543
     19 C           4.3460   -0.4088   17.6118 C.ar    1  UNL1        0.1754
     20 C           3.3051    0.5394   18.1291 C.ar    1  UNL1        0.0401
     21 C           2.4535    0.1515   19.3014 C.ar    1  UNL1        0.0063
     22 C           2.6428   -1.1846   19.9565 C.ar    1  UNL1        0.0401
     23 C           3.6836   -2.1328   19.4392 C.ar    1  UNL1        0.1754
     24 C           4.5352   -1.7449   18.2668 C.ar    1  UNL1        0.2061
     25 C           6.4204    0.8226   16.6473 C.3     1  UNL1        0.2526
     26 O           5.1976   -0.0209   16.4395 O.3     1  UNL1       -0.4683
     27 O           3.8728   -3.4689   20.0942 O.3     1  UNL1       -0.4683
     28 C           3.3781   -4.7128   19.4174 C.3     1  UNL1        0.2526
     29 O           5.5760   -2.6931   17.7496 O.3     1  UNL1       -0.4654
     30 C           7.0084   -2.5340   18.1654 C.3     1  UNL1        0.2528
@<TRIPOS>BOND
     1    25    26    1
     2    26    19    1
     3    19    20   ar
     4    20    21   ar
     5    21     1    1
     6     1     2    2
     7     2     3    1
     8     3     4    2
     9     4     5    1
    10     5     6    2
    11     6     7    1
    12     7    10    1
    13    10    11    2
    14    11    12    1
    15    12    13    2
    16    13    14    1
    17    14    15    2
    18    15    16    1
    19    16    17    2
    20    17    18    1
    21     7     8    2
    22     8     9    1
    23    21    22   ar
    24    22    23   ar
    25    23    27    1
    26    27    28    1
    27    23    24   ar
    28    24    29    1
    29    29    30    1
    30    24    19   ar
    31     9     1    1
    32     8     4    1
    33    18    10    1
    34    17    13    1
@<TRIPOS>MOLECULE
*****
 30 34 0 0 0
SMALL
GASTEIGER

@<TRIPOS>ATOM
      1 C           1.3372    0.8303   21.9682 C.2     1  UNL1        0.0294
      2 C           0.6147    1.7801   21.0594 C.2     1  UNL1        0.2320
      3 N          -0.3387    2.7868   21.6316 N.2     1  UNL1       -0.0311
      4 C          -0.5696    2.8437   23.1126 C.2     1  UNL1        0.3720
      5 N          -1.4433    3.7214   23.9592 N.2     1  UNL1       -0.0308
      6 C          -1.2607    3.3139   25.3912 C.2     1  UNL1        0.2355
      7 C          -0.2743    2.1845   25.4296 C.2     1  UNL1        0.0469
      8 C           0.1528    1.8939   24.0214 C.2     1  UNL1        0.0740
      9 C           1.1062    0.8872   23.4492 C.3     1  UNL1        0.0645
     10 C           0.2015    1.4710   26.6603 C.2     1  UNL1       -0.0140
     11 C          -0.7909    0.9654   27.6650 C.2     1  UNL1       -0.0023
     12 C          -0.3151    0.2519   28.8956 C.2     1  UNL1        0.0185
     13 C           1.1531    0.0438   29.1215 C.2     1  UNL1        0.0777
     14 N           1.9138   -0.6184   30.2318 N.2     1  UNL1       -0.2442
     15 C           3.3764   -0.5222   29.9132 C.2     1  UNL1        0.0985
     16 C           3.5196    0.1996   28.6061 C.2     1  UNL1        0.0182
     17 C           2.1455    0.5494   28.1168 C.2     1  UNL1        0.0014
     18 C           1.6697    1.2629   26.8862 C.3     1  UNL1        0.0543
     19 C           3.4611   -1.2527   19.3412 C.ar    1  UNL1        0.1754
     20 C           2.5076   -0.2459   19.9134 C.ar    1  UNL1        0.0401
     21 C           2.2906   -0.1765   21.3960 C.ar    1  UNL1        0.0063
     22 C           3.0270   -1.1140   22.3064 C.ar    1  UNL1        0.0401
     23 C           3.9805   -2.1207   21.7343 C.ar    1  UNL1        0.1754
     24 C           4.1975   -2.1901   20.2516 C.ar    1  UNL1        0.2061
     25 C           4.5889   -0.3374   17.1871 C.3     1  UNL1        0.2526
     26 O           3.6780   -1.3220   17.8586 O.3     1  UNL1       -0.4683
     27 O           4.7169   -3.0582   22.6447 O.3     1  UNL1       -0.4683
     28 C           5.1742   -2.5885   23.9940 C.3     1  UNL1        0.2526
     29 O           5.1509   -3.1969   19.6795 O.3     1  UNL1       -0.4654
     30 C           4.6278   -4.4660   19.0749 C.3     1  UNL1        0.2528
@<TRIPOS>BOND
     1    25    26    1
     2    26    19    1
     3    19    20   ar
     4    20    21   ar
     5    21     1    1
     6     1     2    2
     7     2     3    1
     8     3     4    2
     9     4     5    1
    10     5     6    2
    11     6     7    1
    12     7    10    1
    13    10    11    2
    14    11    12    1
    15    12    13    2
    16    13    14    1
    17    14    15    2
    18    15    16    1
    19    16    17    2
    20    17    18    1
    21     7     8    2
    22     8     9    1
    23    21    22   ar
    24    22    23   ar
    25    23    27    1
    26    27    28    1
    27    23    24   ar
    28    24    29    1
    29    29    30    1
    30    24    19   ar
    31     9     1    1
    32     8     4    1
    33    18    10    1
    34    17    13    1
@<TRIPOS>MOLECULE
*****
 30 34 0 0 0
SMALL
GASTEIGER

@<TRIPOS>ATOM
      1 C           1.2535    1.1858   25.2111 C.2     1  UNL1        0.0294
      2 C           0.3556    2.3656   24.9841 C.2     1  UNL1        0.2320
      3 N           0.0880    2.8470   23.5888 N.2     1  UNL1       -0.0311
      4 C           0.7184    2.1485   22.4206 C.2     1  UNL1        0.3720
      5 N           0.6401    2.3939   20.9429 N.2     1  UNL1       -0.0308
      6 C           1.4897    1.3657   20.2566 C.2     1  UNL1        0.2355
      7 C           2.0930    0.4848   21.3102 C.2     1  UNL1        0.0469
      8 C           1.6163    0.9686   22.6476 C.2     1  UNL1        0.0740
      9 C           1.8839    0.4873   24.0428 C.3     1  UNL1        0.0645
     10 C           3.0118   -0.6760   21.0688 C.2     1  UNL1       -0.0140
     11 C           4.3242   -0.7566   21.7906 C.2     1  UNL1       -0.0023
     12 C           5.2429   -1.9174   21.5492 C.2     1  UNL1        0.0185
     13 C           4.8493   -2.9978   20.5859 C.2     1  UNL1        0.0777
     14 N           5.5431   -4.2533   20.1475 N.2     1  UNL1       -0.2442
     15 C           4.6595   -4.9487   19.1548 C.2     1  UNL1        0.0985
     16 C           3.4196   -4.1230   18.9796 C.2     1  UNL1        0.0182
     17 C           3.5368   -2.9173   19.8642 C.2     1  UNL1        0.0014
     18 C           2.6181   -1.7564   20.1056 C.3     1  UNL1        0.0543
     19 C           0.8411    0.5729   29.1104 C.ar    1  UNL1        0.1754
     20 C           0.5735    1.0543   27.7151 C.ar    1  UNL1        0.0401
     21 C           1.5211    0.7044   26.6063 C.ar    1  UNL1        0.0063
     22 C           2.7364   -0.1270   26.8927 C.ar    1  UNL1        0.0401
     23 C           3.0040   -0.6084   28.2879 C.ar    1  UNL1        0.1754
     24 C           2.0564   -0.2585   29.3968 C.ar    1  UNL1        0.2061
     25 C           0.1665    2.1121   31.0918 C.3     1  UNL1        0.2526
     26 O          -0.1064    0.9229   30.2192 O.3     1  UNL1       -0.4683
     27 O           4.2192   -1.4398   28.5742 O.3     1  UNL1       -0.4683
     28 C           5.3391   -1.4992   27.5780 C.3     1  UNL1        0.2526
     29 O           2.3240   -0.7399   30.7919 O.3     1  UNL1       -0.4654
     30 C           3.1834    0.0733   31.7139 C.3     1  UNL1        0.2528
@<TRIPOS>BOND
     1    25    26    1
     2    26    19    1
     3    19    20   ar
     4    20    21   ar
     5    21     1    1
     6     1     2    2
     7     2     3    1
     8     3     4    2
     9     4     5    1
    10     5     6    2
    11     6     7    1
    12     7    10    1
    13    10    11    2
    14    11    12    1
    15    12    13    2
    16    13    14    1
    17    14    15    2
    18    15    16    1
    19    16    17    2
    20    17    18    1
    21     7     8    2
    22     8     9    1
    23    21    22   ar
    24    22    23   ar
    25    23    27    1
    26    27    28    1
    27    23    24   ar
    28    24    29    1
    29    29    30    1
    30    24    19   ar
    31     9     1    1
    32     8     4    1
    33    18    10    1
    34    17    13    1
@<TRIPOS>MOLECULE
*****
 30 34 0 0 0
SMALL
GASTEIGER

@<TRIPOS>ATOM
      1 C           0.6235    1.7340   23.3132 C.2     1  UNL1        0.0294
      2 C          -0.4041    2.8120   23.1355 C.2     1  UNL1        0.2320
      3 N          -0.8058    3.2453   21.7568 N.2     1  UNL1       -0.0311
      4 C          -0.1797    2.6006   20.5558 C.2     1  UNL1        0.3720
      5 N          -0.3741    2.8177   19.0843 N.2     1  UNL1       -0.0308
      6 C           0.5334    1.8738   18.3527 C.2     1  UNL1        0.2355
      7 C           1.2887    1.0733   19.3719 C.2     1  UNL1        0.0469
      8 C           0.8480    1.5225   20.7335 C.2     1  UNL1        0.0740
      9 C           1.2496    1.0892   22.1122 C.3     1  UNL1        0.0645
     10 C           2.3062    0.0103   19.0808 C.2     1  UNL1       -0.0140
     11 C           3.1351    0.0872   17.8330 C.2     1  UNL1       -0.0023
     12 C           4.1526   -0.9759   17.5418 C.2     1  UNL1        0.0185
     13 C           4.3411   -2.1158   18.4984 C.2     1  UNL1        0.0777
     14 N           5.2594   -3.3016   18.4782 N.2     1  UNL1       -0.2442
     15 C           4.9980   -4.1114   19.7135 C.2     1  UNL1        0.0985
     16 C           3.9181   -3.4260   20.4971 C.2     1  UNL1        0.0182
     17 C           3.5121   -2.1926   19.7461 C.2     1  UNL1        0.0014
     18 C           2.4947   -1.1296   20.0373 C.3     1  UNL1        0.0543
     19 C           0.4340    0.9233   27.1936 C.ar    1  UNL1        0.1754
     20 C           0.0323    1.3567   25.8149 C.ar    1  UNL1        0.0401
     21 C           1.0252    1.3006   24.6920 C.ar    1  UNL1        0.0063
     22 C           2.4199    0.8112   24.9478 C.ar    1  UNL1        0.0401
     23 C           2.8216    0.3778   26.3265 C.ar    1  UNL1        0.1754
     24 C           1.8286    0.4339   27.4494 C.ar    1  UNL1        0.2061
     25 C          -1.2682   -0.2680   28.7535 C.3     1  UNL1        0.2526
     26 O          -0.5590    0.9794   28.3165 O.3     1  UNL1       -0.4683
     27 O           4.2162   -0.1116   26.5823 O.3     1  UNL1       -0.4683
     28 C           5.0594   -0.6028   25.4430 C.3     1  UNL1        0.2526
     29 O           2.2303    0.0005   28.8281 O.3     1  UNL1       -0.4654
     30 C           2.6804    1.0191   29.8330 C.3     1  UNL1        0.2528
@<TRIPOS>BOND
     1    25    26    1
     2    26    19    1
     3    19    20   ar
     4    20    21   ar
     5    21     1    1
     6     1     2    2
     7     2     3    1
     8     3     4    2
     9     4     5    1
    10     5     6    2
    11     6     7    1
    12     7    10    1
    13    10    11    2
    14    11    12    1
    15    12    13    2
    16    13    14    1
    17    14    15    2
    18    15    16    1
    19    16    17    2
    20    17    18    1
    21     7     8    2
    22     8     9    1
    23    21    22   ar
    24    22    23   ar
    25    23    27    1
    26    27    28    1
    27    23    24   ar
    28    24    29    1
    29    29    30    1
    30    24    19   ar
    31     9     1    1
    32     8     4    1
    33    18    10    1
    34    17    13    1
@<TRIPOS>MOLECULE
*****
 30 34 0 0 0
SMALL
GASTEIGER

@<TRIPOS>ATOM
      1 C           0.9225    1.1522   22.6486 C.2     1  UNL1        0.0294
      2 C          -0.0179    2.0525   21.9037 C.2     1  UNL1        0.2320
      3 N          -0.0574    2.0204   20.4046 N.2     1  UNL1       -0.0311
      4 C           0.8436    1.0880   19.6504 C.2     1  UNL1        0.3720
      5 N           1.0260    0.8366   18.1829 N.2     1  UNL1       -0.0308
      6 C           2.0791   -0.2191   18.0209 C.2     1  UNL1        0.2355
      7 C           2.5476   -0.6203   19.3882 C.2     1  UNL1        0.0469
      8 C           1.7840    0.1876   20.3953 C.2     1  UNL1        0.0740
      9 C           1.8234    0.2197   21.8944 C.3     1  UNL1        0.0645
     10 C           3.5956   -1.6487   19.6947 C.2     1  UNL1       -0.0140
     11 C           3.4212   -3.0614   19.2218 C.2     1  UNL1       -0.0023
     12 C           4.4692   -4.0898   19.5283 C.2     1  UNL1        0.0185
     13 C           5.6918   -3.7055   20.3077 C.2     1  UNL1        0.0777
     14 N           6.8847   -4.4957   20.7578 N.2     1  UNL1       -0.2442
     15 C           7.7964   -3.5713   21.5090 C.2     1  UNL1        0.0985
     16 C           7.1671   -2.2098   21.5231 C.2     1  UNL1        0.0182
     17 C           5.8663   -2.2927   20.7806 C.2     1  UNL1        0.0014
     18 C           4.8182   -1.2643   20.4742 C.3     1  UNL1        0.0543
     19 C          -0.1732    1.7426   26.4171 C.ar    1  UNL1        0.1754
     20 C          -0.2127    1.7105   24.9179 C.ar    1  UNL1        0.0401
     21 C           0.9620    1.1842   24.1478 C.ar    1  UNL1        0.0063
     22 C           2.1762    0.6900   24.8768 C.ar    1  UNL1        0.0401
     23 C           2.2157    0.7220   26.3759 C.ar    1  UNL1        0.1754
     24 C           1.0410    1.2483   27.1461 C.ar    1  UNL1        0.2061
     25 C          -2.1373    3.4269   26.6526 C.3     1  UNL1        0.2526
     26 O          -1.3479    2.2689   27.1872 O.3     1  UNL1       -0.4683
     27 O           3.4299    0.2278   27.1049 O.3     1  UNL1       -0.4683
     28 C           3.8665   -1.1993   26.9534 C.3     1  UNL1        0.2526
     29 O           1.0805    1.2804   28.6452 O.3     1  UNL1       -0.4654
     30 C           0.8805    0.0165   29.4279 C.3     1  UNL1        0.2528
@<TRIPOS>BOND
     1    25    26    1
     2    26    19    1
     3    19    20   ar
     4    20    21   ar
     5    21     1    1
     6     1     2    2
     7     2     3    1
     8     3     4    2
     9     4     5    1
    10     5     6    2
    11     6     7    1
    12     7    10    1
    13    10    11    2
    14    11    12    1
    15    12    13    2
    16    13    14    1
    17    14    15    2
    18    15    16    1
    19    16    17    2
    20    17    18    1
    21     7     8    2
    22     8     9    1
    23    21    22   ar
    24    22    23   ar
    25    23    27    1
    26    27    28    1
    27    23    24   ar
    28    24    29    1
    29    29    30    1
    30    24    19   ar
    31     9     1    1
    32     8     4    1
    33    18    10    1
    34    17    13    1
