@<TRIPOS>MOLECULE
*****
 27 30 0 0 0
SMALL
GASTEIGER

@<TRIPOS>ATOM
      1 C          -6.6520  -20.2456   20.7894 C.ar    1  UNL1        0.0207
      2 C          -7.5465  -19.5453   19.8101 C.ar    1  UNL1        0.0994
      3 N          -8.8747  -19.0102   20.2571 N.ar    1  UNL1       -0.2126
      4 C          -9.3083  -19.1755   21.6835 C.ar    1  UNL1        0.2172
      5 N          -8.4137  -19.8759   22.6629 N.ar    1  UNL1       -0.2126
      6 C          -7.0855  -20.4110   22.2159 C.ar    1  UNL1        0.0994
      7 N         -10.6364  -18.6404   22.1304 N.pl3   1  UNL1       -0.2978
      8 H         -11.4251  -19.2296   22.1442 H       1  UNL1        0.1500
      9 C         -10.7629  -17.2078   22.5565 C.3     1  UNL1        0.1359
     10 C          -9.6090  -16.5188   23.2226 C.ar    1  UNL1        0.0784
     11 C          -8.5616  -15.8375   22.3926 C.ar    1  UNL1        0.0164
     12 C          -7.4077  -15.1485   23.0587 C.ar    1  UNL1        0.0025
     13 C          -7.3011  -15.1407   24.5549 C.ar    1  UNL1        0.0147
     14 C          -8.3486  -15.8220   25.3849 C.ar    1  UNL1        0.0590
     15 C          -8.2420  -15.8142   26.8811 C.3     1  UNL1        0.0521
     16 N          -9.5024  -16.5110   24.7188 N.ar    1  UNL1       -0.2523
     17 C          -5.3239  -20.7807   20.3425 C.3     1  UNL1        0.0596
     18 C          -4.2318  -16.6808   24.4401 C.3     1  UNL1        0.0307
     19 C          -3.6699  -17.1455   23.1292 C.2     1  UNL1        0.0074
     20 C          -2.4665  -16.4660   22.5460 C.2     1  UNL1        0.2278
     21 N          -1.9046  -16.9306   21.2351 N.2     1  UNL1       -0.0314
     22 C          -2.5461  -18.0747   20.5075 C.2     1  UNL1        0.3716
     23 N          -2.2180  -18.7481   19.2079 N.2     1  UNL1       -0.0311
     24 C          -3.2186  -19.8437   18.9879 C.2     1  UNL1        0.2319
     25 C          -4.1652  -19.8475   20.1515 C.2     1  UNL1        0.0328
     26 C          -3.7495  -18.7541   21.0907 C.2     1  UNL1        0.0704
     27 C          -4.3114  -18.2895   22.4015 C.3     1  UNL1        0.0598
@<TRIPOS>BOND
     1    18    19    1
     2    19    20    2
     3    20    21    1
     4    21    22    2
     5    22    23    1
     6    23    24    2
     7    24    25    1
     8    25    17    1
     9    17     1    1
    10     1     2   ar
    11     2     3   ar
    12     3     4   ar
    13     4     7    1
    14     7     9    1
    15     9    10    1
    16    10    11   ar
    17    11    12   ar
    18    12    13   ar
    19    13    14   ar
    20    14    15    1
    21    14    16   ar
    22     4     5   ar
    23     5     6   ar
    24    25    26    2
    25    26    27    1
    26    27    19    1
    27    26    22    1
    28     6     1   ar
    29    16    10   ar
    30     7     8    1
@<TRIPOS>MOLECULE
*****
 27 30 0 0 0
SMALL
GASTEIGER

@<TRIPOS>ATOM
      1 C          -7.6571  -19.5781   19.8802 C.ar    1  UNL1        0.0207
      2 C          -7.8423  -18.3670   20.7455 C.ar    1  UNL1        0.0994
      3 N          -9.1931  -17.7244   20.8573 N.ar    1  UNL1       -0.2126
      4 C         -10.3587  -18.2929   20.1037 C.ar    1  UNL1        0.2172
      5 N         -10.1735  -19.5041   19.2383 N.ar    1  UNL1       -0.2126
      6 C          -8.8228  -20.1467   19.1265 C.ar    1  UNL1        0.0994
      7 N         -11.7095  -17.6504   20.2154 N.pl3   1  UNL1       -0.2978
      8 H         -12.2069  -17.4054   19.4019 H       1  UNL1        0.1500
      9 C         -12.3024  -17.3810   21.5667 C.3     1  UNL1        0.1359
     10 C         -11.4917  -17.6283   22.8042 C.ar    1  UNL1        0.0784
     11 C         -11.6411  -18.9193   23.5532 C.ar    1  UNL1        0.0164
     12 C         -10.8304  -19.1666   24.7908 C.ar    1  UNL1        0.0025
     13 C          -9.8701  -18.1229   25.2794 C.ar    1  UNL1        0.0147
     14 C          -9.7207  -16.8319   24.5303 C.ar    1  UNL1        0.0590
     15 C          -8.7605  -15.7882   25.0189 C.3     1  UNL1        0.0521
     16 N         -10.5314  -16.5846   23.2928 N.ar    1  UNL1       -0.2523
     17 C          -6.3063  -20.2206   19.7684 C.3     1  UNL1        0.0596
     18 C          -1.2871  -17.7801   17.8598 C.3     1  UNL1        0.0307
     19 C          -1.9077  -18.2238   19.1513 C.2     1  UNL1        0.0074
     20 C          -1.1531  -18.0685   20.4384 C.2     1  UNL1        0.2278
     21 N          -1.7737  -18.5122   21.7299 N.2     1  UNL1       -0.0314
     22 C          -3.1489  -19.1111   21.7344 C.2     1  UNL1        0.3716
     23 N          -4.0116  -19.6356   22.8437 N.2     1  UNL1       -0.0311
     24 C          -5.2994  -20.1151   22.2423 C.2     1  UNL1        0.2319
     25 C          -5.2326  -19.8869   20.7613 C.2     1  UNL1        0.0328
     26 C          -3.9035  -19.2664   20.4474 C.2     1  UNL1        0.0704
     27 C          -3.2829  -18.8228   19.1559 C.3     1  UNL1        0.0598
@<TRIPOS>BOND
     1    18    19    1
     2    19    20    2
     3    20    21    1
     4    21    22    2
     5    22    23    1
     6    23    24    2
     7    24    25    1
     8    25    17    1
     9    17     1    1
    10     1     2   ar
    11     2     3   ar
    12     3     4   ar
    13     4     7    1
    14     7     9    1
    15     9    10    1
    16    10    11   ar
    17    11    12   ar
    18    12    13   ar
    19    13    14   ar
    20    14    15    1
    21    14    16   ar
    22     4     5   ar
    23     5     6   ar
    24    25    26    2
    25    26    27    1
    26    27    19    1
    27    26    22    1
    28     6     1   ar
    29    16    10   ar
    30     7     8    1
@<TRIPOS>MOLECULE
*****
 27 30 0 0 0
SMALL
GASTEIGER

@<TRIPOS>ATOM
      1 C          -5.0345  -16.5688   23.9109 C.ar    1  UNL1        0.0207
      2 C          -5.4820  -15.4402   24.7918 C.ar    1  UNL1        0.0994
      3 N          -6.9383  -15.0926   24.8840 N.ar    1  UNL1       -0.2126
      4 C          -7.9471  -15.8738   24.0952 C.ar    1  UNL1        0.2172
      5 N          -7.4996  -17.0024   23.2143 N.ar    1  UNL1       -0.2126
      6 C          -6.0433  -17.3500   23.1222 C.ar    1  UNL1        0.0994
      7 N          -9.4034  -15.5262   24.1874 N.pl3   1  UNL1       -0.2978
      8 H          -9.6771  -14.6039   24.3963 H       1  UNL1        0.1500
      9 C         -10.4426  -16.5840   23.9613 C.3     1  UNL1        0.1359
     10 C         -10.7348  -17.0632   22.5703 C.ar    1  UNL1        0.0784
     11 C         -10.6892  -18.5294   22.2570 C.ar    1  UNL1        0.0164
     12 C         -10.9813  -19.0086   20.8660 C.ar    1  UNL1        0.0025
     13 C         -11.3191  -18.0216   19.7882 C.ar    1  UNL1        0.0147
     14 C         -11.3647  -16.5554   20.1015 C.ar    1  UNL1        0.0590
     15 C         -11.7024  -15.5684   19.0236 C.3     1  UNL1        0.0521
     16 N         -11.0725  -16.0762   21.4925 N.ar    1  UNL1       -0.2523
     17 C          -3.5783  -16.9163   23.8188 C.3     1  UNL1        0.0596
     18 C          -5.3079  -21.3374   20.3181 C.3     1  UNL1        0.0307
     19 C          -4.3270  -20.2026   20.3037 C.2     1  UNL1        0.0074
     20 C          -3.4434  -19.9903   19.1104 C.2     1  UNL1        0.2278
     21 N          -2.4625  -18.8555   19.0959 N.2     1  UNL1       -0.0314
     22 C          -2.3653  -17.9331   20.2747 C.2     1  UNL1        0.3716
     23 N          -1.5003  -16.7379   20.5453 N.2     1  UNL1       -0.0311
     24 C          -1.8494  -16.2115   21.9059 C.2     1  UNL1        0.2319
     25 C          -2.9301  -17.0814   22.4761 C.2     1  UNL1        0.0328
     26 C          -3.2490  -18.1454   21.4680 C.2     1  UNL1        0.0704
     27 C          -4.2299  -19.2802   21.4825 C.3     1  UNL1        0.0598
@<TRIPOS>BOND
     1    18    19    1
     2    19    20    2
     3    20    21    1
     4    21    22    2
     5    22    23    1
     6    23    24    2
     7    24    25    1
     8    25    17    1
     9    17     1    1
    10     1     2   ar
    11     2     3   ar
    12     3     4   ar
    13     4     7    1
    14     7     9    1
    15     9    10    1
    16    10    11   ar
    17    11    12   ar
    18    12    13   ar
    19    13    14   ar
    20    14    15    1
    21    14    16   ar
    22     4     5   ar
    23     5     6   ar
    24    25    26    2
    25    26    27    1
    26    27    19    1
    27    26    22    1
    28     6     1   ar
    29    16    10   ar
    30     7     8    1
@<TRIPOS>MOLECULE
*****
 27 30 0 0 0
SMALL
GASTEIGER

@<TRIPOS>ATOM
      1 C          -7.0504  -20.0671   20.2076 C.ar    1  UNL1        0.0207
      2 C          -7.3810  -18.8426   21.0083 C.ar    1  UNL1        0.0994
      3 N          -8.7251  -18.1925   20.8642 N.ar    1  UNL1       -0.2126
      4 C          -9.7387  -18.7670   19.9194 C.ar    1  UNL1        0.2172
      5 N          -9.4080  -19.9916   19.1186 N.ar    1  UNL1       -0.2126
      6 C          -8.0639  -20.6417   19.2627 C.ar    1  UNL1        0.0994
      7 N         -11.0828  -18.1169   19.7753 N.pl3   1  UNL1       -0.2978
      8 H         -11.5010  -18.0426   18.8872 H       1  UNL1        0.1500
      9 C         -11.7897  -17.5800   20.9845 C.3     1  UNL1        0.1359
     10 C         -11.2019  -17.7845   22.3493 C.ar    1  UNL1        0.0784
     11 C         -11.4730  -19.0545   23.1000 C.ar    1  UNL1        0.0164
     12 C         -10.8852  -19.2590   24.4648 C.ar    1  UNL1        0.0025
     13 C         -10.0263  -18.1936   25.0789 C.ar    1  UNL1        0.0147
     14 C          -9.7553  -16.9235   24.3281 C.ar    1  UNL1        0.0590
     15 C          -8.8964  -15.8581   24.9422 C.3     1  UNL1        0.0521
     16 N         -10.3430  -16.7191   22.9634 N.ar    1  UNL1       -0.2523
     17 C          -5.7063  -20.7172   20.3516 C.3     1  UNL1        0.0596
     18 C          -4.5643  -16.7615   24.5754 C.3     1  UNL1        0.0307
     19 C          -3.9498  -17.2643   23.3027 C.2     1  UNL1        0.0074
     20 C          -2.6514  -16.6901   22.8187 C.2     1  UNL1        0.2278
     21 N          -2.0370  -17.1929   21.5461 N.2     1  UNL1       -0.0314
     22 C          -2.7210  -18.2699   20.7574 C.2     1  UNL1        0.3716
     23 N          -2.3580  -18.9600   19.4760 N.2     1  UNL1       -0.0311
     24 C          -3.4321  -19.9608   19.1680 C.2     1  UNL1        0.2319
     25 C          -4.4590  -19.8892   20.2590 C.2     1  UNL1        0.0328
     26 C          -4.0194  -18.8442   21.2414 C.2     1  UNL1        0.0704
     27 C          -4.6338  -18.3414   22.5140 C.3     1  UNL1        0.0598
@<TRIPOS>BOND
     1    18    19    1
     2    19    20    2
     3    20    21    1
     4    21    22    2
     5    22    23    1
     6    23    24    2
     7    24    25    1
     8    25    17    1
     9    17     1    1
    10     1     2   ar
    11     2     3   ar
    12     3     4   ar
    13     4     7    1
    14     7     9    1
    15     9    10    1
    16    10    11   ar
    17    11    12   ar
    18    12    13   ar
    19    13    14   ar
    20    14    15    1
    21    14    16   ar
    22     4     5   ar
    23     5     6   ar
    24    25    26    2
    25    26    27    1
    26    27    19    1
    27    26    22    1
    28     6     1   ar
    29    16    10   ar
    30     7     8    1
@<TRIPOS>MOLECULE
*****
 27 30 0 0 0
SMALL
GASTEIGER

@<TRIPOS>ATOM
      1 C          -3.6798  -16.5843   23.5053 C.ar    1  UNL1        0.0207
      2 C          -4.4983  -15.5058   22.8597 C.ar    1  UNL1        0.0994
      3 N          -5.6738  -14.9206   23.5848 N.ar    1  UNL1       -0.2126
      4 C          -6.0308  -15.4140   24.9557 C.ar    1  UNL1        0.2172
      5 N          -5.2122  -16.4926   25.6013 N.ar    1  UNL1       -0.2126
      6 C          -4.0368  -17.0778   24.8761 C.ar    1  UNL1        0.0994
      7 N          -7.2062  -14.8288   25.6808 N.pl3   1  UNL1       -0.2978
      8 H          -7.2873  -13.8527   25.7799 H       1  UNL1        0.1500
      9 C          -8.2581  -15.7309   26.2550 C.3     1  UNL1        0.1359
     10 C          -9.0870  -16.5897   25.3465 C.ar    1  UNL1        0.0784
     11 C          -9.4629  -17.9801   25.7654 C.ar    1  UNL1        0.0164
     12 C         -10.2918  -18.8389   24.8569 C.ar    1  UNL1        0.0025
     13 C         -10.7448  -18.3074   23.5294 C.ar    1  UNL1        0.0147
     14 C         -10.3688  -16.9169   23.1105 C.ar    1  UNL1        0.0590
     15 C         -10.8217  -16.3854   21.7829 C.3     1  UNL1        0.0521
     16 N          -9.5400  -16.0582   24.0190 N.ar    1  UNL1       -0.2523
     17 C          -2.5044  -17.1695   22.7801 C.3     1  UNL1        0.0596
     18 C          -7.6372  -20.0594   22.4733 C.3     1  UNL1        0.0307
     19 C          -6.3397  -19.9790   21.7250 C.2     1  UNL1        0.0074
     20 C          -6.1228  -20.8265   20.5066 C.2     1  UNL1        0.2278
     21 N          -4.8253  -20.7462   19.7583 N.2     1  UNL1       -0.0314
     22 C          -3.7446  -19.8184   20.2285 C.2     1  UNL1        0.3716
     23 N          -2.3717  -19.5267   19.6993 N.2     1  UNL1       -0.0311
     24 C          -1.7400  -18.4989   20.5908 C.2     1  UNL1        0.2319
     25 C          -2.7224  -18.1554   21.6709 C.2     1  UNL1        0.0328
     26 C          -3.9614  -18.9709   21.4469 C.2     1  UNL1        0.0704
     27 C          -5.2589  -19.0512   22.1952 C.3     1  UNL1        0.0598
@<TRIPOS>BOND
     1    18    19    1
     2    19    20    2
     3    20    21    1
     4    21    22    2
     5    22    23    1
     6    23    24    2
     7    24    25    1
     8    25    17    1
     9    17     1    1
    10     1     2   ar
    11     2     3   ar
    12     3     4   ar
    13     4     7    1
    14     7     9    1
    15     9    10    1
    16    10    11   ar
    17    11    12   ar
    18    12    13   ar
    19    13    14   ar
    20    14    15    1
    21    14    16   ar
    22     4     5   ar
    23     5     6   ar
    24    25    26    2
    25    26    27    1
    26    27    19    1
    27    26    22    1
    28     6     1   ar
    29    16    10   ar
    30     7     8    1
@<TRIPOS>MOLECULE
*****
 27 30 0 0 0
SMALL
GASTEIGER

@<TRIPOS>ATOM
      1 C           5.0053   -3.4874   22.1375 C.ar    1  UNL1        0.0207
      2 C           6.3632   -3.9776   22.5445 C.ar    1  UNL1        0.0994
      3 N           6.9645   -3.5287   23.8433 N.ar    1  UNL1       -0.2126
      4 C           6.2078   -2.5896   24.7352 C.ar    1  UNL1        0.2172
      5 N           4.8498   -2.0994   24.3282 N.ar    1  UNL1       -0.2126
      6 C           4.2485   -2.5482   23.0294 C.ar    1  UNL1        0.0994
      7 N           6.8091   -2.1407   26.0340 N.pl3   1  UNL1       -0.2978
      8 H           7.7297   -1.7926   26.0560 H       1  UNL1        0.1500
      9 C           6.0077   -2.2222   27.2994 C.3     1  UNL1        0.1359
     10 C           6.3181   -3.2796   28.3169 C.ar    1  UNL1        0.0784
     11 C           6.6116   -4.6827   27.8750 C.ar    1  UNL1        0.0164
     12 C           6.9221   -5.7401   28.8926 C.ar    1  UNL1        0.0025
     13 C           6.9391   -5.3945   30.3522 C.ar    1  UNL1        0.0147
     14 C           6.6455   -3.9914   30.7941 C.ar    1  UNL1        0.0590
     15 C           6.6625   -3.6458   32.2536 C.3     1  UNL1        0.0521
     16 N           6.3351   -2.9340   29.7765 N.ar    1  UNL1       -0.2523
     17 C           4.4040   -3.9363   20.8387 C.3     1  UNL1        0.0596
     18 C           0.3443    0.3192   20.3897 C.3     1  UNL1        0.0307
     19 C           1.5190   -0.2071   19.6195 C.2     1  UNL1        0.0074
     20 C           1.9118    0.4325   18.3209 C.2     1  UNL1        0.2278
     21 N           3.0865   -0.0938   17.5507 N.2     1  UNL1       -0.0314
     22 C           3.8684   -1.2597   18.0792 C.2     1  UNL1        0.3716
     23 N           5.0641   -1.9912   17.5453 N.2     1  UNL1       -0.0311
     24 C           5.4103   -3.0829   18.5140 C.2     1  UNL1        0.2319
     25 C           4.4285   -3.0261   19.6466 C.2     1  UNL1        0.0328
     26 C           3.4756   -1.8992   19.3779 C.2     1  UNL1        0.0704
     27 C           2.3009   -1.3729   20.1481 C.3     1  UNL1        0.0598
@<TRIPOS>BOND
     1    18    19    1
     2    19    20    2
     3    20    21    1
     4    21    22    2
     5    22    23    1
     6    23    24    2
     7    24    25    1
     8    25    17    1
     9    17     1    1
    10     1     2   ar
    11     2     3   ar
    12     3     4   ar
    13     4     7    1
    14     7     9    1
    15     9    10    1
    16    10    11   ar
    17    11    12   ar
    18    12    13   ar
    19    13    14   ar
    20    14    15    1
    21    14    16   ar
    22     4     5   ar
    23     5     6   ar
    24    25    26    2
    25    26    27    1
    26    27    19    1
    27    26    22    1
    28     6     1   ar
    29    16    10   ar
    30     7     8    1
@<TRIPOS>MOLECULE
*****
 27 30 0 0 0
SMALL
GASTEIGER

@<TRIPOS>ATOM
      1 C           1.4394    0.8969   18.7528 C.ar    1  UNL1        0.0207
      2 C           0.8397    0.1895   19.9317 C.ar    1  UNL1        0.0994
      3 N          -0.2419    0.8515   20.7330 N.ar    1  UNL1       -0.2126
      4 C          -0.7237    2.2209   20.3553 C.ar    1  UNL1        0.2172
      5 N          -0.1239    2.9283   19.1764 N.ar    1  UNL1       -0.2126
      6 C           0.9576    2.2663   18.3751 C.ar    1  UNL1        0.0994
      7 N          -1.8053    2.8828   21.1566 N.pl3   1  UNL1       -0.2978
      8 H          -1.6576    3.0879   22.1081 H       1  UNL1        0.1500
      9 C          -3.1120    3.2322   20.5082 C.3     1  UNL1        0.1359
     10 C          -4.2923    3.6078   21.3542 C.ar    1  UNL1        0.0784
     11 C          -5.5638    4.0685   20.7055 C.ar    1  UNL1        0.0164
     12 C          -6.7442    4.4440   21.5515 C.ar    1  UNL1        0.0025
     13 C          -6.6530    4.3588   23.0463 C.ar    1  UNL1        0.0147
     14 C          -5.3814    3.8980   23.6950 C.ar    1  UNL1        0.0590
     15 C          -5.2903    3.8128   25.1898 C.3     1  UNL1        0.0521
     16 N          -4.2012    3.5225   22.8490 N.ar    1  UNL1       -0.2523
     17 C           2.5210    0.2350   17.9515 C.3     1  UNL1        0.0596
     18 C           3.5736   -5.3015   19.6927 C.3     1  UNL1        0.0307
     19 C           4.2652   -3.9704   19.6803 C.2     1  UNL1        0.0074
     20 C           5.6487   -3.8388   20.2446 C.2     1  UNL1        0.2278
     21 N           6.3403   -2.5078   20.2322 N.2     1  UNL1       -0.0314
     22 C           5.6483   -1.3084   19.6555 C.2     1  UNL1        0.3716
     23 N           6.0756    0.1217   19.5064 N.2     1  UNL1       -0.0311
     24 C           4.9561    0.8739   18.8499 C.2     1  UNL1        0.2319
     25 C           3.8369   -0.0913   18.5933 C.2     1  UNL1        0.0328
     26 C           4.2648   -1.4401   19.0912 C.2     1  UNL1        0.0704
     27 C           3.5732   -2.7711   19.1036 C.3     1  UNL1        0.0598
@<TRIPOS>BOND
     1    18    19    1
     2    19    20    2
     3    20    21    1
     4    21    22    2
     5    22    23    1
     6    23    24    2
     7    24    25    1
     8    25    17    1
     9    17     1    1
    10     1     2   ar
    11     2     3   ar
    12     3     4   ar
    13     4     7    1
    14     7     9    1
    15     9    10    1
    16    10    11   ar
    17    11    12   ar
    18    12    13   ar
    19    13    14   ar
    20    14    15    1
    21    14    16   ar
    22     4     5   ar
    23     5     6   ar
    24    25    26    2
    25    26    27    1
    26    27    19    1
    27    26    22    1
    28     6     1   ar
    29    16    10   ar
    30     7     8    1
@<TRIPOS>MOLECULE
*****
 27 30 0 0 0
SMALL
GASTEIGER

@<TRIPOS>ATOM
      1 C           1.6476    0.9008   18.7726 C.ar    1  UNL1        0.0207
      2 C           0.9186    0.0602   19.7786 C.ar    1  UNL1        0.0994
      3 N          -0.1133    0.6841   20.6706 N.ar    1  UNL1       -0.2126
      4 C          -0.4164    2.1488   20.5567 C.ar    1  UNL1        0.2172
      5 N           0.3126    2.9894   19.5507 N.ar    1  UNL1       -0.2126
      6 C           1.3445    2.3655   18.6586 C.ar    1  UNL1        0.0994
      7 N          -1.4483    2.7727   21.4487 N.pl3   1  UNL1       -0.2978
      8 H          -1.6314    2.3858   22.3353 H       1  UNL1        0.1500
      9 C          -2.2014    3.9862   20.9899 C.3     1  UNL1        0.1359
     10 C          -3.3407    3.8414   20.0250 C.ar    1  UNL1        0.0784
     11 C          -4.7290    3.5928   20.5356 C.ar    1  UNL1        0.0164
     12 C          -5.8683    3.4480   19.5707 C.ar    1  UNL1        0.0025
     13 C          -5.6193    3.5518   18.0951 C.ar    1  UNL1        0.0147
     14 C          -4.2309    3.8004   17.5846 C.ar    1  UNL1        0.0590
     15 C          -3.9818    3.9043   16.1090 C.3     1  UNL1        0.0521
     16 N          -3.0917    3.9452   18.5495 N.ar    1  UNL1       -0.2523
     17 C           2.6795    0.2769   17.8806 C.3     1  UNL1        0.0596
     18 C           3.5541   -5.2703   19.6852 C.3     1  UNL1        0.0307
     19 C           4.3135   -3.9802   19.5905 C.2     1  UNL1        0.0074
     20 C           5.7387   -3.9132   20.0535 C.2     1  UNL1        0.2278
     21 N           6.4982   -2.6231   19.9589 N.2     1  UNL1       -0.0314
     22 C           5.8324   -1.4000   19.4013 C.2     1  UNL1        0.3716
     23 N           6.3243    0.0006   19.1863 N.2     1  UNL1       -0.0311
     24 C           5.2030    0.7993   18.5904 C.2     1  UNL1        0.2319
     25 C           4.0182   -0.1078   18.4372 C.2     1  UNL1        0.0328
     26 C           4.4073   -1.4671   18.9384 C.2     1  UNL1        0.0704
     27 C           3.6478   -2.7571   19.0330 C.3     1  UNL1        0.0598
@<TRIPOS>BOND
     1    18    19    1
     2    19    20    2
     3    20    21    1
     4    21    22    2
     5    22    23    1
     6    23    24    2
     7    24    25    1
     8    25    17    1
     9    17     1    1
    10     1     2   ar
    11     2     3   ar
    12     3     4   ar
    13     4     7    1
    14     7     9    1
    15     9    10    1
    16    10    11   ar
    17    11    12   ar
    18    12    13   ar
    19    13    14   ar
    20    14    15    1
    21    14    16   ar
    22     4     5   ar
    23     5     6   ar
    24    25    26    2
    25    26    27    1
    26    27    19    1
    27    26    22    1
    28     6     1   ar
    29    16    10   ar
    30     7     8    1
@<TRIPOS>MOLECULE
*****
 27 30 0 0 0
SMALL
GASTEIGER

@<TRIPOS>ATOM
      1 C           1.4764    0.8814   18.7871 C.ar    1  UNL1        0.0207
      2 C           0.8704    0.1359   19.9391 C.ar    1  UNL1        0.0994
      3 N          -0.1946    0.7828   20.7741 N.ar    1  UNL1       -0.2126
      4 C          -0.6536    2.1753   20.4572 C.ar    1  UNL1        0.2172
      5 N          -0.0476    2.9207   19.3052 N.ar    1  UNL1       -0.2126
      6 C           1.0174    2.2739   18.4702 C.ar    1  UNL1        0.0994
      7 N          -1.7186    2.8222   21.2922 N.pl3   1  UNL1       -0.2978
      8 H          -2.6685    2.6557   21.0940 H       1  UNL1        0.1500
      9 C          -1.3364    3.7227   22.4293 C.3     1  UNL1        0.1359
     10 C          -2.1537    3.7308   23.6870 C.ar    1  UNL1        0.0784
     11 C          -1.4973    3.4675   25.0098 C.ar    1  UNL1        0.0164
     12 C          -2.3147    3.4755   26.2675 C.ar    1  UNL1        0.0025
     13 C          -3.7885    3.7469   26.2025 C.ar    1  UNL1        0.0147
     14 C          -4.4449    4.0102   24.8796 C.ar    1  UNL1        0.0590
     15 C          -5.9187    4.2816   24.8146 C.3     1  UNL1        0.0521
     16 N          -3.6276    4.0021   23.6220 N.ar    1  UNL1       -0.2523
     17 C           2.5414    0.2345   17.9521 C.3     1  UNL1        0.0596
     18 C           3.5342   -5.2896   19.7661 C.3     1  UNL1        0.0307
     19 C           4.2513   -3.9734   19.7089 C.2     1  UNL1        0.0074
     20 C           5.6530   -3.8597   20.2309 C.2     1  UNL1        0.2278
     21 N           6.3701   -2.5434   20.1737 N.2     1  UNL1       -0.0314
     22 C           5.6856   -1.3409   19.5946 C.2     1  UNL1        0.3716
     23 N           6.1366    0.0772   19.4065 N.2     1  UNL1       -0.0311
     24 C           5.0137    0.8400   18.7683 C.2     1  UNL1        0.2319
     25 C           3.8687   -0.1067   18.5620 C.2     1  UNL1        0.0328
     26 C           4.2840   -1.4546   19.0727 C.2     1  UNL1        0.0704
     27 C           3.5668   -2.7709   19.1299 C.3     1  UNL1        0.0598
@<TRIPOS>BOND
     1    18    19    1
     2    19    20    2
     3    20    21    1
     4    21    22    2
     5    22    23    1
     6    23    24    2
     7    24    25    1
     8    25    17    1
     9    17     1    1
    10     1     2   ar
    11     2     3   ar
    12     3     4   ar
    13     4     7    1
    14     7     9    1
    15     9    10    1
    16    10    11   ar
    17    11    12   ar
    18    12    13   ar
    19    13    14   ar
    20    14    15    1
    21    14    16   ar
    22     4     5   ar
    23     5     6   ar
    24    25    26    2
    25    26    27    1
    26    27    19    1
    27    26    22    1
    28     6     1   ar
    29    16    10   ar
    30     7     8    1
