@<TRIPOS>MOLECULE
*****
 27 30 0 0 0
SMALL
GASTEIGER

@<TRIPOS>ATOM
      1 C          -6.6775  -20.1405   19.9560 C.2     1  UNL1        0.2459
      2 O          -6.7745  -21.6222   19.7440 O.2     1  UNL1       -0.2701
      3 N          -7.8565  -19.2617   19.6598 N.am    1  UNL1       -0.3005
      4 H          -7.7928  -18.2891   19.7990 H       1  UNL1        0.1497
      5 N           0.5168  -17.0019   20.0787 N.pl3   1  UNL1       -0.3375
      6 C          -0.8467  -17.5695   20.3412 C.ar    1  UNL1        0.1567
      7 N          -1.4940  -17.7229   21.6856 N.ar    1  UNL1       -0.2245
      8 C          -2.8496  -18.3316   21.4807 C.ar    1  UNL1        0.0892
      9 C          -3.9350  -18.7117   22.4435 C.ar    1  UNL1        0.0198
     10 C          -5.2110  -19.3147   21.9353 C.ar    1  UNL1        0.0061
     11 C          -5.4015  -19.5375   20.4642 C.ar    1  UNL1        0.0539
     12 C          -4.3160  -19.1573   19.5013 C.ar    1  UNL1        0.0126
     13 C          -3.0400  -18.5544   20.0096 C.ar    1  UNL1        0.0498
     14 S          -1.8022  -18.0834   19.3054 S.2     1  UNL1       -0.0520
     15 H           1.0725  -16.6890   20.8287 H       1  UNL1        0.1442
     16 H           0.8559  -16.9423   19.1564 H       1  UNL1        0.1442
     17 C          -9.1325  -19.8647   19.1516 C.3     1  UNL1        0.0944
     18 C         -10.4507  -19.2499   19.5183 C.3     1  UNL1        0.0492
     19 C         -10.5634  -18.3930   20.7442 C.2     1  UNL1       -0.0002
     20 C         -10.9306  -16.9389   20.7729 C.2     1  UNL1        0.0942
     21 N         -10.9229  -16.4870   22.2032 N.2     1  UNL1       -0.2482
     22 C         -10.5510  -17.6618   23.0585 C.2     1  UNL1        0.0631
     23 C         -10.3859  -17.8111   24.5420 C.3     1  UNL1        0.0717
     24 C          -9.9987  -19.1383   25.1237 C.2     1  UNL1       -0.0198
     25 C          -9.7765  -20.3164   24.2220 C.2     1  UNL1       -0.0042
     26 C          -9.9416  -20.1671   22.7386 C.2     1  UNL1        0.0006
     27 C         -10.3288  -18.8398   22.1568 C.2     1  UNL1        0.0115
@<TRIPOS>BOND
     1     5     6    1
     2     6     7   ar
     3     7     8   ar
     4     8     9   ar
     5     9    10   ar
     6    10    11   ar
     7    11     1    1
     8     1     2    2
     9     1     3   am
    10     3    17    1
    11    17    18    1
    12    18    19    1
    13    19    20    2
    14    20    21    1
    15    21    22    2
    16    22    23    1
    17    23    24    1
    18    24    25    2
    19    25    26    1
    20    26    27    2
    21    11    12   ar
    22    12    13   ar
    23    13    14   ar
    24    14     6   ar
    25    13     8   ar
    26    27    19    1
    27    27    22    1
    28     5    15    1
    29     5    16    1
    30     3     4    1
@<TRIPOS>MOLECULE
*****
 27 30 0 0 0
SMALL
GASTEIGER

@<TRIPOS>ATOM
      1 C          -7.2223  -19.5345   21.0643 C.2     1  UNL1        0.2459
      2 O          -7.9388  -20.2129   22.1941 O.2     1  UNL1       -0.2701
      3 N          -7.9858  -19.0862   19.8535 N.am    1  UNL1       -0.3005
      4 H          -7.5155  -18.6409   19.1121 H       1  UNL1        0.1497
      5 N           0.1602  -17.8886   18.9637 N.pl3   1  UNL1       -0.3375
      6 C          -1.1386  -18.2369   19.6283 C.ar    1  UNL1        0.1567
      7 N          -1.3274  -18.5573   21.0814 N.ar    1  UNL1       -0.2245
      8 C          -2.7822  -18.8443   21.3077 C.ar    1  UNL1        0.0892
      9 C          -3.5518  -19.2174   22.5399 C.ar    1  UNL1        0.0198
     10 C          -5.0318  -19.4475   22.4588 C.ar    1  UNL1        0.0061
     11 C          -5.7422  -19.3044   21.1454 C.ar    1  UNL1        0.0539
     12 C          -4.9726  -18.9313   19.9132 C.ar    1  UNL1        0.0126
     13 C          -3.4926  -18.7013   19.9943 C.ar    1  UNL1        0.0498
     14 S          -2.4768  -18.3259   18.9564 S.2     1  UNL1       -0.0520
     15 H           0.9902  -17.8557   19.4921 H       1  UNL1        0.1442
     16 H           0.1827  -17.6930   17.9991 H       1  UNL1        0.1442
     17 C          -9.4659  -19.3163   19.7724 C.3     1  UNL1        0.0944
     18 C         -10.4150  -18.2958   20.3272 C.3     1  UNL1        0.0492
     19 C         -10.4433  -18.0213   21.8015 C.2     1  UNL1       -0.0002
     20 C         -11.3918  -18.6271   22.7931 C.2     1  UNL1        0.0942
     21 N         -11.0629  -18.0730   24.1476 N.2     1  UNL1       -0.2482
     22 C          -9.9110  -17.1246   23.9931 C.2     1  UNL1        0.0631
     23 C          -9.1613  -16.2859   24.9855 C.3     1  UNL1        0.0717
     24 C          -8.0288  -15.4154   24.5279 C.2     1  UNL1       -0.0198
     25 C          -7.6458  -15.3834   23.0779 C.2     1  UNL1       -0.0042
     26 C          -8.3955  -16.2221   22.0856 C.2     1  UNL1        0.0006
     27 C          -9.5281  -17.0927   22.5432 C.2     1  UNL1        0.0115
@<TRIPOS>BOND
     1     5     6    1
     2     6     7   ar
     3     7     8   ar
     4     8     9   ar
     5     9    10   ar
     6    10    11   ar
     7    11     1    1
     8     1     2    2
     9     1     3   am
    10     3    17    1
    11    17    18    1
    12    18    19    1
    13    19    20    2
    14    20    21    1
    15    21    22    2
    16    22    23    1
    17    23    24    1
    18    24    25    2
    19    25    26    1
    20    26    27    2
    21    11    12   ar
    22    12    13   ar
    23    13    14   ar
    24    14     6   ar
    25    13     8   ar
    26    27    19    1
    27    27    22    1
    28     5    15    1
    29     5    16    1
    30     3     4    1
@<TRIPOS>MOLECULE
*****
 27 30 0 0 0
SMALL
GASTEIGER

@<TRIPOS>ATOM
      1 C          -8.7811  -19.3002   20.1277 C.2     1  UNL1        0.2459
      2 O          -8.7595  -19.2722   18.6281 O.2     1  UNL1       -0.2701
      3 N          -7.5743  -19.7666   20.8866 N.am    1  UNL1       -0.3005
      4 H          -7.5885  -19.7850   21.8708 H       1  UNL1        0.1497
      5 N         -14.0971  -18.4512   25.8411 N.pl3   1  UNL1       -0.3375
      6 C         -13.2574  -18.4430   24.5982 C.ar    1  UNL1        0.1567
      7 N         -13.5750  -17.7174   23.3243 N.ar    1  UNL1       -0.2245
      8 C         -12.4666  -17.9850   22.3497 C.ar    1  UNL1        0.0892
      9 C         -12.2408  -17.5324   20.9376 C.ar    1  UNL1        0.0198
     10 C         -11.0123  -17.9708   20.1969 C.ar    1  UNL1        0.0061
     11 C         -10.0097  -18.8618   20.8684 C.ar    1  UNL1        0.0539
     12 C         -10.2355  -19.3143   22.2806 C.ar    1  UNL1        0.0126
     13 C         -11.4640  -18.8759   23.0212 C.ar    1  UNL1        0.0498
     14 S         -11.9527  -19.1590   24.4108 S.2     1  UNL1       -0.0520
     15 H         -14.9426  -17.9474   25.8673 H       1  UNL1        0.1442
     16 H         -13.8027  -18.9603   26.6307 H       1  UNL1        0.1442
     17 C          -6.3457  -20.2050   20.1459 C.3     1  UNL1        0.0944
     18 C          -5.0442  -20.3570   20.8757 C.3     1  UNL1        0.0492
     19 C          -4.3587  -19.1507   21.4457 C.2     1  UNL1       -0.0002
     20 C          -4.7867  -18.3865   22.6634 C.2     1  UNL1        0.0942
     21 N          -3.8174  -17.2603   22.8684 N.2     1  UNL1       -0.2482
     22 C          -2.7902  -17.3284   21.7773 C.2     1  UNL1        0.0631
     23 C          -1.5934  -16.4775   21.4708 C.3     1  UNL1        0.0717
     24 C          -0.7313  -16.7950   20.2852 C.2     1  UNL1       -0.0198
     25 C          -1.0659  -17.9634   19.4059 C.2     1  UNL1       -0.0042
     26 C          -2.2626  -18.8142   19.7124 C.2     1  UNL1        0.0006
     27 C          -3.1248  -18.4968   20.8981 C.2     1  UNL1        0.0115
@<TRIPOS>BOND
     1     5     6    1
     2     6     7   ar
     3     7     8   ar
     4     8     9   ar
     5     9    10   ar
     6    10    11   ar
     7    11     1    1
     8     1     2    2
     9     1     3   am
    10     3    17    1
    11    17    18    1
    12    18    19    1
    13    19    20    2
    14    20    21    1
    15    21    22    2
    16    22    23    1
    17    23    24    1
    18    24    25    2
    19    25    26    1
    20    26    27    2
    21    11    12   ar
    22    12    13   ar
    23    13    14   ar
    24    14     6   ar
    25    13     8   ar
    26    27    19    1
    27    27    22    1
    28     5    15    1
    29     5    16    1
    30     3     4    1
@<TRIPOS>MOLECULE
*****
 27 30 0 0 0
SMALL
GASTEIGER

@<TRIPOS>ATOM
      1 C          -5.3970  -16.3077   24.1598 C.2     1  UNL1        0.2459
      2 O          -4.9393  -15.8707   25.5198 O.2     1  UNL1       -0.2701
      3 N          -6.7850  -15.9805   23.6946 N.am    1  UNL1       -0.3005
      4 H          -7.0854  -16.2673   22.8020 H       1  UNL1        0.1497
      5 N           0.4708  -17.9346   19.2055 N.pl3   1  UNL1       -0.3375
      6 C          -0.7062  -17.9057   20.1350 C.ar    1  UNL1        0.1567
      7 N          -1.5420  -19.0849   20.5362 N.ar    1  UNL1       -0.2245
      8 C          -2.6063  -18.6005   21.4757 C.ar    1  UNL1        0.0892
      9 C          -3.7145  -19.3148   22.1910 C.ar    1  UNL1        0.0198
     10 C          -4.6447  -18.5505   23.0857 C.ar    1  UNL1        0.0061
     11 C          -4.4667  -17.0720   23.2651 C.ar    1  UNL1        0.0539
     12 C          -3.3585  -16.3577   22.5499 C.ar    1  UNL1        0.0126
     13 C          -2.4283  -17.1220   21.6552 C.ar    1  UNL1        0.0498
     14 S          -1.2540  -16.6926   20.8266 S.2     1  UNL1       -0.0520
     15 H           0.7558  -18.7844   18.7985 H       1  UNL1        0.1442
     16 H           0.9581  -17.1036   19.0025 H       1  UNL1        0.1442
     17 C          -7.7153  -15.2162   24.5894 C.3     1  UNL1        0.0944
     18 C          -9.1470  -15.6432   24.7229 C.3     1  UNL1        0.0492
     19 C          -9.5132  -17.0916   24.5886 C.2     1  UNL1       -0.0002
     20 C          -9.4545  -18.1206   25.6784 C.2     1  UNL1        0.0942
     21 N          -9.9075  -19.4303   25.1042 N.2     1  UNL1       -0.2482
     22 C         -10.2461  -19.2106   23.6595 C.2     1  UNL1        0.0631
     23 C         -10.7450  -20.1400   22.5929 C.3     1  UNL1        0.0717
     24 C         -11.0001  -19.6240   21.2078 C.2     1  UNL1       -0.0198
     25 C         -10.7564  -18.1786   20.8891 C.2     1  UNL1       -0.0042
     26 C         -10.2576  -17.2493   21.9557 C.2     1  UNL1        0.0006
     27 C         -10.0025  -17.7652   23.3409 C.2     1  UNL1        0.0115
@<TRIPOS>BOND
     1     5     6    1
     2     6     7   ar
     3     7     8   ar
     4     8     9   ar
     5     9    10   ar
     6    10    11   ar
     7    11     1    1
     8     1     2    2
     9     1     3   am
    10     3    17    1
    11    17    18    1
    12    18    19    1
    13    19    20    2
    14    20    21    1
    15    21    22    2
    16    22    23    1
    17    23    24    1
    18    24    25    2
    19    25    26    1
    20    26    27    2
    21    11    12   ar
    22    12    13   ar
    23    13    14   ar
    24    14     6   ar
    25    13     8   ar
    26    27    19    1
    27    27    22    1
    28     5    15    1
    29     5    16    1
    30     3     4    1
@<TRIPOS>MOLECULE
*****
 27 30 0 0 0
SMALL
GASTEIGER

@<TRIPOS>ATOM
      1 C          -7.0152  -16.2503   24.1029 C.2     1  UNL1        0.2459
      2 O          -6.8584  -15.8910   25.5508 O.2     1  UNL1       -0.2701
      3 N          -5.8017  -16.4648   23.2477 N.am    1  UNL1       -0.3005
      4 H          -5.9046  -16.7006   22.2974 H       1  UNL1        0.1497
      5 N         -13.0161  -15.7472   19.0671 N.pl3   1  UNL1       -0.3375
      6 C         -12.0586  -15.9801   20.1980 C.ar    1  UNL1        0.1567
      7 N         -12.3713  -16.6777   21.4886 N.ar    1  UNL1       -0.2245
      8 C         -11.1262  -16.6850   22.3251 C.ar    1  UNL1        0.0892
      9 C         -10.8381  -17.2332   23.6913 C.ar    1  UNL1        0.0198
     10 C          -9.4678  -17.0883   24.2838 C.ar    1  UNL1        0.0061
     11 C          -8.3856  -16.3952   23.5102 C.ar    1  UNL1        0.0539
     12 C          -8.6737  -15.8470   22.1441 C.ar    1  UNL1        0.0126
     13 C         -10.0440  -15.9919   21.5515 C.ar    1  UNL1        0.0498
     14 S         -10.6202  -15.5563   20.2369 S.2     1  UNL1       -0.0520
     15 H         -13.9455  -16.0648   19.1357 H       1  UNL1        0.1442
     16 H         -12.7152  -15.2769   18.2563 H       1  UNL1        0.1442
     17 C          -4.4313  -16.3199   23.8403 C.3     1  UNL1        0.0944
     18 C          -3.5441  -17.5212   23.9809 C.3     1  UNL1        0.0492
     19 C          -3.2033  -18.3469   22.7759 C.2     1  UNL1       -0.0002
     20 C          -1.8532  -18.4495   22.1305 C.2     1  UNL1        0.0942
     21 N          -1.9682  -19.3810   20.9605 N.2     1  UNL1       -0.2482
     22 C          -3.3896  -19.8541   20.8827 C.2     1  UNL1        0.0631
     23 C          -4.0875  -20.7844   19.9352 C.3     1  UNL1        0.0717
     24 C          -5.5485  -21.0755   20.1097 C.2     1  UNL1       -0.0198
     25 C          -6.3119  -20.4364   21.2317 C.2     1  UNL1       -0.0042
     26 C          -5.6140  -19.5061   22.1792 C.2     1  UNL1        0.0006
     27 C          -4.1529  -19.2150   22.0047 C.2     1  UNL1        0.0115
@<TRIPOS>BOND
     1     5     6    1
     2     6     7   ar
     3     7     8   ar
     4     8     9   ar
     5     9    10   ar
     6    10    11   ar
     7    11     1    1
     8     1     2    2
     9     1     3   am
    10     3    17    1
    11    17    18    1
    12    18    19    1
    13    19    20    2
    14    20    21    1
    15    21    22    2
    16    22    23    1
    17    23    24    1
    18    24    25    2
    19    25    26    1
    20    26    27    2
    21    11    12   ar
    22    12    13   ar
    23    13    14   ar
    24    14     6   ar
    25    13     8   ar
    26    27    19    1
    27    27    22    1
    28     5    15    1
    29     5    16    1
    30     3     4    1
@<TRIPOS>MOLECULE
*****
 27 30 0 0 0
SMALL
GASTEIGER

@<TRIPOS>ATOM
      1 C          -6.6712  -20.0764   19.9555 C.2     1  UNL1        0.2459
      2 O          -6.8869  -21.5239   19.6266 O.2     1  UNL1       -0.2701
      3 N          -7.7866  -19.0909   19.7702 N.am    1  UNL1       -0.3005
      4 H          -7.6450  -18.1408   19.9860 H       1  UNL1        0.1497
      5 N           0.6476  -17.2421   20.1160 N.pl3   1  UNL1       -0.3375
      6 C          -0.7200  -17.8032   20.3710 C.ar    1  UNL1        0.1567
      7 N          -1.2861  -18.1719   21.7102 N.ar    1  UNL1       -0.2245
      8 C          -2.6775  -18.6907   21.4984 C.ar    1  UNL1        0.0892
      9 C          -3.7149  -19.2007   22.4542 C.ar    1  UNL1        0.0198
     10 C          -5.0461  -19.6626   21.9399 C.ar    1  UNL1        0.0061
     11 C          -5.3399  -19.6145   20.4698 C.ar    1  UNL1        0.0539
     12 C          -4.3025  -19.1045   19.5139 C.ar    1  UNL1        0.0126
     13 C          -2.9713  -18.6426   20.0282 C.ar    1  UNL1        0.0498
     14 S          -1.7615  -18.0941   19.3315 S.2     1  UNL1       -0.0520
     15 H           1.2634  -17.0853   20.8680 H       1  UNL1        0.1442
     16 H           0.9294  -17.0306   19.1967 H       1  UNL1        0.1442
     17 C          -9.1179  -19.5528   19.2559 C.3     1  UNL1        0.0944
     18 C         -10.0437  -20.3192   20.1533 C.3     1  UNL1        0.0492
     19 C         -10.5592  -19.6891   21.4131 C.2     1  UNL1       -0.0002
     20 C         -10.4412  -20.2583   22.7959 C.2     1  UNL1        0.0942
     21 N         -11.0922  -19.3001   23.7488 N.2     1  UNL1       -0.2482
     22 C         -11.6126  -18.1387   22.9549 C.2     1  UNL1        0.0631
     23 C         -12.3440  -16.8931   23.3599 C.3     1  UNL1        0.0717
     24 C         -12.7458  -15.8881   22.3215 C.2     1  UNL1       -0.0198
     25 C         -12.4164  -16.1285   20.8779 C.2     1  UNL1       -0.0042
     26 C         -11.6851  -17.3740   20.4729 C.2     1  UNL1        0.0006
     27 C         -11.2832  -18.3791   21.5114 C.2     1  UNL1        0.0115
@<TRIPOS>BOND
     1     5     6    1
     2     6     7   ar
     3     7     8   ar
     4     8     9   ar
     5     9    10   ar
     6    10    11   ar
     7    11     1    1
     8     1     2    2
     9     1     3   am
    10     3    17    1
    11    17    18    1
    12    18    19    1
    13    19    20    2
    14    20    21    1
    15    21    22    2
    16    22    23    1
    17    23    24    1
    18    24    25    2
    19    25    26    1
    20    26    27    2
    21    11    12   ar
    22    12    13   ar
    23    13    14   ar
    24    14     6   ar
    25    13     8   ar
    26    27    19    1
    27    27    22    1
    28     5    15    1
    29     5    16    1
    30     3     4    1
@<TRIPOS>MOLECULE
*****
 27 30 0 0 0
SMALL
GASTEIGER

@<TRIPOS>ATOM
      1 C          -7.2257  -19.3312   21.1573 C.2     1  UNL1        0.2459
      2 O          -7.9842  -18.9089   19.9340 O.2     1  UNL1       -0.2701
      3 N          -7.9643  -19.8441   22.3578 N.am    1  UNL1       -0.3005
      4 H          -7.4665  -20.1212   23.1607 H       1  UNL1        0.1497
      5 N           0.1620  -17.9429   18.8952 N.pl3   1  UNL1       -0.3375
      6 C          -1.1284  -18.2974   19.5729 C.ar    1  UNL1        0.1567
      7 N          -1.2727  -18.8557   20.9576 N.ar    1  UNL1       -0.2245
      8 C          -2.7345  -19.0591   21.2254 C.ar    1  UNL1        0.0892
      9 C          -3.4724  -19.5824   22.4219 C.ar    1  UNL1        0.0198
     10 C          -4.9694  -19.6731   22.3992 C.ar    1  UNL1        0.0061
     11 C          -5.7286  -19.2405   21.1799 C.ar    1  UNL1        0.0539
     12 C          -4.9907  -18.7172   19.9834 C.ar    1  UNL1        0.0126
     13 C          -3.4937  -18.6265   20.0062 C.ar    1  UNL1        0.0498
     14 S          -2.5010  -18.1557   18.9849 S.2     1  UNL1       -0.0520
     15 H           1.0170  -18.0724   19.3658 H       1  UNL1        0.1442
     16 H           0.1539  -17.5807   17.9798 H       1  UNL1        0.1442
     17 C          -9.4615  -19.9347   22.3352 C.3     1  UNL1        0.0944
     18 C         -10.2909  -18.7381   22.6957 C.3     1  UNL1        0.0492
     19 C          -9.6247  -17.4727   23.1484 C.2     1  UNL1       -0.0002
     20 C          -9.2324  -16.3204   22.2719 C.2     1  UNL1        0.0942
     21 N          -8.5991  -15.2730   23.1389 N.2     1  UNL1       -0.2482
     22 C          -8.5999  -15.7780   24.5514 C.2     1  UNL1        0.0631
     23 C          -8.1054  -15.1755   25.8330 C.3     1  UNL1        0.0717
     24 C          -8.2447  -15.9324   27.1204 C.2     1  UNL1       -0.0198
     25 C          -8.8785  -17.2920   27.1264 C.2     1  UNL1       -0.0042
     26 C          -9.3731  -17.8944   25.8448 C.2     1  UNL1        0.0006
     27 C          -9.2338  -17.1375   24.5572 C.2     1  UNL1        0.0115
@<TRIPOS>BOND
     1     5     6    1
     2     6     7   ar
     3     7     8   ar
     4     8     9   ar
     5     9    10   ar
     6    10    11   ar
     7    11     1    1
     8     1     2    2
     9     1     3   am
    10     3    17    1
    11    17    18    1
    12    18    19    1
    13    19    20    2
    14    20    21    1
    15    21    22    2
    16    22    23    1
    17    23    24    1
    18    24    25    2
    19    25    26    1
    20    26    27    2
    21    11    12   ar
    22    12    13   ar
    23    13    14   ar
    24    14     6   ar
    25    13     8   ar
    26    27    19    1
    27    27    22    1
    28     5    15    1
    29     5    16    1
    30     3     4    1
@<TRIPOS>MOLECULE
*****
 27 30 0 0 0
SMALL
GASTEIGER

@<TRIPOS>ATOM
      1 C          -7.7535  -19.7181   20.5277 C.2     1  UNL1        0.2459
      2 O          -7.9665  -19.0460   19.2037 O.2     1  UNL1       -0.2701
      3 N          -6.5370  -20.5667   20.7509 N.am    1  UNL1       -0.3005
      4 H          -6.3973  -21.0078   21.6199 H       1  UNL1        0.1497
      5 N         -14.3357  -17.7520   24.3266 N.pl3   1  UNL1       -0.3375
      6 C         -12.9921  -18.2257   23.8574 C.ar    1  UNL1        0.1567
      7 N         -11.9432  -18.8822   24.7053 N.ar    1  UNL1       -0.2245
      8 C         -10.7642  -19.1883   23.8299 C.ar    1  UNL1        0.0892
      9 C          -9.4405  -19.8322   24.1181 C.ar    1  UNL1        0.0198
     10 C          -8.4369  -20.0088   23.0174 C.ar    1  UNL1        0.0061
     11 C          -8.7571  -19.5415   21.6284 C.ar    1  UNL1        0.0539
     12 C         -10.0809  -18.8976   21.3403 C.ar    1  UNL1        0.0126
     13 C         -11.0844  -18.7210   22.4410 C.ar    1  UNL1        0.0498
     14 S         -12.4613  -18.1261   22.4580 S.2     1  UNL1       -0.0520
     15 H         -14.5947  -17.8622   25.2700 H       1  UNL1        0.1442
     16 H         -14.9587  -17.3309   23.6911 H       1  UNL1        0.1442
     17 C          -5.5334  -20.7433   19.6501 C.3     1  UNL1        0.0944
     18 C          -4.0681  -20.7751   19.9692 C.3     1  UNL1        0.0492
     19 C          -3.3080  -19.4923   20.1321 C.2     1  UNL1       -0.0002
     20 C          -2.2822  -18.9486   19.1823 C.2     1  UNL1        0.0942
     21 N          -1.7805  -17.6482   19.7365 N.2     1  UNL1       -0.2482
     22 C          -2.4962  -17.3882   21.0289 C.2     1  UNL1        0.0631
     23 C          -2.4103  -16.2609   22.0148 C.3     1  UNL1        0.0717
     24 C          -3.2684  -16.2733   23.2449 C.2     1  UNL1       -0.0198
     25 C          -4.2125  -17.4131   23.4894 C.2     1  UNL1       -0.0042
     26 C          -4.2984  -18.5404   22.5036 C.2     1  UNL1        0.0006
     27 C          -3.4403  -18.5280   21.2733 C.2     1  UNL1        0.0115
@<TRIPOS>BOND
     1     5     6    1
     2     6     7   ar
     3     7     8   ar
     4     8     9   ar
     5     9    10   ar
     6    10    11   ar
     7    11     1    1
     8     1     2    2
     9     1     3   am
    10     3    17    1
    11    17    18    1
    12    18    19    1
    13    19    20    2
    14    20    21    1
    15    21    22    2
    16    22    23    1
    17    23    24    1
    18    24    25    2
    19    25    26    1
    20    26    27    2
    21    11    12   ar
    22    12    13   ar
    23    13    14   ar
    24    14     6   ar
    25    13     8   ar
    26    27    19    1
    27    27    22    1
    28     5    15    1
    29     5    16    1
    30     3     4    1
@<TRIPOS>MOLECULE
*****
 27 30 0 0 0
SMALL
GASTEIGER

@<TRIPOS>ATOM
      1 C          -6.5345  -18.5653   21.0348 C.2     1  UNL1        0.2459
      2 O          -5.6042  -18.7155   19.8677 O.2     1  UNL1       -0.2701
      3 N          -7.9376  -19.0884   20.9477 N.am    1  UNL1       -0.3005
      4 H          -8.5481  -18.9898   21.7137 H       1  UNL1        0.1497
      5 N          -6.5477  -14.3281   27.6430 N.pl3   1  UNL1       -0.3375
      6 C          -6.2660  -15.1770   26.4389 C.ar    1  UNL1        0.1567
      7 N          -4.9404  -15.7762   26.0731 N.ar    1  UNL1       -0.2245
      8 C          -5.1155  -16.5454   24.7973 C.ar    1  UNL1        0.0892
      9 C          -4.1546  -17.3425   23.9659 C.ar    1  UNL1        0.0198
     10 C          -4.6276  -18.0157   22.7117 C.ar    1  UNL1        0.0061
     11 C          -6.0615  -17.8919   22.2890 C.ar    1  UNL1        0.0539
     12 C          -7.0224  -17.0949   23.1204 C.ar    1  UNL1        0.0126
     13 C          -6.5494  -16.4216   24.3745 C.ar    1  UNL1        0.0498
     14 S          -7.2604  -15.5759   25.3891 S.2     1  UNL1       -0.0520
     15 H          -5.8251  -14.1198   28.2785 H       1  UNL1        0.1442
     16 H          -7.4551  -13.9791   27.7979 H       1  UNL1        0.1442
     17 C          -8.4105  -19.7617   19.6935 C.3     1  UNL1        0.0944
     18 C          -9.8634  -19.7215   19.3227 C.3     1  UNL1        0.0492
     19 C         -10.7936  -18.7853   20.0356 C.2     1  UNL1       -0.0002
     20 C         -11.4840  -17.5985   19.4315 C.2     1  UNL1        0.0942
     21 N         -12.3139  -16.9513   20.5003 N.2     1  UNL1       -0.2482
     22 C         -12.1364  -17.7382   21.7651 C.2     1  UNL1        0.0631
     23 C         -12.7089  -17.5689   23.1412 C.3     1  UNL1        0.0717
     24 C         -12.3419  -18.5331   24.2300 C.2     1  UNL1       -0.0198
     25 C         -11.4023  -19.6666   23.9428 C.2     1  UNL1       -0.0042
     26 C         -10.8298  -19.8358   22.5667 C.2     1  UNL1        0.0006
     27 C         -11.1968  -18.8716   21.4778 C.2     1  UNL1        0.0115
@<TRIPOS>BOND
     1     5     6    1
     2     6     7   ar
     3     7     8   ar
     4     8     9   ar
     5     9    10   ar
     6    10    11   ar
     7    11     1    1
     8     1     2    2
     9     1     3   am
    10     3    17    1
    11    17    18    1
    12    18    19    1
    13    19    20    2
    14    20    21    1
    15    21    22    2
    16    22    23    1
    17    23    24    1
    18    24    25    2
    19    25    26    1
    20    26    27    2
    21    11    12   ar
    22    12    13   ar
    23    13    14   ar
    24    14     6   ar
    25    13     8   ar
    26    27    19    1
    27    27    22    1
    28     5    15    1
    29     5    16    1
    30     3     4    1
