@<TRIPOS>MOLECULE
*****
 34 37 0 0 0
SMALL
GASTEIGER

@<TRIPOS>ATOM
      1 C          -6.9489    5.0740   24.2044 C.2     1  UNL1        0.4091
      2 O          -6.6462    5.5023   25.6097 O.2     1  UNL1       -0.2258
      3 N          -5.8558    4.5265   23.3353 N.am    1  UNL1       -0.2179
      4 C          -6.1585    4.0983   21.9300 C.2     1  UNL1        0.0727
      5 C          -5.0655    3.5508   21.0608 C.2     1  UNL1        0.0367
      6 C          -3.6697    3.4315   21.5970 C.ar    1  UNL1        0.0993
      7 N          -2.5766    2.8840   20.7278 N.ar    1  UNL1       -0.2265
      8 C          -1.1808    2.7647   21.2640 C.ar    1  UNL1        0.1633
      9 C          -0.8781    3.1929   22.6694 C.ar    1  UNL1        0.1600
     10 N          -1.9711    3.7404   23.5385 N.ar    1  UNL1       -0.2291
     11 C          -3.3670    3.8597   23.0023 C.ar    1  UNL1        0.0986
     12 C          -4.4600    4.4072   23.8715 C.3     1  UNL1        0.1488
     13 N          -0.0878    2.2171   20.3949 N.pl3   1  UNL1       -0.2908
     14 C           0.1568    0.7382   20.3397 C.3     1  UNL1        0.0960
     15 C           1.2498    0.1907   19.4705 C.3     1  UNL1        0.0650
     16 C           2.0984    1.1221   18.6566 C.3     1  UNL1        0.1694
     17 C           1.8538    2.6010   18.7118 C.3     1  UNL1        0.0650
     18 C           0.7607    3.1485   19.5809 C.3     1  UNL1        0.0960
     19 O           3.1914    0.5746   17.7874 O.3     1  UNL1       -0.4768
     20 C           4.1508   -0.4387   18.3379 C.ar    1  UNL1        0.1657
     21 C           4.2912   -1.7766   17.6744 C.ar    1  UNL1        0.0415
     22 C           5.2506   -2.7898   18.2249 C.ar    1  UNL1        0.0329
     23 C           6.0696   -2.4651   19.4389 C.ar    1  UNL1        0.1426
     24 F           7.0289   -3.4783   19.9894 F       1  UNL1       -0.2041
     25 C           5.9292   -1.1271   20.1024 C.ar    1  UNL1        0.0624
     26 C           4.9699   -0.1139   19.5519 C.ar    1  UNL1        0.1760
     27 F           4.8295    1.2241   20.2154 F       1  UNL1       -0.2009
     28 C          -9.4876    5.4557   24.6037 C.3     1  UNL1        0.2574
     29 O          -8.3447    5.1934   23.6683 O.3     1  UNL1       -0.4302
     30 N           0.5177    3.0736   23.2056 N.pl3   1  UNL1       -0.3175
     31 H           1.1400    3.8329   23.1318 H       1  UNL1        0.1482
     32 C           0.9655    1.7973   23.8542 C.3     1  UNL1        0.0706
     33 C           0.2010    1.2388   25.0176 C.3     1  UNL1        0.0212
     34 C           2.1778    1.0794   23.3393 C.3     1  UNL1        0.0212
@<TRIPOS>BOND
     1    28    29    1
     2    29     1    1
     3     1     2    2
     4     1     3   am
     5     3     4    1
     6     4     5    2
     7     5     6    1
     8     6     7   ar
     9     7     8   ar
    10     8    13    1
    11    13    14    1
    12    14    15    1
    13    15    16    1
    14    16    19    1
    15    19    20    1
    16    20    21   ar
    17    21    22   ar
    18    22    23   ar
    19    23    24    1
    20    23    25   ar
    21    25    26   ar
    22    26    27    1
    23    16    17    1
    24    17    18    1
    25     8     9   ar
    26     9    30    1
    27    30    32    1
    28    32    33    1
    29    32    34    1
    30     9    10   ar
    31    10    11   ar
    32    11    12    1
    33    12     3    1
    34    11     6   ar
    35    18    13    1
    36    26    20   ar
    37    30    31    1
@<TRIPOS>MOLECULE
*****
 34 37 0 0 0
SMALL
GASTEIGER

@<TRIPOS>ATOM
      1 C           4.6482   -2.4429   18.8458 C.2     1  UNL1        0.4091
      2 O           5.5424   -3.1650   17.8821 O.2     1  UNL1       -0.2258
      3 N           4.8654   -2.5874   20.3230 N.am    1  UNL1       -0.2179
      4 C           3.9711   -1.8653   21.2867 C.2     1  UNL1        0.0727
      5 C           4.1884   -2.0098   22.7639 C.2     1  UNL1        0.0367
      6 C           5.2999   -2.8764   23.2773 C.ar    1  UNL1        0.0993
      7 N           5.5171   -3.0208   24.7544 N.ar    1  UNL1       -0.2265
      8 C           6.6286   -3.8874   25.2678 C.ar    1  UNL1        0.1633
      9 C           7.5229   -4.6095   24.3040 C.ar    1  UNL1        0.1600
     10 N           7.3057   -4.4650   22.8269 N.ar    1  UNL1       -0.2291
     11 C           6.1941   -3.5984   22.3135 C.ar    1  UNL1        0.0986
     12 C           5.9769   -3.4540   20.8364 C.3     1  UNL1        0.1488
     13 N           6.8458   -4.0319   26.7449 N.pl3   1  UNL1       -0.2908
     14 C           7.5678   -2.9591   27.5053 C.3     1  UNL1        0.0960
     15 C           7.7850   -3.1036   28.9824 C.3     1  UNL1        0.0650
     16 C           7.2803   -4.3208   29.6992 C.3     1  UNL1        0.1694
     17 C           6.5583   -5.3935   28.9389 C.3     1  UNL1        0.0650
     18 C           6.3411   -5.2490   27.4617 C.3     1  UNL1        0.0960
     19 O           7.4975   -4.4653   31.1764 O.3     1  UNL1       -0.4768
     20 C           7.6816   -3.2458   32.0302 C.ar    1  UNL1        0.1657
     21 C           9.0567   -2.8389   32.4702 C.ar    1  UNL1        0.0415
     22 C           9.2408   -1.6194   33.3240 C.ar    1  UNL1        0.0329
     23 C           8.0498   -0.8067   33.7377 C.ar    1  UNL1        0.1426
     24 F           8.2339    0.4127   34.5915 F       1  UNL1       -0.2041
     25 C           6.6747   -1.2136   33.2976 C.ar    1  UNL1        0.0624
     26 C           6.4906   -2.4331   32.4439 C.ar    1  UNL1        0.1760
     27 F           5.1155   -2.8400   32.0038 F       1  UNL1       -0.2009
     28 C           3.7404   -0.7477   17.0988 C.3     1  UNL1        0.2574
     29 O           3.5367   -1.5764   18.3325 O.3     1  UNL1       -0.4302
     30 N           8.6344   -5.4761   24.8174 N.pl3   1  UNL1       -0.3175
     31 H           9.4000   -5.0696   25.2843 H       1  UNL1        0.1482
     32 C           8.5795   -6.9620   24.6195 C.3     1  UNL1        0.0706
     33 C           9.1422   -7.5736   23.3708 C.3     1  UNL1        0.0212
     34 C           7.9620   -7.8363   25.6703 C.3     1  UNL1        0.0212
@<TRIPOS>BOND
     1    28    29    1
     2    29     1    1
     3     1     2    2
     4     1     3   am
     5     3     4    1
     6     4     5    2
     7     5     6    1
     8     6     7   ar
     9     7     8   ar
    10     8    13    1
    11    13    14    1
    12    14    15    1
    13    15    16    1
    14    16    19    1
    15    19    20    1
    16    20    21   ar
    17    21    22   ar
    18    22    23   ar
    19    23    24    1
    20    23    25   ar
    21    25    26   ar
    22    26    27    1
    23    16    17    1
    24    17    18    1
    25     8     9   ar
    26     9    30    1
    27    30    32    1
    28    32    33    1
    29    32    34    1
    30     9    10   ar
    31    10    11   ar
    32    11    12    1
    33    12     3    1
    34    11     6   ar
    35    18    13    1
    36    26    20   ar
    37    30    31    1
@<TRIPOS>MOLECULE
*****
 34 37 0 0 0
SMALL
GASTEIGER

@<TRIPOS>ATOM
      1 C           2.0546    2.9541   37.6663 C.2     1  UNL1        0.4091
      2 O           1.2636    3.9926   36.9275 O.2     1  UNL1       -0.2258
      3 N           2.9452    2.0122   36.9116 N.am    1  UNL1       -0.2179
      4 C           3.7361    0.9737   37.6504 C.2     1  UNL1        0.0727
      5 C           4.6267    0.0318   36.8956 C.2     1  UNL1        0.0367
      6 C           4.7264    0.1283   35.4021 C.ar    1  UNL1        0.0993
      7 N           5.6170   -0.8136   34.6474 N.ar    1  UNL1       -0.2265
      8 C           5.7166   -0.7170   33.1538 C.ar    1  UNL1        0.1633
      9 C           4.9256    0.3215   32.4149 C.ar    1  UNL1        0.1600
     10 N           4.0350    1.2634   33.1697 N.ar    1  UNL1       -0.2291
     11 C           3.9354    1.1668   34.6633 C.ar    1  UNL1        0.0986
     12 C           3.0448    2.1087   35.4180 C.3     1  UNL1        0.1488
     13 N           6.6072   -1.6590   32.3991 N.pl3   1  UNL1       -0.2908
     14 C           6.1133   -3.0273   32.0334 C.3     1  UNL1        0.0960
     15 C           7.0039   -3.9693   31.2787 C.3     1  UNL1        0.0650
     16 C           8.3884   -3.5428   30.8896 C.3     1  UNL1        0.1694
     17 C           8.8823   -2.1745   31.2553 C.3     1  UNL1        0.0650
     18 C           7.9917   -1.2325   32.0100 C.3     1  UNL1        0.0960
     19 O           9.2790   -4.4847   30.1349 O.3     1  UNL1       -0.4768
     20 C           8.7065   -5.3567   29.0570 C.ar    1  UNL1        0.1657
     21 C           8.8699   -6.8459   29.1312 C.ar    1  UNL1        0.0415
     22 C           8.2973   -7.7179   28.0532 C.ar    1  UNL1        0.0329
     23 C           7.5614   -7.1007   26.9011 C.ar    1  UNL1        0.1426
     24 F           6.9888   -7.9726   25.8233 F       1  UNL1       -0.2041
     25 C           7.3979   -5.6114   26.8270 C.ar    1  UNL1        0.0624
     26 C           7.9705   -4.7395   27.9049 C.ar    1  UNL1        0.1760
     27 F           7.8071   -3.2502   27.8307 F       1  UNL1       -0.2009
     28 C           0.8303    2.0892   39.7884 C.3     1  UNL1        0.2574
     29 O           1.9549    2.8575   39.1598 O.3     1  UNL1       -0.4302
     30 N           5.0252    0.4181   30.9214 N.pl3   1  UNL1       -0.3175
     31 H           5.6516    1.0567   30.5101 H       1  UNL1        0.1482
     32 C           4.1706   -0.4584   30.0545 C.3     1  UNL1        0.0706
     33 C           2.6961   -0.5581   30.3112 C.3     1  UNL1        0.0212
     34 C           4.7905   -1.2350   28.9308 C.3     1  UNL1        0.0212
@<TRIPOS>BOND
     1    28    29    1
     2    29     1    1
     3     1     2    2
     4     1     3   am
     5     3     4    1
     6     4     5    2
     7     5     6    1
     8     6     7   ar
     9     7     8   ar
    10     8    13    1
    11    13    14    1
    12    14    15    1
    13    15    16    1
    14    16    19    1
    15    19    20    1
    16    20    21   ar
    17    21    22   ar
    18    22    23   ar
    19    23    24    1
    20    23    25   ar
    21    25    26   ar
    22    26    27    1
    23    16    17    1
    24    17    18    1
    25     8     9   ar
    26     9    30    1
    27    30    32    1
    28    32    33    1
    29    32    34    1
    30     9    10   ar
    31    10    11   ar
    32    11    12    1
    33    12     3    1
    34    11     6   ar
    35    18    13    1
    36    26    20   ar
    37    30    31    1
@<TRIPOS>MOLECULE
*****
 34 37 0 0 0
SMALL
GASTEIGER

@<TRIPOS>ATOM
      1 C           5.4160   -0.4527   34.7210 C.2     1  UNL1        0.4091
      2 O           4.2491   -0.8946   35.5535 O.2     1  UNL1       -0.2258
      3 N           5.2542   -0.2667   33.2414 N.am    1  UNL1       -0.2179
      4 C           6.4211    0.1752   32.4090 C.2     1  UNL1        0.0727
      5 C           6.2593    0.3611   30.9294 C.2     1  UNL1        0.0367
      6 C           4.9305    0.1052   30.2822 C.ar    1  UNL1        0.0993
      7 N           4.7687    0.2912   28.8026 N.ar    1  UNL1       -0.2265
      8 C           3.4399    0.0353   28.1554 C.ar    1  UNL1        0.1633
      9 C           2.2729   -0.4066   28.9879 C.ar    1  UNL1        0.1600
     10 N           2.4348   -0.5926   30.4675 N.ar    1  UNL1       -0.2291
     11 C           3.7636   -0.3367   31.1147 C.ar    1  UNL1        0.0986
     12 C           3.9254   -0.5227   32.5943 C.3     1  UNL1        0.1488
     13 N           3.2781    0.2213   26.6758 N.pl3   1  UNL1       -0.2908
     14 C           3.5201   -0.9294   25.7444 C.3     1  UNL1        0.0960
     15 C           3.3583   -0.7434   24.2648 C.3     1  UNL1        0.0650
     16 C           2.9544    0.5932   23.7166 C.3     1  UNL1        0.1694
     17 C           2.7125    1.7438   24.6481 C.3     1  UNL1        0.0650
     18 C           2.8743    1.5578   26.1277 C.3     1  UNL1        0.0960
     19 O           2.7926    0.7792   22.2370 O.3     1  UNL1       -0.4768
     20 C           3.4538   -0.1727   21.2847 C.ar    1  UNL1        0.1657
     21 C           4.9473   -0.1773   21.1449 C.ar    1  UNL1        0.0415
     22 C           5.6085   -1.1291   20.1926 C.ar    1  UNL1        0.0329
     23 C           4.7762   -2.0764   19.3802 C.ar    1  UNL1        0.1426
     24 F           5.4374   -3.0282   18.4279 F       1  UNL1       -0.2041
     25 C           3.2827   -2.0717   19.5200 C.ar    1  UNL1        0.0624
     26 C           2.6216   -1.1199   20.4723 C.ar    1  UNL1        0.1760
     27 F           1.1280   -1.1152   20.6121 F       1  UNL1       -0.2009
     28 C           6.8137    0.5364   36.6750 C.3     1  UNL1        0.2574
     29 O           6.7448   -0.1968   35.3682 O.3     1  UNL1       -0.4302
     30 N           0.9442   -0.6626   28.3407 N.pl3   1  UNL1       -0.3175
     31 H           0.8291   -1.4353   27.7417 H       1  UNL1        0.1482
     32 C          -0.2093    0.2589   28.6062 C.3     1  UNL1        0.0706
     33 C          -0.0468    1.7379   28.4164 C.3     1  UNL1        0.0212
     34 C          -1.5252   -0.2987   29.0616 C.3     1  UNL1        0.0212
@<TRIPOS>BOND
     1    28    29    1
     2    29     1    1
     3     1     2    2
     4     1     3   am
     5     3     4    1
     6     4     5    2
     7     5     6    1
     8     6     7   ar
     9     7     8   ar
    10     8    13    1
    11    13    14    1
    12    14    15    1
    13    15    16    1
    14    16    19    1
    15    19    20    1
    16    20    21   ar
    17    21    22   ar
    18    22    23   ar
    19    23    24    1
    20    23    25   ar
    21    25    26   ar
    22    26    27    1
    23    16    17    1
    24    17    18    1
    25     8     9   ar
    26     9    30    1
    27    30    32    1
    28    32    33    1
    29    32    34    1
    30     9    10   ar
    31    10    11   ar
    32    11    12    1
    33    12     3    1
    34    11     6   ar
    35    18    13    1
    36    26    20   ar
    37    30    31    1
@<TRIPOS>MOLECULE
*****
 34 37 0 0 0
SMALL
GASTEIGER

@<TRIPOS>ATOM
      1 C          -2.0368    3.4552   21.0520 C.2     1  UNL1        0.4091
      2 O          -2.6757    3.2727   19.7072 O.2     1  UNL1       -0.2258
      3 N          -0.8432    2.6307   21.4333 N.am    1  UNL1       -0.2179
      4 C          -0.2042    2.8133   22.7781 C.2     1  UNL1        0.0727
      5 C           0.9894    1.9888   23.1595 C.2     1  UNL1        0.0367
      6 C           1.5441    0.9817   22.1961 C.ar    1  UNL1        0.0993
      7 N           2.7377    0.1572   22.5775 N.ar    1  UNL1       -0.2265
      8 C           3.2924   -0.8499   21.6141 C.ar    1  UNL1        0.1633
      9 C           2.6534   -1.0325   20.2693 C.ar    1  UNL1        0.1600
     10 N           1.4598   -0.2080   19.8879 N.ar    1  UNL1       -0.2291
     11 C           0.9051    0.7992   20.8514 C.ar    1  UNL1        0.0986
     12 C          -0.2885    1.6237   20.4700 C.3     1  UNL1        0.1488
     13 N           4.4860   -1.6744   21.9955 N.pl3   1  UNL1       -0.2908
     14 C           4.3121   -3.1154   22.3743 C.3     1  UNL1        0.0960
     15 C           5.5057   -3.9399   22.7557 C.3     1  UNL1        0.0650
     16 C           6.8732   -3.3234   22.7583 C.3     1  UNL1        0.1694
     17 C           7.0471   -1.8825   22.3795 C.3     1  UNL1        0.0650
     18 C           5.8534   -1.0580   21.9982 C.3     1  UNL1        0.0960
     19 O           8.0669   -4.1479   23.1397 O.3     1  UNL1       -0.4768
     20 C           7.9198   -5.2696   24.1247 C.ar    1  UNL1        0.1657
     21 C           7.3563   -5.0010   25.4886 C.ar    1  UNL1        0.0415
     22 C           7.2092   -6.1227   26.4736 C.ar    1  UNL1        0.0329
     23 C           7.6257   -7.5130   26.0947 C.ar    1  UNL1        0.1426
     24 F           7.4787   -8.6346   27.0797 F       1  UNL1       -0.2041
     25 C           8.1893   -7.7816   24.7307 C.ar    1  UNL1        0.0624
     26 C           8.3363   -6.6599   23.7458 C.ar    1  UNL1        0.1760
     27 F           8.8999   -6.9285   22.3818 F       1  UNL1       -0.2009
     28 C          -3.7531    4.1004   22.8926 C.3     1  UNL1        0.2574
     29 O          -2.5914    4.4623   22.0153 O.3     1  UNL1       -0.4302
     30 N           3.2081   -2.0396   19.3060 N.pl3   1  UNL1       -0.3175
     31 H           2.8924   -2.9717   19.3322 H       1  UNL1        0.1482
     32 C           4.2438   -1.6264   18.3026 C.3     1  UNL1        0.0706
     33 C           3.8722   -0.7091   17.1755 C.3     1  UNL1        0.0212
     34 C           5.6510   -2.1307   18.4264 C.3     1  UNL1        0.0212
@<TRIPOS>BOND
     1    28    29    1
     2    29     1    1
     3     1     2    2
     4     1     3   am
     5     3     4    1
     6     4     5    2
     7     5     6    1
     8     6     7   ar
     9     7     8   ar
    10     8    13    1
    11    13    14    1
    12    14    15    1
    13    15    16    1
    14    16    19    1
    15    19    20    1
    16    20    21   ar
    17    21    22   ar
    18    22    23   ar
    19    23    24    1
    20    23    25   ar
    21    25    26   ar
    22    26    27    1
    23    16    17    1
    24    17    18    1
    25     8     9   ar
    26     9    30    1
    27    30    32    1
    28    32    33    1
    29    32    34    1
    30     9    10   ar
    31    10    11   ar
    32    11    12    1
    33    12     3    1
    34    11     6   ar
    35    18    13    1
    36    26    20   ar
    37    30    31    1
@<TRIPOS>MOLECULE
*****
 34 37 0 0 0
SMALL
GASTEIGER

@<TRIPOS>ATOM
      1 C           3.5828   -0.9434   18.3648 C.2     1  UNL1        0.4091
      2 O           4.0640   -0.5830   16.9906 O.2     1  UNL1       -0.2258
      3 N           2.4477   -0.1839   18.9852 N.am    1  UNL1       -0.2179
      4 C           1.9665   -0.5443   20.3594 C.2     1  UNL1        0.0727
      5 C           0.8315    0.2153   20.9797 C.2     1  UNL1        0.0367
      6 C           0.1777    1.3352   20.2259 C.ar    1  UNL1        0.0993
      7 N          -0.9573    2.0947   20.8463 N.ar    1  UNL1       -0.2265
      8 C          -1.6110    3.2147   20.0925 C.ar    1  UNL1        0.1633
      9 C          -1.1297    3.5752   18.7182 C.ar    1  UNL1        0.1600
     10 N           0.0053    2.8157   18.0979 N.ar    1  UNL1       -0.2291
     11 C           0.6590    1.6956   18.8518 C.ar    1  UNL1        0.0986
     12 C           1.7940    0.9361   18.2314 C.3     1  UNL1        0.1488
     13 N          -2.7460    3.9742   20.7129 N.pl3   1  UNL1       -0.2908
     14 C          -4.0825    3.3158   20.8873 C.3     1  UNL1        0.0960
     15 C          -5.2175    4.0753   21.5076 C.3     1  UNL1        0.0650
     16 C          -5.0160    5.4933   21.9536 C.3     1  UNL1        0.1694
     17 C          -3.6796    6.1517   21.7792 C.3     1  UNL1        0.0650
     18 C          -2.5446    5.3921   21.1589 C.3     1  UNL1        0.0960
     19 O          -6.1511    6.2528   22.5740 O.3     1  UNL1       -0.4768
     20 C          -6.3989    6.1578   24.0504 C.ar    1  UNL1        0.1657
     21 C          -5.3343    5.6135   24.9561 C.ar    1  UNL1        0.0415
     22 C          -5.5821    5.5184   26.4324 C.ar    1  UNL1        0.0329
     23 C          -6.8946    5.9677   27.0031 C.ar    1  UNL1        0.1426
     24 F          -7.1425    5.8726   28.4793 F       1  UNL1       -0.2041
     25 C          -7.9592    6.5120   26.0973 C.ar    1  UNL1        0.0624
     26 C          -7.7113    6.6071   24.6210 C.ar    1  UNL1        0.1760
     27 F          -8.7760    7.1514   23.7152 F       1  UNL1       -0.2009
     28 C           3.9207   -3.4875   18.7691 C.3     1  UNL1        0.2574
     29 O           4.2365   -2.0633   19.1186 O.3     1  UNL1       -0.4302
     30 N          -1.7835    4.6951   17.9644 N.pl3   1  UNL1       -0.3175
     31 H          -1.3800    5.5932   17.9693 H       1  UNL1        0.1482
     32 C          -3.0520    4.4469   17.2033 C.3     1  UNL1        0.0706
     33 C          -3.0359    3.5752   15.9827 C.3     1  UNL1        0.0212
     34 C          -4.3366    5.0703   17.6628 C.3     1  UNL1        0.0212
@<TRIPOS>BOND
     1    28    29    1
     2    29     1    1
     3     1     2    2
     4     1     3   am
     5     3     4    1
     6     4     5    2
     7     5     6    1
     8     6     7   ar
     9     7     8   ar
    10     8    13    1
    11    13    14    1
    12    14    15    1
    13    15    16    1
    14    16    19    1
    15    19    20    1
    16    20    21   ar
    17    21    22   ar
    18    22    23   ar
    19    23    24    1
    20    23    25   ar
    21    25    26   ar
    22    26    27    1
    23    16    17    1
    24    17    18    1
    25     8     9   ar
    26     9    30    1
    27    30    32    1
    28    32    33    1
    29    32    34    1
    30     9    10   ar
    31    10    11   ar
    32    11    12    1
    33    12     3    1
    34    11     6   ar
    35    18    13    1
    36    26    20   ar
    37    30    31    1
@<TRIPOS>MOLECULE
*****
 34 37 0 0 0
SMALL
GASTEIGER

@<TRIPOS>ATOM
      1 C          -5.7965    5.8651   26.5884 C.2     1  UNL1        0.4091
      2 O          -6.2315    5.4684   27.9680 O.2     1  UNL1       -0.2258
      3 N          -4.5818    5.2344   25.9746 N.am    1  UNL1       -0.2179
      4 C          -4.1468    5.6311   24.5950 C.2     1  UNL1        0.0727
      5 C          -2.9321    5.0004   23.9812 C.2     1  UNL1        0.0367
      6 C          -2.1524    3.9729   24.7470 C.ar    1  UNL1        0.0993
      7 N          -0.9378    3.3422   24.1332 N.ar    1  UNL1       -0.2265
      8 C          -0.1581    2.3148   24.8990 C.ar    1  UNL1        0.1633
      9 C          -0.5931    1.9180   26.2787 C.ar    1  UNL1        0.1600
     10 N          -1.8078    2.5487   26.8925 N.ar    1  UNL1       -0.2291
     11 C          -2.5875    3.5762   26.1266 C.ar    1  UNL1        0.0986
     12 C          -3.8021    4.2069   26.7404 C.3     1  UNL1        0.1488
     13 N           1.0566    1.6841   24.2852 N.pl3   1  UNL1       -0.2908
     14 C           0.9047    0.6984   23.1647 C.3     1  UNL1        0.0960
     15 C           2.1194    0.0676   22.5509 C.3     1  UNL1        0.0650
     16 C           3.4859    0.4226   23.0576 C.3     1  UNL1        0.1694
     17 C           3.6377    1.4082   24.1780 C.3     1  UNL1        0.0650
     18 C           2.4230    2.0390   24.7918 C.3     1  UNL1        0.0960
     19 O           4.7006   -0.2081   22.4438 O.3     1  UNL1       -0.4768
     20 C           4.5485   -1.3520   21.4854 C.ar    1  UNL1        0.1657
     21 C           4.5022   -1.0922   20.0088 C.ar    1  UNL1        0.0415
     22 C           4.3501   -2.2361   19.0504 C.ar    1  UNL1        0.0329
     23 C           4.2443   -3.6398   19.5687 C.ar    1  UNL1        0.1426
     24 F           4.0922   -4.7836   18.6104 F       1  UNL1       -0.2041
     25 C           4.2906   -3.8995   21.0453 C.ar    1  UNL1        0.0624
     26 C           4.4427   -2.7556   22.0037 C.ar    1  UNL1        0.1760
     27 F           4.4890   -3.0154   23.4803 F       1  UNL1       -0.2009
     28 C          -8.0753    6.8430   25.8134 C.3     1  UNL1        0.2574
     29 O          -6.5761    6.8925   25.8226 O.3     1  UNL1       -0.4302
     30 N           0.1865    0.8906   27.0445 N.pl3   1  UNL1       -0.3175
     31 H           0.9702    0.4598   26.6328 H       1  UNL1        0.1482
     32 C          -0.2279    0.5195   28.4376 C.3     1  UNL1        0.0706
     33 C           0.3830    1.2217   29.6139 C.3     1  UNL1        0.0212
     34 C          -1.2531   -0.5538   28.6543 C.3     1  UNL1        0.0212
@<TRIPOS>BOND
     1    28    29    1
     2    29     1    1
     3     1     2    2
     4     1     3   am
     5     3     4    1
     6     4     5    2
     7     5     6    1
     8     6     7   ar
     9     7     8   ar
    10     8    13    1
    11    13    14    1
    12    14    15    1
    13    15    16    1
    14    16    19    1
    15    19    20    1
    16    20    21   ar
    17    21    22   ar
    18    22    23   ar
    19    23    24    1
    20    23    25   ar
    21    25    26   ar
    22    26    27    1
    23    16    17    1
    24    17    18    1
    25     8     9   ar
    26     9    30    1
    27    30    32    1
    28    32    33    1
    29    32    34    1
    30     9    10   ar
    31    10    11   ar
    32    11    12    1
    33    12     3    1
    34    11     6   ar
    35    18    13    1
    36    26    20   ar
    37    30    31    1
@<TRIPOS>MOLECULE
*****
 34 37 0 0 0
SMALL
GASTEIGER

@<TRIPOS>ATOM
      1 C          -0.5229    6.1165   33.9518 C.2     1  UNL1        0.4091
      2 O          -1.6137    6.2396   32.9296 O.2     1  UNL1       -0.2258
      3 N           0.4810    5.0069   33.8475 N.am    1  UNL1       -0.2179
      4 C           1.5718    4.8838   34.8697 C.2     1  UNL1        0.0727
      5 C           2.5757    3.7741   34.7654 C.2     1  UNL1        0.0367
      6 C           2.4889    2.7876   33.6388 C.ar    1  UNL1        0.0993
      7 N           3.4928    1.6780   33.5345 N.ar    1  UNL1       -0.2265
      8 C           3.4059    0.6915   32.4079 C.ar    1  UNL1        0.1633
      9 C           2.3151    0.8146   31.3855 C.ar    1  UNL1        0.1600
     10 N           1.3112    1.9243   31.4899 N.ar    1  UNL1       -0.2291
     11 C           1.3981    2.9108   32.6166 C.ar    1  UNL1        0.0986
     12 C           0.3942    4.0204   32.7209 C.3     1  UNL1        0.1488
     13 N           4.4099   -0.4181   32.3035 N.pl3   1  UNL1       -0.2908
     14 C           5.6678   -0.2193   31.5109 C.3     1  UNL1        0.0960
     15 C           6.6718   -1.3289   31.4066 C.3     1  UNL1        0.0650
     16 C           6.4177   -2.6373   32.0948 C.3     1  UNL1        0.1694
     17 C           5.1598   -2.8360   32.8873 C.3     1  UNL1        0.0650
     18 C           4.1559   -1.7264   32.9917 C.3     1  UNL1        0.0960
     19 O           7.4217   -3.7469   31.9905 O.3     1  UNL1       -0.4768
     20 C           7.4624   -4.6085   30.7632 C.ar    1  UNL1        0.1657
     21 C           6.6209   -4.2575   29.5722 C.ar    1  UNL1        0.0415
     22 C           6.6616   -5.1191   28.3449 C.ar    1  UNL1        0.0329
     23 C           7.5440   -6.3316   28.3087 C.ar    1  UNL1        0.1426
     24 F           7.5848   -7.1931   27.0815 F       1  UNL1       -0.2041
     25 C           8.3856   -6.6825   29.4998 C.ar    1  UNL1        0.0624
     26 C           8.3448   -5.8210   30.7270 C.ar    1  UNL1        0.1760
     27 F           9.1864   -6.1719   31.9181 F       1  UNL1       -0.2009
     28 C          -1.4037    7.0228   36.2218 C.3     1  UNL1        0.2574
     29 O          -0.4361    7.1030   35.0784 O.3     1  UNL1       -0.4302
     30 N           2.2283   -0.1719   30.2590 N.pl3   1  UNL1       -0.3175
     31 H           2.6853   -1.0410   30.3294 H       1  UNL1        0.1482
     32 C           1.4451    0.1659   29.0250 C.3     1  UNL1        0.0706
     33 C           2.1233    0.8335   27.8656 C.3     1  UNL1        0.0212
     34 C          -0.0162   -0.1641   28.9505 C.3     1  UNL1        0.0212
@<TRIPOS>BOND
     1    28    29    1
     2    29     1    1
     3     1     2    2
     4     1     3   am
     5     3     4    1
     6     4     5    2
     7     5     6    1
     8     6     7   ar
     9     7     8   ar
    10     8    13    1
    11    13    14    1
    12    14    15    1
    13    15    16    1
    14    16    19    1
    15    19    20    1
    16    20    21   ar
    17    21    22   ar
    18    22    23   ar
    19    23    24    1
    20    23    25   ar
    21    25    26   ar
    22    26    27    1
    23    16    17    1
    24    17    18    1
    25     8     9   ar
    26     9    30    1
    27    30    32    1
    28    32    33    1
    29    32    34    1
    30     9    10   ar
    31    10    11   ar
    32    11    12    1
    33    12     3    1
    34    11     6   ar
    35    18    13    1
    36    26    20   ar
    37    30    31    1
@<TRIPOS>MOLECULE
*****
 34 37 0 0 0
SMALL
GASTEIGER

@<TRIPOS>ATOM
      1 C           4.2817    2.0600   34.6271 C.2     1  UNL1        0.4091
      2 O           3.0188    1.8853   35.4173 O.2     1  UNL1       -0.2258
      3 N           4.3039    1.7257   33.1650 N.am    1  UNL1       -0.2179
      4 C           5.5668    1.9004   32.3747 C.2     1  UNL1        0.0727
      5 C           5.5890    1.5661   30.9126 C.2     1  UNL1        0.0367
      6 C           4.3483    1.0571   30.2408 C.ar    1  UNL1        0.0993
      7 N           4.3705    0.7227   28.7787 N.ar    1  UNL1       -0.2265
      8 C           3.1297    0.2137   28.1068 C.ar    1  UNL1        0.1633
      9 C           1.8667    0.0390   28.8970 C.ar    1  UNL1        0.1600
     10 N           1.8445    0.3733   30.3591 N.ar    1  UNL1       -0.2291
     11 C           3.0854    0.8824   31.0310 C.ar    1  UNL1        0.0986
     12 C           3.0632    1.2167   32.4931 C.3     1  UNL1        0.1488
     13 N           3.1519   -0.1206   26.6447 N.pl3   1  UNL1       -0.2908
     14 C           3.9459   -1.2958   26.1560 C.3     1  UNL1        0.0960
     15 C           3.9681   -1.6301   24.6939 C.3     1  UNL1        0.0650
     16 C           3.1963   -0.7892   23.7205 C.3     1  UNL1        0.1694
     17 C           2.4024    0.3858   24.2092 C.3     1  UNL1        0.0650
     18 C           2.3802    0.7202   25.6713 C.3     1  UNL1        0.0960
     19 O           3.2185   -1.1236   22.2584 O.3     1  UNL1       -0.4768
     20 C           2.6574   -0.1557   21.2591 C.ar    1  UNL1        0.1657
     21 C           1.3191   -0.4151   20.6334 C.ar    1  UNL1        0.0415
     22 C           0.7581    0.5528   19.6341 C.ar    1  UNL1        0.0329
     23 C           1.5354    1.7801   19.2606 C.ar    1  UNL1        0.1426
     24 F           0.9744    2.7480   18.2614 F       1  UNL1       -0.2041
     25 C           2.8738    2.0395   19.8864 C.ar    1  UNL1        0.0624
     26 C           3.4348    1.0716   20.8856 C.ar    1  UNL1        0.1760
     27 F           4.7731    1.3311   21.5114 F       1  UNL1       -0.2009
     28 C           6.3858    1.6312   36.0895 C.3     1  UNL1        0.2574
     29 O           5.5224    2.5690   35.2989 O.3     1  UNL1       -0.4302
     30 N           0.6260   -0.4700   28.2251 N.pl3   1  UNL1       -0.3175
     31 H           0.6393   -1.3366   27.7581 H       1  UNL1        0.1482
     32 C          -0.6351    0.3413   28.2647 C.3     1  UNL1        0.0706
     33 C          -0.7297    1.6189   27.4844 C.3     1  UNL1        0.0212
     34 C          -1.8014   -0.1249   29.0847 C.3     1  UNL1        0.0212
@<TRIPOS>BOND
     1    28    29    1
     2    29     1    1
     3     1     2    2
     4     1     3   am
     5     3     4    1
     6     4     5    2
     7     5     6    1
     8     6     7   ar
     9     7     8   ar
    10     8    13    1
    11    13    14    1
    12    14    15    1
    13    15    16    1
    14    16    19    1
    15    19    20    1
    16    20    21   ar
    17    21    22   ar
    18    22    23   ar
    19    23    24    1
    20    23    25   ar
    21    25    26   ar
    22    26    27    1
    23    16    17    1
    24    17    18    1
    25     8     9   ar
    26     9    30    1
    27    30    32    1
    28    32    33    1
    29    32    34    1
    30     9    10   ar
    31    10    11   ar
    32    11    12    1
    33    12     3    1
    34    11     6   ar
    35    18    13    1
    36    26    20   ar
    37    30    31    1
