@<TRIPOS>MOLECULE
*****
 26 29 0 0 0
SMALL
GASTEIGER

@<TRIPOS>ATOM
      1 O          -7.3611  -15.8103   22.3034 O.2     1  UNL1       -0.2698
      2 C          -8.4528  -16.7768   22.6555 C.2     1  UNL1        0.2519
      3 N          -8.8356  -16.9856   24.0908 N.am    1  UNL1       -0.2778
      4 C          -9.1618  -17.5346   21.5724 C.ar    1  UNL1        0.0880
      5 C         -10.2250  -16.8597   20.7575 C.ar    1  UNL1        0.0076
      6 C         -10.9339  -17.6174   19.6744 C.ar    1  UNL1        0.0003
      7 C         -10.5797  -19.0501   19.4062 C.ar    1  UNL1        0.0031
      8 C          -9.5165  -19.7250   20.2211 C.ar    1  UNL1        0.0376
      9 C          -8.8076  -18.9673   21.3042 C.ar    1  UNL1        0.1496
     10 O          -7.7444  -19.6422   22.1192 O.3     1  UNL1       -0.4533
     11 C          -6.3326  -19.6939   21.6149 C.ar    1  UNL1        0.1453
     12 C          -5.9688  -20.6273   20.4984 C.ar    1  UNL1        0.0375
     13 C          -4.5570  -20.6791   19.9941 C.ar    1  UNL1        0.0031
     14 C          -3.5091  -19.7975   20.6063 C.ar    1  UNL1        0.0002
     15 C          -3.8730  -18.8642   21.7228 C.ar    1  UNL1        0.0031
     16 C          -5.2847  -18.8124   22.2271 C.ar    1  UNL1        0.0375
     17 C          -8.1267  -16.2279   25.1739 C.3     1  UNL1        0.0926
     18 C          -8.5056  -16.2024   26.6250 C.3     1  UNL1        0.0383
     19 C          -7.5275  -15.3214   27.3441 C.3     1  UNL1        0.0704
     20 N          -6.5440  -14.8023   26.3374 N.3     1  UNL1       -0.2960
     21 C          -6.9144  -15.3626   24.9961 C.3     1  UNL1        0.0887
     22 H          -5.6014  -15.1003   26.5887 H       1  UNL1        0.1233
     23 C          -9.9274  -17.9521   24.4428 C.3     1  UNL1        0.0756
     24 C         -10.0020  -19.2281   25.2279 C.3     1  UNL1        0.0199
     25 C         -11.4714  -19.3190   24.9407 C.3     1  UNL1        0.0034
     26 C         -11.3968  -18.0430   24.1556 C.3     1  UNL1        0.0199
@<TRIPOS>BOND
     1     1     2    2
     2     2     4    1
     3     4     5   ar
     4     5     6   ar
     5     6     7   ar
     6     7     8   ar
     7     8     9   ar
     8     9    10    1
     9    10    11    1
    10    11    12   ar
    11    12    13   ar
    12    13    14   ar
    13    14    15   ar
    14    15    16   ar
    15     2     3   am
    16     3    23    1
    17    23    24    1
    18    24    25    1
    19    25    26    1
    20    17     3    1
    21    17    18    1
    22    18    19    1
    23    19    20    1
    24    20    21    1
    25     9     4   ar
    26    16    11   ar
    27    26    23    1
    28    21    17    1
    29    20    22    1
@<TRIPOS>MOLECULE
*****
 26 29 0 0 0
SMALL
GASTEIGER

@<TRIPOS>ATOM
      1 O          -9.5530  -18.9196   25.2781 O.2     1  UNL1       -0.2698
      2 C          -9.5360  -18.8511   23.7798 C.2     1  UNL1        0.2519
      3 N         -10.8167  -18.6576   23.0232 N.am    1  UNL1       -0.2778
      4 C          -8.2382  -18.9760   23.0379 C.ar    1  UNL1        0.0880
      5 C          -7.7798  -20.3181   22.5495 C.ar    1  UNL1        0.0076
      6 C          -6.4821  -20.4430   21.8077 C.ar    1  UNL1        0.0003
      7 C          -5.6428  -19.2258   21.5543 C.ar    1  UNL1        0.0031
      8 C          -6.1013  -17.8838   22.0428 C.ar    1  UNL1        0.0376
      9 C          -7.3990  -17.7589   22.7846 C.ar    1  UNL1        0.1496
     10 O          -7.8575  -16.4167   23.2730 O.3     1  UNL1       -0.4533
     11 C          -7.4761  -15.9478   24.6459 C.ar    1  UNL1        0.1453
     12 C          -6.0458  -15.6183   24.9553 C.ar    1  UNL1        0.0375
     13 C          -5.6643  -15.1494   26.3281 C.ar    1  UNL1        0.0031
     14 C          -6.7131  -15.0100   27.3915 C.ar    1  UNL1        0.0002
     15 C          -8.1433  -15.3396   27.0820 C.ar    1  UNL1        0.0031
     16 C          -8.5248  -15.8085   25.7092 C.ar    1  UNL1        0.0375
     17 C         -12.1144  -18.5326   23.7650 C.3     1  UNL1        0.0926
     18 C         -13.3796  -17.9279   23.2325 C.3     1  UNL1        0.0383
     19 C         -14.4220  -18.0120   24.3078 C.3     1  UNL1        0.0704
     20 N         -13.8010  -18.6687   25.5050 N.3     1  UNL1       -0.2960
     21 C         -12.3748  -18.9904   25.1695 C.3     1  UNL1        0.0887
     22 H         -14.3055  -19.5261   25.7302 H       1  UNL1        0.1233
     23 C         -10.7996  -18.5890   21.5248 C.3     1  UNL1        0.0756
     24 C         -10.8404  -17.4823   20.5131 C.3     1  UNL1        0.0199
     25 C         -10.7755  -18.4921   19.4059 C.3     1  UNL1        0.0034
     26 C         -10.7347  -19.5988   20.4176 C.3     1  UNL1        0.0199
@<TRIPOS>BOND
     1     1     2    2
     2     2     4    1
     3     4     5   ar
     4     5     6   ar
     5     6     7   ar
     6     7     8   ar
     7     8     9   ar
     8     9    10    1
     9    10    11    1
    10    11    12   ar
    11    12    13   ar
    12    13    14   ar
    13    14    15   ar
    14    15    16   ar
    15     2     3   am
    16     3    23    1
    17    23    24    1
    18    24    25    1
    19    25    26    1
    20    17     3    1
    21    17    18    1
    22    18    19    1
    23    19    20    1
    24    20    21    1
    25     9     4   ar
    26    16    11   ar
    27    26    23    1
    28    21    17    1
    29    20    22    1
@<TRIPOS>MOLECULE
*****
 26 29 0 0 0
SMALL
GASTEIGER

@<TRIPOS>ATOM
      1 O          -7.0446  -16.8923   22.9677 O.2     1  UNL1       -0.2698
      2 C          -8.4463  -17.4241   22.9220 C.2     1  UNL1        0.2519
      3 N          -9.3327  -17.3067   24.1264 N.am    1  UNL1       -0.2778
      4 C          -8.9618  -18.0733   21.6718 C.ar    1  UNL1        0.0880
      5 C         -10.0353  -17.4032   20.8665 C.ar    1  UNL1        0.0076
      6 C         -10.5507  -18.0524   19.6164 C.ar    1  UNL1        0.0003
      7 C          -9.9927  -19.3718   19.1716 C.ar    1  UNL1        0.0031
      8 C          -8.9192  -20.0419   19.9769 C.ar    1  UNL1        0.0376
      9 C          -8.4038  -19.3927   21.2270 C.ar    1  UNL1        0.1496
     10 O          -7.3302  -20.0628   22.0324 O.3     1  UNL1       -0.4533
     11 C          -5.9022  -20.0007   21.5774 C.ar    1  UNL1        0.1453
     12 C          -4.8862  -19.2593   22.3949 C.ar    1  UNL1        0.0375
     13 C          -3.4583  -19.1971   21.9399 C.ar    1  UNL1        0.0031
     14 C          -3.0462  -19.8765   20.6676 C.ar    1  UNL1        0.0002
     15 C          -4.0622  -20.6178   19.8502 C.ar    1  UNL1        0.0031
     16 C          -5.4902  -20.6799   20.3051 C.ar    1  UNL1        0.0375
     17 C          -8.8173  -16.6575   25.3765 C.3     1  UNL1        0.0926
     18 C          -8.2022  -15.2928   25.4720 C.3     1  UNL1        0.0383
     19 C          -7.8312  -15.0509   26.9052 C.3     1  UNL1        0.0704
     20 N          -8.2171  -16.2661   27.6954 N.3     1  UNL1       -0.2960
     21 C          -8.8265  -17.2590   26.7506 C.3     1  UNL1        0.0887
     22 H          -8.8946  -16.0110   28.4139 H       1  UNL1        0.1233
     23 C         -10.7346  -17.8386   24.0806 C.3     1  UNL1        0.0756
     24 C         -12.0415  -17.3388   23.5400 C.3     1  UNL1        0.0199
     25 C         -12.7170  -18.5908   24.0159 C.3     1  UNL1        0.0034
     26 C         -11.4100  -19.0905   24.5565 C.3     1  UNL1        0.0199
@<TRIPOS>BOND
     1     1     2    2
     2     2     4    1
     3     4     5   ar
     4     5     6   ar
     5     6     7   ar
     6     7     8   ar
     7     8     9   ar
     8     9    10    1
     9    10    11    1
    10    11    12   ar
    11    12    13   ar
    12    13    14   ar
    13    14    15   ar
    14    15    16   ar
    15     2     3   am
    16     3    23    1
    17    23    24    1
    18    24    25    1
    19    25    26    1
    20    17     3    1
    21    17    18    1
    22    18    19    1
    23    19    20    1
    24    20    21    1
    25     9     4   ar
    26    16    11   ar
    27    26    23    1
    28    21    17    1
    29    20    22    1
@<TRIPOS>MOLECULE
*****
 26 29 0 0 0
SMALL
GASTEIGER

@<TRIPOS>ATOM
      1 O          -8.1115  -15.8071   21.1051 O.2     1  UNL1       -0.2698
      2 C          -8.0857  -17.0861   21.8882 C.2     1  UNL1        0.2519
      3 N          -9.3682  -17.6948   22.3728 N.am    1  UNL1       -0.2778
      4 C          -6.7775  -17.7566   22.1868 C.ar    1  UNL1        0.0880
      5 C          -6.4921  -19.1227   21.6369 C.ar    1  UNL1        0.0076
      6 C          -5.1840  -19.7930   21.9355 C.ar    1  UNL1        0.0003
      7 C          -4.1611  -19.0974   22.7839 C.ar    1  UNL1        0.0031
      8 C          -4.4465  -17.7313   23.3338 C.ar    1  UNL1        0.0376
      9 C          -5.7547  -17.0610   23.0353 C.ar    1  UNL1        0.1496
     10 O          -6.0401  -15.6948   23.5852 O.3     1  UNL1       -0.4533
     11 C          -6.7337  -15.5484   24.9071 C.ar    1  UNL1        0.1453
     12 C          -8.2318  -15.4981   24.9665 C.ar    1  UNL1        0.0375
     13 C          -8.9254  -15.3516   26.2884 C.ar    1  UNL1        0.0031
     14 C          -8.1210  -15.2554   27.5509 C.ar    1  UNL1        0.0002
     15 C          -6.6231  -15.3057   27.4914 C.ar    1  UNL1        0.0031
     16 C          -5.9294  -15.4522   26.1695 C.ar    1  UNL1        0.0375
     17 C         -10.6764  -17.0244   22.0743 C.3     1  UNL1        0.0926
     18 C         -11.4708  -16.1786   23.0249 C.3     1  UNL1        0.0383
     19 C         -12.7052  -15.7136   22.3109 C.3     1  UNL1        0.0704
     20 N         -12.6738  -16.2719   20.9190 N.3     1  UNL1       -0.2960
     21 C         -11.4199  -17.0821   20.7728 C.3     1  UNL1        0.0887
     22 H         -12.6750  -15.5104   20.2404 H       1  UNL1        0.1233
     23 C          -9.3424  -18.9739   23.1560 C.3     1  UNL1        0.0756
     24 C          -9.0623  -20.4112   22.8309 C.3     1  UNL1        0.0199
     25 C          -9.3060  -20.7828   24.2636 C.3     1  UNL1        0.0034
     26 C          -9.5861  -19.3455   24.5887 C.3     1  UNL1        0.0199
@<TRIPOS>BOND
     1     1     2    2
     2     2     4    1
     3     4     5   ar
     4     5     6   ar
     5     6     7   ar
     6     7     8   ar
     7     8     9   ar
     8     9    10    1
     9    10    11    1
    10    11    12   ar
    11    12    13   ar
    12    13    14   ar
    13    14    15   ar
    14    15    16   ar
    15     2     3   am
    16     3    23    1
    17    23    24    1
    18    24    25    1
    19    25    26    1
    20    17     3    1
    21    17    18    1
    22    18    19    1
    23    19    20    1
    24    20    21    1
    25     9     4   ar
    26    16    11   ar
    27    26    23    1
    28    21    17    1
    29    20    22    1
@<TRIPOS>MOLECULE
*****
 26 29 0 0 0
SMALL
GASTEIGER

@<TRIPOS>ATOM
      1 O          -8.4741  -14.9953   21.9534 O.2     1  UNL1       -0.2698
      2 C          -8.6780  -16.0379   23.0124 C.2     1  UNL1        0.2519
      3 N          -9.5536  -17.2245   22.7380 N.am    1  UNL1       -0.2778
      4 C          -8.0061  -15.8938   24.3458 C.ar    1  UNL1        0.0880
      5 C          -8.8313  -15.7910   25.5942 C.ar    1  UNL1        0.0076
      6 C          -8.1595  -15.6470   26.9275 C.ar    1  UNL1        0.0003
      7 C          -6.6625  -15.6058   27.0125 C.ar    1  UNL1        0.0031
      8 C          -5.8373  -15.7086   25.7641 C.ar    1  UNL1        0.0376
      9 C          -6.5091  -15.8526   24.4308 C.ar    1  UNL1        0.1496
     10 O          -5.6839  -15.9555   23.1823 O.3     1  UNL1       -0.4533
     11 C          -5.0384  -17.2588   22.8153 C.ar    1  UNL1        0.1453
     12 C          -5.8860  -18.4252   22.4015 C.ar    1  UNL1        0.0375
     13 C          -5.2404  -19.7285   22.0344 C.ar    1  UNL1        0.0031
     14 C          -3.7474  -19.8653   22.0811 C.ar    1  UNL1        0.0002
     15 C          -2.8999  -18.6989   22.4949 C.ar    1  UNL1        0.0031
     16 C          -3.5454  -17.3957   22.8619 C.ar    1  UNL1        0.0375
     17 C         -10.2254  -17.3685   21.4047 C.3     1  UNL1        0.0926
     18 C         -10.0626  -18.5181   20.4550 C.3     1  UNL1        0.0383
     19 C         -10.9145  -18.2484   19.2503 C.3     1  UNL1        0.0704
     20 N         -11.6040  -16.9321   19.4554 N.3     1  UNL1       -0.2960
     21 C         -11.1780  -16.3883   20.7869 C.3     1  UNL1        0.0887
     22 H         -12.6151  -17.0653   19.4433 H       1  UNL1        0.1233
     23 C          -9.7574  -18.2670   23.7971 C.3     1  UNL1        0.0756
     24 C          -9.0715  -19.5476   24.1708 C.3     1  UNL1        0.0199
     25 C         -10.0457  -19.7413   25.2949 C.3     1  UNL1        0.0034
     26 C         -10.7315  -18.4607   24.9212 C.3     1  UNL1        0.0199
@<TRIPOS>BOND
     1     1     2    2
     2     2     4    1
     3     4     5   ar
     4     5     6   ar
     5     6     7   ar
     6     7     8   ar
     7     8     9   ar
     8     9    10    1
     9    10    11    1
    10    11    12   ar
    11    12    13   ar
    12    13    14   ar
    13    14    15   ar
    14    15    16   ar
    15     2     3   am
    16     3    23    1
    17    23    24    1
    18    24    25    1
    19    25    26    1
    20    17     3    1
    21    17    18    1
    22    18    19    1
    23    19    20    1
    24    20    21    1
    25     9     4   ar
    26    16    11   ar
    27    26    23    1
    28    21    17    1
    29    20    22    1
@<TRIPOS>MOLECULE
*****
 26 29 0 0 0
SMALL
GASTEIGER

@<TRIPOS>ATOM
      1 O          -8.0948  -14.9922   21.2799 O.2     1  UNL1       -0.2698
      2 C          -8.2171  -15.9316   22.4428 C.2     1  UNL1        0.2519
      3 N          -9.3907  -16.8611   22.5360 N.am    1  UNL1       -0.2778
      4 C          -7.1657  -15.9417   23.5126 C.ar    1  UNL1        0.0880
      5 C          -7.2241  -14.9438   24.6310 C.ar    1  UNL1        0.0076
      6 C          -6.1727  -14.9538   25.7007 C.ar    1  UNL1        0.0003
      7 C          -5.0629  -15.9618   25.6522 C.ar    1  UNL1        0.0031
      8 C          -5.0045  -16.9597   24.5338 C.ar    1  UNL1        0.0376
      9 C          -6.0559  -16.9496   23.4641 C.ar    1  UNL1        0.1496
     10 O          -5.9975  -17.9475   22.3456 O.3     1  UNL1       -0.4533
     11 C          -4.6775  -18.5158   21.9157 C.ar    1  UNL1        0.1453
     12 C          -3.4038  -17.9744   22.4941 C.ar    1  UNL1        0.0375
     13 C          -2.0838  -18.5427   22.0642 C.ar    1  UNL1        0.0031
     14 C          -2.0377  -19.6524   21.0559 C.ar    1  UNL1        0.0002
     15 C          -3.3114  -20.1937   20.4776 C.ar    1  UNL1        0.0031
     16 C          -4.6313  -19.6255   20.9075 C.ar    1  UNL1        0.0375
     17 C         -10.4421  -16.8511   21.4662 C.3     1  UNL1        0.0926
     18 C         -11.5932  -15.8942   21.3702 C.3     1  UNL1        0.0383
     19 C         -12.3895  -16.2479   20.1493 C.3     1  UNL1        0.0704
     20 N         -11.7306  -17.4235   19.4906 N.3     1  UNL1       -0.2960
     21 C         -10.5270  -17.7963   20.3045 C.3     1  UNL1        0.0887
     22 H         -11.4445  -17.1744   18.5438 H       1  UNL1        0.1233
     23 C          -9.5130  -17.8006   23.6990 C.3     1  UNL1        0.0756
     24 C          -9.6403  -17.6383   25.1847 C.3     1  UNL1        0.0199
     25 C          -9.6858  -19.1292   25.3436 C.3     1  UNL1        0.0034
     26 C          -9.5585  -19.2914   23.8579 C.3     1  UNL1        0.0199
@<TRIPOS>BOND
     1     1     2    2
     2     2     4    1
     3     4     5   ar
     4     5     6   ar
     5     6     7   ar
     6     7     8   ar
     7     8     9   ar
     8     9    10    1
     9    10    11    1
    10    11    12   ar
    11    12    13   ar
    12    13    14   ar
    13    14    15   ar
    14    15    16   ar
    15     2     3   am
    16     3    23    1
    17    23    24    1
    18    24    25    1
    19    25    26    1
    20    17     3    1
    21    17    18    1
    22    18    19    1
    23    19    20    1
    24    20    21    1
    25     9     4   ar
    26    16    11   ar
    27    26    23    1
    28    21    17    1
    29    20    22    1
@<TRIPOS>MOLECULE
*****
 26 29 0 0 0
SMALL
GASTEIGER

@<TRIPOS>ATOM
      1 O          -6.2962  -18.6929   23.0605 O.2     1  UNL1       -0.2698
      2 C          -7.4267  -18.9521   22.1094 C.2     1  UNL1        0.2519
      3 N          -7.1395  -19.4068   20.7091 N.am    1  UNL1       -0.2778
      4 C          -8.8446  -18.7567   22.5585 C.ar    1  UNL1        0.0880
      5 C          -9.8032  -19.9101   22.5390 C.ar    1  UNL1        0.0076
      6 C         -11.2210  -19.7147   22.9881 C.ar    1  UNL1        0.0003
      7 C         -11.6800  -18.3657   23.4568 C.ar    1  UNL1        0.0031
      8 C         -10.7214  -17.2123   23.4763 C.ar    1  UNL1        0.0376
      9 C          -9.3036  -17.4077   23.0272 C.ar    1  UNL1        0.1496
     10 O          -8.3449  -16.2542   23.0468 O.3     1  UNL1       -0.4533
     11 C          -7.6346  -15.8908   24.3170 C.ar    1  UNL1        0.1453
     12 C          -6.1796  -15.5274   24.2850 C.ar    1  UNL1        0.0375
     13 C          -5.4693  -15.1640   25.5552 C.ar    1  UNL1        0.0031
     14 C          -6.2140  -15.1640   26.8574 C.ar    1  UNL1        0.0002
     15 C          -7.6689  -15.5275   26.8893 C.ar    1  UNL1        0.0031
     16 C          -8.3792  -15.8909   25.6190 C.ar    1  UNL1        0.0375
     17 C          -5.7218  -19.6022   20.2600 C.3     1  UNL1        0.0926
     18 C          -4.9677  -20.8988   20.2601 C.3     1  UNL1        0.0383
     19 C          -3.5890  -20.6333   19.7321 C.3     1  UNL1        0.0704
     20 N          -3.4911  -19.1725   19.4055 N.3     1  UNL1       -0.2960
     21 C          -4.8092  -18.5353   19.7318 C.3     1  UNL1        0.0887
     22 H          -3.2847  -19.0526   18.4138 H       1  UNL1        0.1233
     23 C          -8.2701  -19.6660   19.7580 C.3     1  UNL1        0.0756
     24 C          -8.6033  -20.7506   18.7769 C.3     1  UNL1        0.0199
     25 C          -9.8690  -20.0325   18.4129 C.3     1  UNL1        0.0034
     26 C          -9.5358  -18.9479   19.3941 C.3     1  UNL1        0.0199
@<TRIPOS>BOND
     1     1     2    2
     2     2     4    1
     3     4     5   ar
     4     5     6   ar
     5     6     7   ar
     6     7     8   ar
     7     8     9   ar
     8     9    10    1
     9    10    11    1
    10    11    12   ar
    11    12    13   ar
    12    13    14   ar
    13    14    15   ar
    14    15    16   ar
    15     2     3   am
    16     3    23    1
    17    23    24    1
    18    24    25    1
    19    25    26    1
    20    17     3    1
    21    17    18    1
    22    18    19    1
    23    19    20    1
    24    20    21    1
    25     9     4   ar
    26    16    11   ar
    27    26    23    1
    28    21    17    1
    29    20    22    1
@<TRIPOS>MOLECULE
*****
 26 29 0 0 0
SMALL
GASTEIGER

@<TRIPOS>ATOM
      1 O          -6.2461  -17.3078   21.2602 O.2     1  UNL1       -0.2698
      2 C          -7.4144  -18.2401   21.3855 C.2     1  UNL1        0.2519
      3 N          -8.4408  -18.0168   22.4564 N.am    1  UNL1       -0.2778
      4 C          -7.5565  -19.3959   20.4398 C.ar    1  UNL1        0.0880
      5 C          -8.7133  -19.4470   19.4865 C.ar    1  UNL1        0.0076
      6 C          -8.8553  -20.6027   18.5409 C.ar    1  UNL1        0.0003
      7 C          -7.8404  -21.7072   18.5487 C.ar    1  UNL1        0.0031
      8 C          -6.6836  -21.6561   19.5020 C.ar    1  UNL1        0.0376
      9 C          -6.5416  -20.5004   20.4476 C.ar    1  UNL1        0.1496
     10 O          -5.3846  -20.4491   21.4011 O.3     1  UNL1       -0.4533
     11 C          -4.1080  -19.7741   20.9956 C.ar    1  UNL1        0.1453
     12 C          -3.0319  -19.5320   22.0122 C.ar    1  UNL1        0.0375
     13 C          -1.7552  -18.8569   21.6067 C.ar    1  UNL1        0.0031
     14 C          -1.5546  -18.4239   20.1846 C.ar    1  UNL1        0.0002
     15 C          -2.6307  -18.6660   19.1681 C.ar    1  UNL1        0.0031
     16 C          -3.9074  -19.3411   19.5735 C.ar    1  UNL1        0.0375
     17 C          -8.2988  -16.8612   23.4020 C.3     1  UNL1        0.0926
     18 C          -7.0244  -16.1407   23.7286 C.3     1  UNL1        0.0383
     19 C          -7.3442  -15.0573   24.7155 C.3     1  UNL1        0.0704
     20 N          -8.8164  -15.1082   24.9988 N.3     1  UNL1       -0.2960
     21 C          -9.4063  -16.2231   24.1870 C.3     1  UNL1        0.0887
     22 H          -9.2500  -14.2227   24.7375 H       1  UNL1        0.1233
     23 C          -9.6091  -18.9492   22.5816 C.3     1  UNL1        0.0756
     24 C         -11.0330  -18.9349   22.1100 C.3     1  UNL1        0.0199
     25 C         -11.2613  -20.2679   22.7587 C.3     1  UNL1        0.0034
     26 C          -9.8374  -20.2823   23.2304 C.3     1  UNL1        0.0199
@<TRIPOS>BOND
     1     1     2    2
     2     2     4    1
     3     4     5   ar
     4     5     6   ar
     5     6     7   ar
     6     7     8   ar
     7     8     9   ar
     8     9    10    1
     9    10    11    1
    10    11    12   ar
    11    12    13   ar
    12    13    14   ar
    13    14    15   ar
    14    15    16   ar
    15     2     3   am
    16     3    23    1
    17    23    24    1
    18    24    25    1
    19    25    26    1
    20    17     3    1
    21    17    18    1
    22    18    19    1
    23    19    20    1
    24    20    21    1
    25     9     4   ar
    26    16    11   ar
    27    26    23    1
    28    21    17    1
    29    20    22    1
@<TRIPOS>MOLECULE
*****
 26 29 0 0 0
SMALL
GASTEIGER

@<TRIPOS>ATOM
      1 O          -9.1537  -20.3143   23.2441 O.2     1  UNL1       -0.2698
      2 C          -9.9111  -19.1884   22.6048 C.2     1  UNL1        0.2519
      3 N          -9.2911  -18.4091   21.4830 N.am    1  UNL1       -0.2778
      4 C         -11.2885  -18.8417   23.0873 C.ar    1  UNL1        0.0880
      5 C         -12.4185  -18.7233   22.1080 C.ar    1  UNL1        0.0076
      6 C         -13.7958  -18.3767   22.5905 C.ar    1  UNL1        0.0003
      7 C         -14.0430  -18.1485   24.0523 C.ar    1  UNL1        0.0031
      8 C         -12.9130  -18.2669   25.0315 C.ar    1  UNL1        0.0376
      9 C         -11.5358  -18.6135   24.5490 C.ar    1  UNL1        0.1496
     10 O         -10.4057  -18.7320   25.5283 O.3     1  UNL1       -0.4533
     11 C          -9.5025  -17.5604   25.7766 C.ar    1  UNL1        0.1453
     12 C          -8.9152  -17.3418   27.1395 C.ar    1  UNL1        0.0375
     13 C          -8.0120  -16.1702   27.3878 C.ar    1  UNL1        0.0031
     14 C          -7.6962  -15.2172   26.2732 C.ar    1  UNL1        0.0002
     15 C          -8.2836  -15.4358   24.9105 C.ar    1  UNL1        0.0031
     16 C          -9.1867  -16.6074   24.6622 C.ar    1  UNL1        0.0375
     17 C          -7.9138  -18.7557   21.0005 C.3     1  UNL1        0.0926
     18 C          -7.5825  -19.5090   19.7464 C.3     1  UNL1        0.0383
     19 C          -6.0899  -19.6288   19.6582 C.3     1  UNL1        0.0704
     20 N          -5.4987  -18.9495   20.8579 N.3     1  UNL1       -0.2960
     21 C          -6.6259  -18.4099   21.6874 C.3     1  UNL1        0.0887
     22 H          -4.8922  -18.1856   20.5593 H       1  UNL1        0.1233
     23 C         -10.0486  -17.2832   20.8437 C.3     1  UNL1        0.0756
     24 C         -10.9416  -17.1509   19.6459 C.3     1  UNL1        0.0199
     25 C         -11.1197  -15.6908   19.9397 C.3     1  UNL1        0.0034
     26 C         -10.2266  -15.8230   21.1376 C.3     1  UNL1        0.0199
@<TRIPOS>BOND
     1     1     2    2
     2     2     4    1
     3     4     5   ar
     4     5     6   ar
     5     6     7   ar
     6     7     8   ar
     7     8     9   ar
     8     9    10    1
     9    10    11    1
    10    11    12   ar
    11    12    13   ar
    12    13    14   ar
    13    14    15   ar
    14    15    16   ar
    15     2     3   am
    16     3    23    1
    17    23    24    1
    18    24    25    1
    19    25    26    1
    20    17     3    1
    21    17    18    1
    22    18    19    1
    23    19    20    1
    24    20    21    1
    25     9     4   ar
    26    16    11   ar
    27    26    23    1
    28    21    17    1
    29    20    22    1
