@<TRIPOS>MOLECULE
*****
 20 23 0 0 0
SMALL
GASTEIGER

@<TRIPOS>ATOM
      1 C         -11.0966  -15.5466   19.2274 C.3     1  UNL1        0.0896
      2 N         -11.3547  -16.3046   20.4958 N.3     1  UNL1       -0.2712
      3 C         -12.6853  -16.4721   21.1676 C.3     1  UNL1        0.0725
      4 C         -12.4804  -17.2993   22.4021 C.3     1  UNL1        0.0210
      5 C         -13.4325  -17.7839   23.4550 C.3     1  UNL1        0.0017
      6 C         -12.9273  -18.6122   24.5990 C.3     1  UNL1        0.0001
      7 C         -11.4700  -18.9558   24.6901 C.3     1  UNL1        0.0004
      8 C         -10.5178  -18.4711   23.6372 C.3     1  UNL1        0.0054
      9 C         -11.0231  -17.6429   22.4932 C.3     1  UNL1        0.0349
     10 C         -10.3273  -17.0281   21.3150 C.3     1  UNL1        0.0762
     11 C          -9.5468  -17.9053   22.4512 C.ar    1  UNL1       -0.0215
     12 C          -9.0203  -19.1160   21.7392 C.ar    1  UNL1       -0.0042
     13 C          -7.5440  -19.3785   21.6972 C.ar    1  UNL1       -0.0003
     14 C          -6.5943  -18.4303   22.3672 C.ar    1  UNL1       -0.0000
     15 C          -5.1180  -18.6928   22.3252 C.ar    1  UNL1       -0.0000
     16 C          -4.1683  -17.7446   22.9952 C.ar    1  UNL1       -0.0000
     17 C          -4.6949  -16.5339   23.7072 C.ar    1  UNL1       -0.0000
     18 C          -6.1711  -16.2714   23.7492 C.ar    1  UNL1       -0.0000
     19 C          -7.1208  -17.2196   23.0792 C.ar    1  UNL1       -0.0003
     20 C          -8.5971  -16.9571   23.1212 C.ar    1  UNL1       -0.0042
@<TRIPOS>BOND
     1     1     2    1
     2     2     3    1
     3     4     3    1
     4     4     5    1
     5     5     6    1
     6     6     7    1
     7     7     8    1
     8     8     9    1
     9     9    11    1
    10    11    12   ar
    11    12    13   ar
    12    13    14   ar
    13    14    15   ar
    14    15    16   ar
    15    16    17   ar
    16    17    18   ar
    17    18    19   ar
    18    19    20   ar
    19     9    10    1
    20    10     2    1
    21     9     4    1
    22    20    11   ar
    23    19    14   ar
@<TRIPOS>MOLECULE
*****
 20 23 0 0 0
SMALL
GASTEIGER

@<TRIPOS>ATOM
      1 C         -11.1255  -15.5361   19.1839 C.3     1  UNL1        0.0896
      2 N         -11.3386  -16.3086   20.4519 N.3     1  UNL1       -0.2712
      3 C         -12.6470  -16.4949   21.1614 C.3     1  UNL1        0.0725
      4 C         -12.3977  -17.3318   22.3811 C.3     1  UNL1        0.0210
      5 C         -13.3135  -17.8354   23.4571 C.3     1  UNL1        0.0017
      6 C         -12.7668  -18.6697   24.5774 C.3     1  UNL1        0.0001
      7 C         -11.3044  -19.0006   24.6217 C.3     1  UNL1        0.0004
      8 C         -10.3886  -18.4970   23.5456 C.3     1  UNL1        0.0054
      9 C         -10.9354  -17.6627   22.4253 C.3     1  UNL1        0.0349
     10 C         -10.2807  -17.0302   21.2330 C.3     1  UNL1        0.0762
     11 C          -9.4586  -17.9109   22.3368 C.ar    1  UNL1       -0.0215
     12 C          -8.5082  -17.0764   23.1430 C.ar    1  UNL1       -0.0042
     13 C          -7.0315  -17.3246   23.0545 C.ar    1  UNL1       -0.0003
     14 C          -6.5053  -18.4074   22.1596 C.ar    1  UNL1       -0.0000
     15 C          -5.0287  -18.6556   22.0711 C.ar    1  UNL1       -0.0000
     16 C          -4.5025  -19.7384   21.1763 C.ar    1  UNL1       -0.0000
     17 C          -5.4530  -20.5729   20.3700 C.ar    1  UNL1       -0.0000
     18 C          -6.9297  -20.3247   20.4585 C.ar    1  UNL1       -0.0000
     19 C          -7.4558  -19.2420   21.3534 C.ar    1  UNL1       -0.0003
     20 C          -8.9325  -18.9937   21.4419 C.ar    1  UNL1       -0.0042
@<TRIPOS>BOND
     1     1     2    1
     2     2     3    1
     3     4     3    1
     4     4     5    1
     5     5     6    1
     6     6     7    1
     7     7     8    1
     8     8     9    1
     9     9    11    1
    10    11    12   ar
    11    12    13   ar
    12    13    14   ar
    13    14    15   ar
    14    15    16   ar
    15    16    17   ar
    16    17    18   ar
    17    18    19   ar
    18    19    20   ar
    19     9    10    1
    20    10     2    1
    21     9     4    1
    22    20    11   ar
    23    19    14   ar
@<TRIPOS>MOLECULE
*****
 20 23 0 0 0
SMALL
GASTEIGER

@<TRIPOS>ATOM
      1 C          -5.0936  -15.9397   24.3094 C.3     1  UNL1        0.0896
      2 N          -5.1530  -17.0867   23.3446 N.3     1  UNL1       -0.2712
      3 C          -3.9810  -17.7215   22.6565 C.3     1  UNL1        0.0725
      4 C          -4.4985  -18.8275   21.7852 C.3     1  UNL1        0.0210
      5 C          -3.8040  -19.7965   20.8748 C.3     1  UNL1        0.0017
      6 C          -4.6013  -20.8142   20.1141 C.3     1  UNL1        0.0001
      7 C          -6.0930  -20.8629   20.2638 C.3     1  UNL1        0.0004
      8 C          -6.7875  -19.8938   21.1741 C.3     1  UNL1        0.0054
      9 C          -5.9902  -18.8762   21.9348 C.3     1  UNL1        0.0349
     10 C          -6.3947  -17.8003   22.8986 C.3     1  UNL1        0.0762
     11 C          -7.4676  -18.8047   22.1845 C.ar    1  UNL1       -0.0215
     12 C          -8.1645  -19.9308   22.8889 C.ar    1  UNL1       -0.0042
     13 C          -9.6418  -19.8593   23.1386 C.ar    1  UNL1       -0.0003
     14 C         -10.4223  -18.6617   22.6840 C.ar    1  UNL1       -0.0000
     15 C         -11.8996  -18.5902   22.9337 C.ar    1  UNL1       -0.0000
     16 C         -12.6800  -17.3926   22.4791 C.ar    1  UNL1       -0.0000
     17 C         -11.9830  -16.2665   21.7747 C.ar    1  UNL1       -0.0000
     18 C         -10.5057  -16.3379   21.5250 C.ar    1  UNL1       -0.0000
     19 C          -9.7253  -17.5355   21.9796 C.ar    1  UNL1       -0.0003
     20 C          -8.2480  -17.6071   21.7299 C.ar    1  UNL1       -0.0042
@<TRIPOS>BOND
     1     1     2    1
     2     2     3    1
     3     4     3    1
     4     4     5    1
     5     5     6    1
     6     6     7    1
     7     7     8    1
     8     8     9    1
     9     9    11    1
    10    11    12   ar
    11    12    13   ar
    12    13    14   ar
    13    14    15   ar
    14    15    16   ar
    15    16    17   ar
    16    17    18   ar
    17    18    19   ar
    18    19    20   ar
    19     9    10    1
    20    10     2    1
    21     9     4    1
    22    20    11   ar
    23    19    14   ar
@<TRIPOS>MOLECULE
*****
 20 23 0 0 0
SMALL
GASTEIGER

@<TRIPOS>ATOM
      1 C          -9.1335  -14.8898   20.9138 C.3     1  UNL1        0.0896
      2 N          -9.3507  -16.1361   21.7197 N.3     1  UNL1       -0.2712
      3 C         -10.4857  -16.3862   22.6679 C.3     1  UNL1        0.0725
      4 C         -10.3074  -17.7558   23.2532 C.3     1  UNL1        0.0210
      5 C         -11.1181  -18.5370   24.2444 C.3     1  UNL1        0.0017
      6 C         -10.6836  -19.9145   24.6490 C.3     1  UNL1        0.0001
      7 C          -9.4384  -20.5108   24.0625 C.3     1  UNL1        0.0004
      8 C          -8.6277  -19.7296   23.0712 C.3     1  UNL1        0.0054
      9 C          -9.0623  -18.3521   22.6666 C.3     1  UNL1        0.0349
     10 C          -8.4709  -17.3510   21.7188 C.3     1  UNL1        0.0762
     11 C          -7.8012  -18.8148   21.9990 C.ar    1  UNL1       -0.0215
     12 C          -7.8716  -19.5748   20.7076 C.ar    1  UNL1       -0.0042
     13 C          -6.6106  -20.0375   20.0400 C.ar    1  UNL1       -0.0003
     14 C          -5.2791  -19.7403   20.6637 C.ar    1  UNL1       -0.0000
     15 C          -4.0182  -20.2030   19.9961 C.ar    1  UNL1       -0.0000
     16 C          -2.6868  -19.9057   20.6198 C.ar    1  UNL1       -0.0000
     17 C          -2.6164  -19.1458   21.9111 C.ar    1  UNL1       -0.0000
     18 C          -3.8774  -18.6831   22.5787 C.ar    1  UNL1       -0.0000
     19 C          -5.2088  -18.9803   21.9550 C.ar    1  UNL1       -0.0003
     20 C          -6.4698  -18.5176   22.6227 C.ar    1  UNL1       -0.0042
@<TRIPOS>BOND
     1     1     2    1
     2     2     3    1
     3     4     3    1
     4     4     5    1
     5     5     6    1
     6     6     7    1
     7     7     8    1
     8     8     9    1
     9     9    11    1
    10    11    12   ar
    11    12    13   ar
    12    13    14   ar
    13    14    15   ar
    14    15    16   ar
    15    16    17   ar
    16    17    18   ar
    17    18    19   ar
    18    19    20   ar
    19     9    10    1
    20    10     2    1
    21     9     4    1
    22    20    11   ar
    23    19    14   ar
@<TRIPOS>MOLECULE
*****
 20 23 0 0 0
SMALL
GASTEIGER

@<TRIPOS>ATOM
      1 C          -5.3481  -15.4954   24.6616 C.3     1  UNL1        0.0896
      2 N          -5.5517  -16.6299   23.7018 N.3     1  UNL1       -0.2712
      3 C          -4.4755  -17.5027   23.1272 C.3     1  UNL1        0.0725
      4 C          -5.1260  -18.5031   22.2183 C.3     1  UNL1        0.0210
      5 C          -4.5633  -19.6129   21.3806 C.3     1  UNL1        0.0017
      6 C          -5.4788  -20.4682   20.5558 C.3     1  UNL1        0.0001
      7 C          -6.9570  -20.2138   20.5686 C.3     1  UNL1        0.0004
      8 C          -7.5198  -19.1039   21.4063 C.3     1  UNL1        0.0054
      9 C          -6.6042  -18.2486   22.2311 C.3     1  UNL1        0.0349
     10 C          -6.8674  -17.0909   23.1480 C.3     1  UNL1        0.0762
     11 C          -8.0531  -17.8769   22.3443 C.ar    1  UNL1       -0.0215
     12 C          -8.6061  -16.7542   21.5174 C.ar    1  UNL1       -0.0042
     13 C         -10.0549  -16.3825   21.6305 C.ar    1  UNL1       -0.0003
     14 C         -10.9507  -17.1335   22.5705 C.ar    1  UNL1       -0.0000
     15 C         -12.3995  -16.7618   22.6836 C.ar    1  UNL1       -0.0000
     16 C         -13.2952  -17.5128   23.6236 C.ar    1  UNL1       -0.0000
     17 C         -12.7422  -18.6354   24.4505 C.ar    1  UNL1       -0.0000
     18 C         -11.2934  -19.0072   24.3374 C.ar    1  UNL1       -0.0000
     19 C         -10.3977  -18.2562   23.3974 C.ar    1  UNL1       -0.0003
     20 C          -8.9488  -18.6279   23.2843 C.ar    1  UNL1       -0.0042
@<TRIPOS>BOND
     1     1     2    1
     2     2     3    1
     3     4     3    1
     4     4     5    1
     5     5     6    1
     6     6     7    1
     7     7     8    1
     8     8     9    1
     9     9    11    1
    10    11    12   ar
    11    12    13   ar
    12    13    14   ar
    13    14    15   ar
    14    15    16   ar
    15    16    17   ar
    16    17    18   ar
    17    18    19   ar
    18    19    20   ar
    19     9    10    1
    20    10     2    1
    21     9     4    1
    22    20    11   ar
    23    19    14   ar
@<TRIPOS>MOLECULE
*****
 20 23 0 0 0
SMALL
GASTEIGER

@<TRIPOS>ATOM
      1 C          -6.2844  -20.3205   21.3280 C.3     1  UNL1        0.0896
      2 N          -7.5651  -19.5439   21.2452 N.3     1  UNL1       -0.2712
      3 C          -8.5187  -19.5369   20.0873 C.3     1  UNL1        0.0725
      4 C          -9.6599  -18.6267   20.4322 C.3     1  UNL1        0.0210
      5 C         -10.8931  -18.2319   19.6750 C.3     1  UNL1        0.0017
      6 C         -11.8781  -17.2816   20.2888 C.3     1  UNL1        0.0001
      7 C         -11.6299  -16.7260   21.6598 C.3     1  UNL1        0.0004
      8 C         -10.3967  -17.1207   22.4171 C.3     1  UNL1        0.0054
      9 C          -9.4117  -18.0711   21.8032 C.3     1  UNL1        0.0349
     10 C          -8.1170  -18.6380   22.3057 C.3     1  UNL1        0.0762
     11 C          -9.0310  -17.5997   23.1755 C.ar    1  UNL1       -0.0215
     12 C          -9.8232  -18.0460   24.3684 C.ar    1  UNL1       -0.0042
     13 C          -9.4425  -17.5747   25.7406 C.ar    1  UNL1       -0.0003
     14 C          -8.2695  -16.6570   25.9199 C.ar    1  UNL1       -0.0000
     15 C          -7.8888  -16.1857   27.2920 C.ar    1  UNL1       -0.0000
     16 C          -6.7159  -15.2681   27.4712 C.ar    1  UNL1       -0.0000
     17 C          -5.9236  -14.8218   26.2782 C.ar    1  UNL1       -0.0000
     18 C          -6.3043  -15.2931   24.9061 C.ar    1  UNL1       -0.0000
     19 C          -7.4773  -16.2107   24.7269 C.ar    1  UNL1       -0.0003
     20 C          -7.8580  -16.6821   23.3547 C.ar    1  UNL1       -0.0042
@<TRIPOS>BOND
     1     1     2    1
     2     2     3    1
     3     4     3    1
     4     4     5    1
     5     5     6    1
     6     6     7    1
     7     7     8    1
     8     8     9    1
     9     9    11    1
    10    11    12   ar
    11    12    13   ar
    12    13    14   ar
    13    14    15   ar
    14    15    16   ar
    15    16    17   ar
    16    17    18   ar
    17    18    19   ar
    18    19    20   ar
    19     9    10    1
    20    10     2    1
    21     9     4    1
    22    20    11   ar
    23    19    14   ar
@<TRIPOS>MOLECULE
*****
 20 23 0 0 0
SMALL
GASTEIGER

@<TRIPOS>ATOM
      1 C          -9.7385  -21.2066   24.3829 C.3     1  UNL1        0.0896
      2 N         -10.0609  -20.0311   23.5087 N.3     1  UNL1       -0.2712
      3 C         -11.1058  -19.9924   22.4333 C.3     1  UNL1        0.0725
      4 C         -11.0856  -18.6252   21.8164 C.3     1  UNL1        0.0210
      5 C         -11.8935  -18.0103   20.7122 C.3     1  UNL1        0.0017
      6 C         -11.6439  -16.5891   20.3022 C.3     1  UNL1        0.0001
      7 C         -10.5865  -15.7829   20.9964 C.3     1  UNL1        0.0004
      8 C          -9.7786  -16.3978   22.1006 C.3     1  UNL1        0.0054
      9 C         -10.0282  -17.8190   22.5106 C.3     1  UNL1        0.0349
     10 C          -9.3949  -18.6879   23.5566 C.3     1  UNL1        0.0762
     11 C          -8.9429  -17.1401   23.2924 C.ar    1  UNL1       -0.0215
     12 C          -7.6060  -16.8910   22.6592 C.ar    1  UNL1       -0.0042
     13 C          -6.5207  -16.2121   23.4410 C.ar    1  UNL1       -0.0003
     14 C          -6.7722  -15.7823   24.8559 C.ar    1  UNL1       -0.0000
     15 C          -5.6869  -15.1034   25.6377 C.ar    1  UNL1       -0.0000
     16 C          -5.9384  -14.6736   27.0526 C.ar    1  UNL1       -0.0000
     17 C          -7.2752  -14.9227   27.6857 C.ar    1  UNL1       -0.0000
     18 C          -8.3605  -15.6015   26.9040 C.ar    1  UNL1       -0.0000
     19 C          -8.1090  -16.0313   25.4891 C.ar    1  UNL1       -0.0003
     20 C          -9.1944  -16.7103   24.7073 C.ar    1  UNL1       -0.0042
@<TRIPOS>BOND
     1     1     2    1
     2     2     3    1
     3     4     3    1
     4     4     5    1
     5     5     6    1
     6     6     7    1
     7     7     8    1
     8     8     9    1
     9     9    11    1
    10    11    12   ar
    11    12    13   ar
    12    13    14   ar
    13    14    15   ar
    14    15    16   ar
    15    16    17   ar
    16    17    18   ar
    17    18    19   ar
    18    19    20   ar
    19     9    10    1
    20    10     2    1
    21     9     4    1
    22    20    11   ar
    23    19    14   ar
@<TRIPOS>MOLECULE
*****
 20 23 0 0 0
SMALL
GASTEIGER

@<TRIPOS>ATOM
      1 C          -5.4482  -15.9421   24.2488 C.3     1  UNL1        0.0896
      2 N          -4.8954  -17.0003   23.3407 N.3     1  UNL1       -0.2712
      3 C          -3.4456  -17.3431   23.1664 C.3     1  UNL1        0.0725
      4 C          -3.3495  -18.4561   22.1654 C.3     1  UNL1        0.0210
      5 C          -2.1756  -19.2000   21.6011 C.3     1  UNL1        0.0017
      6 C          -2.3921  -20.2889   20.5924 C.3     1  UNL1        0.0001
      7 C          -3.7826  -20.6340   20.1480 C.3     1  UNL1        0.0004
      8 C          -4.9566  -19.8901   20.7123 C.3     1  UNL1        0.0054
      9 C          -4.7400  -18.8012   21.7210 C.3     1  UNL1        0.0349
     10 C          -5.6955  -17.9014   22.4474 C.3     1  UNL1        0.0762
     11 C          -6.1807  -19.0337   21.3740 C.ar    1  UNL1       -0.0215
     12 C          -6.6192  -19.0149   19.9396 C.ar    1  UNL1       -0.0042
     13 C          -8.0598  -19.2474   19.5926 C.ar    1  UNL1       -0.0003
     14 C          -9.0621  -19.4988   20.6800 C.ar    1  UNL1       -0.0000
     15 C         -10.5027  -19.7313   20.3329 C.ar    1  UNL1       -0.0000
     16 C         -11.5049  -19.9826   21.4203 C.ar    1  UNL1       -0.0000
     17 C         -11.0665  -20.0014   22.8547 C.ar    1  UNL1       -0.0000
     18 C          -9.6259  -19.7689   23.2017 C.ar    1  UNL1       -0.0000
     19 C          -8.6237  -19.5176   22.1143 C.ar    1  UNL1       -0.0003
     20 C          -7.1829  -19.2851   22.4613 C.ar    1  UNL1       -0.0042
@<TRIPOS>BOND
     1     1     2    1
     2     2     3    1
     3     4     3    1
     4     4     5    1
     5     5     6    1
     6     6     7    1
     7     7     8    1
     8     8     9    1
     9     9    11    1
    10    11    12   ar
    11    12    13   ar
    12    13    14   ar
    13    14    15   ar
    14    15    16   ar
    15    16    17   ar
    16    17    18   ar
    17    18    19   ar
    18    19    20   ar
    19     9    10    1
    20    10     2    1
    21     9     4    1
    22    20    11   ar
    23    19    14   ar
@<TRIPOS>MOLECULE
*****
 20 23 0 0 0
SMALL
GASTEIGER

@<TRIPOS>ATOM
      1 C          -9.9832  -20.9805   25.1677 C.3     1  UNL1        0.0896
      2 N         -10.3617  -19.9057   24.1922 N.3     1  UNL1       -0.2712
      3 C         -11.6241  -19.0960   24.2184 C.3     1  UNL1        0.0725
      4 C         -11.5868  -18.1419   23.0616 C.3     1  UNL1        0.0210
      5 C         -12.5573  -17.1011   22.5873 C.3     1  UNL1        0.0017
      6 C         -12.2424  -16.2804   21.3719 C.3     1  UNL1        0.0001
      7 C         -10.9570  -16.5004   20.6307 C.3     1  UNL1        0.0004
      8 C          -9.9865  -17.5413   21.1049 C.3     1  UNL1        0.0054
      9 C         -10.3015  -18.3619   22.3204 C.3     1  UNL1        0.0349
     10 C          -9.5442  -19.4521   23.0191 C.3     1  UNL1        0.0762
     11 C          -8.9835  -18.6932   21.6852 C.ar    1  UNL1       -0.0215
     12 C          -8.9432  -19.2979   20.3131 C.ar    1  UNL1       -0.0042
     13 C          -7.6253  -19.6291   19.6779 C.ar    1  UNL1       -0.0003
     14 C          -6.3477  -19.3557   20.4149 C.ar    1  UNL1       -0.0000
     15 C          -5.0298  -19.6870   19.7797 C.ar    1  UNL1       -0.0000
     16 C          -3.7523  -19.4135   20.5167 C.ar    1  UNL1       -0.0000
     17 C          -3.7927  -18.8088   21.8888 C.ar    1  UNL1       -0.0000
     18 C          -5.1105  -18.4776   22.5240 C.ar    1  UNL1       -0.0000
     19 C          -6.3880  -18.7510   21.7870 C.ar    1  UNL1       -0.0003
     20 C          -7.7060  -18.4198   22.4222 C.ar    1  UNL1       -0.0042
@<TRIPOS>BOND
     1     1     2    1
     2     2     3    1
     3     4     3    1
     4     4     5    1
     5     5     6    1
     6     6     7    1
     7     7     8    1
     8     8     9    1
     9     9    11    1
    10    11    12   ar
    11    12    13   ar
    12    13    14   ar
    13    14    15   ar
    14    15    16   ar
    15    16    17   ar
    16    17    18   ar
    17    18    19   ar
    18    19    20   ar
    19     9    10    1
    20    10     2    1
    21     9     4    1
    22    20    11   ar
    23    19    14   ar
