@<TRIPOS>MOLECULE
*****
 44 48 0 0 0
SMALL
GASTEIGER

@<TRIPOS>ATOM
      1 N           3.9485    0.2658   22.3091 N.ar    1  UNL1       -0.3260
      2 C           3.8729   -0.7888   21.2451 C.ar    1  UNL1        0.0433
      3 C           4.4052   -2.0673   21.8212 C.ar    1  UNL1        0.0383
      4 C           4.8098   -1.8030   23.2412 C.ar    1  UNL1        0.0256
      5 C           5.3987   -2.6890   24.2986 C.ar    1  UNL1        0.0389
      6 C           5.7054   -2.1330   25.6576 C.ar    1  UNL1        0.1392
      7 C           5.4231   -0.6910   25.9591 C.ar    1  UNL1        0.0384
      8 C           4.8341    0.1950   24.9017 C.ar    1  UNL1        0.0203
      9 C           4.5275   -0.3610   23.5428 C.ar    1  UNL1        0.0606
     10 C           3.5203    1.6961   22.1648 C.3     1  UNL1        0.1324
     11 C          -0.5059    3.0044   23.6907 C.ar    1  UNL1        0.0015
     12 C           0.2165    3.8356   22.6723 C.ar    1  UNL1       -0.0002
     13 C           1.5585    3.3995   22.1636 C.ar    1  UNL1       -0.0024
     14 C           2.1783    2.1322   22.6734 C.ar    1  UNL1        0.0004
     15 C           1.4558    1.3010   23.6919 C.ar    1  UNL1       -0.0024
     16 C           0.1138    1.7371   24.2006 C.ar    1  UNL1       -0.0002
     17 C          -4.5321    4.3125   25.2167 C.ar    1  UNL1        0.2250
     18 C          -3.4677    3.8823   26.1821 C.ar    1  UNL1        0.0577
     19 C          -2.1257    3.4462   25.6735 C.ar    1  UNL1        0.0063
     20 C          -1.8480    3.4404   24.1994 C.ar    1  UNL1        0.0194
     21 C          -2.9123    3.8707   23.2340 C.ar    1  UNL1        0.1020
     22 N          -4.2544    4.3067   23.7426 N.ar    1  UNL1       -0.2101
     23 C          -5.9652    5.7018   26.8798 C.3     1  UNL1        0.2542
     24 O          -5.8741    4.7486   25.7253 O.3     1  UNL1       -0.4561
     25 C           3.3558   -0.5982   19.8500 C.3     1  UNL1        0.0495
     26 C           2.0464    0.0976   19.6240 C.3     1  UNL1        0.0376
     27 C           2.7335    1.1079   18.7538 C.3     1  UNL1        0.0059
     28 C           1.3593   -0.9126   20.4941 C.3     1  UNL1        0.0059
     29 C           0.7370    0.7936   19.3979 C.2     1  UNL1        0.0500
     30 O          -0.2933    0.8255   20.4876 O.co2   1  UNL1       -0.5492
     31 O           0.4578    1.4575   18.0822 O.co2   1  UNL1       -0.5492
     32 S           4.5139   -3.3799   21.1033 S.3     1  UNL1       -0.1142
     33 C           4.9741   -3.4183   19.6761 C.3     1  UNL1        0.0434
     34 C           3.6354   -3.9510   19.2588 C.3     1  UNL1        0.0112
     35 C           6.3127   -2.8856   20.0934 C.3     1  UNL1        0.0112
     36 C           5.4343   -3.4567   18.2490 C.3     1  UNL1        0.0112
     37 O           6.2943   -3.0190   26.7150 O.3     1  UNL1       -0.4690
     38 C           6.3102   -2.5701   28.1462 C.3     1  UNL1        0.2508
     39 C           6.5867   -3.5591   29.2394 C.ar    1  UNL1        0.1026
     40 C           6.4934   -3.1355   30.6753 C.ar    1  UNL1        0.0185
     41 C           6.7699   -4.1246   31.7686 C.ar    1  UNL1        0.0029
     42 C           7.1397   -5.5374   31.4260 C.ar    1  UNL1        0.0207
     43 C           7.2329   -5.9610   29.9901 C.ar    1  UNL1        0.0986
     44 N           6.9564   -4.9720   28.8968 N.ar    1  UNL1       -0.2445
@<TRIPOS>UNITY_ATOM_ATTR
30 1
charge -1
@<TRIPOS>BOND
     1    23    24    1
     2    24    17    1
     3    17    18   ar
     4    18    19   ar
     5    19    20   ar
     6    20    11    1
     7    11    12   ar
     8    12    13   ar
     9    13    14   ar
    10    14    10    1
    11    10     1    1
    12     1     2   ar
    13     2    25    1
    14    25    26    1
    15    26    27    1
    16    26    28    1
    17    26    29    1
    18    29    30   ar
    19    29    31   ar
    20     2     3   ar
    21     3    32    1
    22    32    33    1
    23    33    34    1
    24    33    35    1
    25    33    36    1
    26     3     4   ar
    27     4     5   ar
    28     5     6   ar
    29     6    37    1
    30    37    38    1
    31    38    39    1
    32    39    40   ar
    33    40    41   ar
    34    41    42   ar
    35    42    43   ar
    36    43    44   ar
    37     6     7   ar
    38     7     8   ar
    39     8     9   ar
    40    14    15   ar
    41    15    16   ar
    42    20    21   ar
    43    21    22   ar
    44    22    17   ar
    45    16    11   ar
    46     9     1   ar
    47     9     4   ar
    48    44    39   ar
@<TRIPOS>MOLECULE
*****
 44 48 0 0 0
SMALL
GASTEIGER

@<TRIPOS>ATOM
      1 N           4.9621    0.3516   21.3884 N.ar    1  UNL1       -0.3260
      2 C           4.8010   -0.7696   20.4052 C.ar    1  UNL1        0.0433
      3 C           5.6287   -1.9263   20.8815 C.ar    1  UNL1        0.0383
      4 C           6.3015   -1.5200   22.1591 C.ar    1  UNL1        0.0256
      5 C           7.2359   -2.2500   23.0776 C.ar    1  UNL1        0.0389
      6 C           7.7584   -1.5722   24.3095 C.ar    1  UNL1        0.1392
      7 C           7.3464   -0.1643   24.6228 C.ar    1  UNL1        0.0384
      8 C           6.4119    0.5657   23.7043 C.ar    1  UNL1        0.0203
      9 C           5.8894   -0.1121   22.4724 C.ar    1  UNL1        0.0606
     10 C           4.3103    1.6999   21.3028 C.3     1  UNL1        0.1324
     11 C           0.6308    2.5794   23.7395 C.ar    1  UNL1        0.0015
     12 C           1.4372    1.3455   24.0175 C.ar    1  UNL1       -0.0002
     13 C           2.6637    1.0523   23.2053 C.ar    1  UNL1       -0.0024
     14 C           3.0839    1.9930   22.1150 C.ar    1  UNL1        0.0004
     15 C           2.2774    3.2269   21.8371 C.ar    1  UNL1       -0.0024
     16 C           1.0509    3.5201   22.6493 C.ar    1  UNL1       -0.0002
     17 C          -3.0487    3.4590   26.1761 C.ar    1  UNL1        0.2250
     18 C          -1.8636    2.8010   26.8184 C.ar    1  UNL1        0.0577
     19 C          -0.6370    2.5078   26.0062 C.ar    1  UNL1        0.0063
     20 C          -0.5957    2.8726   24.5517 C.ar    1  UNL1        0.0194
     21 C          -1.7809    3.5306   23.9095 C.ar    1  UNL1        0.1020
     22 N          -3.0074    3.8238   24.7217 N.ar    1  UNL1       -0.2101
     23 C          -4.9594    5.0810   26.8608 C.3     1  UNL1        0.2542
     24 O          -4.2752    3.7522   26.9883 O.3     1  UNL1       -0.4561
     25 C           3.9598   -0.7395   19.1636 C.3     1  UNL1        0.0495
     26 C           2.5489   -0.2341   19.2257 C.3     1  UNL1        0.0376
     27 C           2.2246   -1.2669   20.2640 C.3     1  UNL1        0.0059
     28 C           2.8731    0.7987   18.1874 C.3     1  UNL1        0.0059
     29 C           1.1379    0.2712   19.2878 C.2     1  UNL1        0.0500
     30 O           0.5891    1.1030   18.1666 O.co2   1  UNL1       -0.5492
     31 O           0.2757   -0.0552   20.4710 O.co2   1  UNL1       -0.5492
     32 S           5.7607   -3.2560   20.1998 S.3     1  UNL1       -0.1142
     33 C           4.5584   -4.1383   20.0378 C.3     1  UNL1        0.0434
     34 C           4.7747   -4.1606   18.5537 C.3     1  UNL1        0.0112
     35 C           4.3422   -4.1160   21.5219 C.3     1  UNL1        0.0112
     36 C           3.3562   -5.0206   19.8759 C.3     1  UNL1        0.0112
     37 O           8.6930   -2.3022   25.2281 O.3     1  UNL1       -0.4690
     38 C           8.2198   -3.5185   25.9676 C.3     1  UNL1        0.2508
     39 C           8.4128   -4.8812   25.3712 C.ar    1  UNL1        0.1026
     40 C           7.6758   -6.0588   25.9370 C.ar    1  UNL1        0.0185
     41 C           7.8689   -7.4215   25.3406 C.ar    1  UNL1        0.0029
     42 C           8.7990   -7.6067   24.1784 C.ar    1  UNL1        0.0207
     43 C           9.5360   -6.4291   23.6126 C.ar    1  UNL1        0.0986
     44 N           9.3429   -5.0664   24.2090 N.ar    1  UNL1       -0.2445
@<TRIPOS>UNITY_ATOM_ATTR
30 1
charge -1
@<TRIPOS>BOND
     1    23    24    1
     2    24    17    1
     3    17    18   ar
     4    18    19   ar
     5    19    20   ar
     6    20    11    1
     7    11    12   ar
     8    12    13   ar
     9    13    14   ar
    10    14    10    1
    11    10     1    1
    12     1     2   ar
    13     2    25    1
    14    25    26    1
    15    26    27    1
    16    26    28    1
    17    26    29    1
    18    29    30   ar
    19    29    31   ar
    20     2     3   ar
    21     3    32    1
    22    32    33    1
    23    33    34    1
    24    33    35    1
    25    33    36    1
    26     3     4   ar
    27     4     5   ar
    28     5     6   ar
    29     6    37    1
    30    37    38    1
    31    38    39    1
    32    39    40   ar
    33    40    41   ar
    34    41    42   ar
    35    42    43   ar
    36    43    44   ar
    37     6     7   ar
    38     7     8   ar
    39     8     9   ar
    40    14    15   ar
    41    15    16   ar
    42    20    21   ar
    43    21    22   ar
    44    22    17   ar
    45    16    11   ar
    46     9     1   ar
    47     9     4   ar
    48    44    39   ar
@<TRIPOS>MOLECULE
*****
 44 48 0 0 0
SMALL
GASTEIGER

@<TRIPOS>ATOM
      1 N           4.1818    0.2945   22.3429 N.ar    1  UNL1       -0.3260
      2 C           4.0744   -0.7153   21.2389 C.ar    1  UNL1        0.0433
      3 C           4.5552   -2.0338   21.7684 C.ar    1  UNL1        0.0383
      4 C           4.9597   -1.8389   23.1996 C.ar    1  UNL1        0.0256
      5 C           5.5083   -2.7859   24.2254 C.ar    1  UNL1        0.0389
      6 C           5.8262   -2.2938   25.6062 C.ar    1  UNL1        0.1392
      7 C           5.5954   -0.8548   25.9613 C.ar    1  UNL1        0.0384
      8 C           5.0468    0.0921   24.9356 C.ar    1  UNL1        0.0203
      9 C           4.7289   -0.3999   23.5547 C.ar    1  UNL1        0.0606
     10 C           3.8077    1.7442   22.2513 C.3     1  UNL1        0.1324
     11 C          -0.4444    3.0216   22.9845 C.ar    1  UNL1        0.0015
     12 C           0.4047    3.7705   22.0005 C.ar    1  UNL1       -0.0002
     13 C           1.8220    3.3447   21.7561 C.ar    1  UNL1       -0.0024
     14 C           2.3904    2.1700   22.4956 C.ar    1  UNL1        0.0004
     15 C           1.5413    1.4211   23.4797 C.ar    1  UNL1       -0.0024
     16 C           0.1240    1.8468   23.7241 C.ar    1  UNL1       -0.0002
     17 C          -4.6965    4.2989   23.7178 C.ar    1  UNL1        0.2250
     18 C          -3.8097    3.9448   24.8747 C.ar    1  UNL1        0.0577
     19 C          -2.3923    3.5191   24.6302 C.ar    1  UNL1        0.0063
     20 C          -1.8617    3.4474   23.2289 C.ar    1  UNL1        0.0194
     21 C          -2.7486    3.8014   22.0722 C.ar    1  UNL1        0.1020
     22 N          -4.1660    4.2272   22.3166 N.ar    1  UNL1       -0.2101
     23 C          -7.1901    4.3427   22.9898 C.3     1  UNL1        0.2542
     24 O          -6.1139    4.7246   23.9623 O.3     1  UNL1       -0.4561
     25 C           3.5742   -0.4526   19.8494 C.3     1  UNL1        0.0495
     26 C           2.1913    0.0894   19.6401 C.3     1  UNL1        0.0376
     27 C           2.7453    1.1569   18.7438 C.3     1  UNL1        0.0059
     28 C           1.6373   -0.9781   20.5364 C.3     1  UNL1        0.0059
     29 C           0.8083    0.6314   19.4308 C.2     1  UNL1        0.0500
     30 O           0.4680    1.3467   18.1570 O.co2   1  UNL1       -0.5492
     31 O          -0.2342    0.4581   20.4952 O.co2   1  UNL1       -0.5492
     32 S           4.6201   -3.3212   21.0013 S.3     1  UNL1       -0.1142
     33 C           5.0468   -3.3167   19.5632 C.3     1  UNL1        0.0434
     34 C           3.6864   -3.8015   19.1580 C.3     1  UNL1        0.0112
     35 C           6.4072   -2.8319   19.9685 C.3     1  UNL1        0.0112
     36 C           5.4736   -3.3122   18.1252 C.3     1  UNL1        0.0112
     37 O           6.3749   -3.2408   26.6321 O.3     1  UNL1       -0.4690
     38 C           7.7317   -3.8508   26.4400 C.3     1  UNL1        0.2508
     39 C           7.8973   -5.3409   26.4852 C.ar    1  UNL1        0.1026
     40 C           7.7792   -6.1472   25.2259 C.ar    1  UNL1        0.0185
     41 C           7.9448   -7.6374   25.2712 C.ar    1  UNL1        0.0029
     42 C           8.2286   -8.3212   26.5757 C.ar    1  UNL1        0.0207
     43 C           8.3467   -7.5149   27.8350 C.ar    1  UNL1        0.0986
     44 N           8.1811   -6.0248   27.7898 N.ar    1  UNL1       -0.2445
@<TRIPOS>UNITY_ATOM_ATTR
30 1
charge -1
@<TRIPOS>BOND
     1    23    24    1
     2    24    17    1
     3    17    18   ar
     4    18    19   ar
     5    19    20   ar
     6    20    11    1
     7    11    12   ar
     8    12    13   ar
     9    13    14   ar
    10    14    10    1
    11    10     1    1
    12     1     2   ar
    13     2    25    1
    14    25    26    1
    15    26    27    1
    16    26    28    1
    17    26    29    1
    18    29    30   ar
    19    29    31   ar
    20     2     3   ar
    21     3    32    1
    22    32    33    1
    23    33    34    1
    24    33    35    1
    25    33    36    1
    26     3     4   ar
    27     4     5   ar
    28     5     6   ar
    29     6    37    1
    30    37    38    1
    31    38    39    1
    32    39    40   ar
    33    40    41   ar
    34    41    42   ar
    35    42    43   ar
    36    43    44   ar
    37     6     7   ar
    38     7     8   ar
    39     8     9   ar
    40    14    15   ar
    41    15    16   ar
    42    20    21   ar
    43    21    22   ar
    44    22    17   ar
    45    16    11   ar
    46     9     1   ar
    47     9     4   ar
    48    44    39   ar
@<TRIPOS>MOLECULE
*****
 44 48 0 0 0
SMALL
GASTEIGER

@<TRIPOS>ATOM
      1 N           3.7086    0.0879   21.5846 N.ar    1  UNL1       -0.3260
      2 C           3.2677   -0.5345   20.2930 C.ar    1  UNL1        0.0433
      3 C           3.6629   -1.9813   20.3171 C.ar    1  UNL1        0.0383
      4 C           4.3480   -2.2531   21.6235 C.ar    1  UNL1        0.0256
      5 C           4.9497   -3.4998   22.2010 C.ar    1  UNL1        0.0389
      6 C           5.5797   -3.4676   23.5619 C.ar    1  UNL1        0.1392
      7 C           5.6079   -2.1887   24.3453 C.ar    1  UNL1        0.0384
      8 C           5.0062   -0.9420   23.7678 C.ar    1  UNL1        0.0203
      9 C           4.3762   -0.9742   22.4069 C.ar    1  UNL1        0.0606
     10 C           3.5157    1.5209   21.9838 C.3     1  UNL1        0.1324
     11 C          -0.1698    2.7472   24.2560 C.ar    1  UNL1        0.0015
     12 C           0.5371    3.7399   23.3816 C.ar    1  UNL1       -0.0002
     13 C           1.7656    3.3312   22.6241 C.ar    1  UNL1       -0.0024
     14 C           2.2872    1.9296   22.7411 C.ar    1  UNL1        0.0004
     15 C           1.5802    0.9369   23.6156 C.ar    1  UNL1       -0.0024
     16 C           0.3517    1.3456   24.3731 C.ar    1  UNL1       -0.0002
     17 C          -3.8554    3.9733   26.5283 C.ar    1  UNL1        0.2250
     18 C          -3.8170    4.1044   25.0345 C.ar    1  UNL1        0.0577
     19 C          -2.5885    3.6957   24.2771 C.ar    1  UNL1        0.0063
     20 C          -1.3983    3.1559   25.0134 C.ar    1  UNL1        0.0194
     21 C          -1.4367    3.0248   26.5072 C.ar    1  UNL1        0.1020
     22 N          -2.6652    3.4335   27.2646 N.ar    1  UNL1       -0.2101
     23 C          -5.6619    5.7528   27.0939 C.3     1  UNL1        0.2542
     24 O          -5.0839    4.3820   27.2857 O.3     1  UNL1       -0.4561
     25 C           2.5565    0.1667   19.1738 C.3     1  UNL1        0.0495
     26 C           1.3343    0.9879   19.4598 C.3     1  UNL1        0.0376
     27 C           0.6988   -0.1924   20.1327 C.3     1  UNL1        0.0059
     28 C           1.9699    2.1682   18.7868 C.3     1  UNL1        0.0059
     29 C           0.1120    1.8091   19.7457 C.2     1  UNL1        0.0500
     30 O          -0.2585    2.9439   18.8375 O.co2   1  UNL1       -0.5492
     31 O          -0.7397    1.4954   20.9399 O.co2   1  UNL1       -0.5492
     32 S           3.4163   -2.9809   19.2262 S.3     1  UNL1       -0.1142
     33 C           4.3794   -4.1111   19.0127 C.3     1  UNL1        0.0434
     34 C           5.3863   -3.1480   18.4573 C.3     1  UNL1        0.0112
     35 C           3.3724   -5.0740   19.5682 C.3     1  UNL1        0.0112
     36 C           5.3423   -5.2411   18.7993 C.3     1  UNL1        0.0112
     37 O           6.1815   -4.7144   24.1395 O.3     1  UNL1       -0.4690
     38 C           7.4195   -4.6288   24.9821 C.3     1  UNL1        0.2508
     39 C           7.3739   -5.0347   26.4254 C.ar    1  UNL1        0.1026
     40 C           6.6148   -4.2016   27.4152 C.ar    1  UNL1        0.0185
     41 C           6.5692   -4.6075   28.8585 C.ar    1  UNL1        0.0029
     42 C           7.2828   -5.8465   29.3120 C.ar    1  UNL1        0.0207
     43 C           8.0419   -6.6796   28.3223 C.ar    1  UNL1        0.0986
     44 N           8.0875   -6.2737   26.8790 N.ar    1  UNL1       -0.2445
@<TRIPOS>UNITY_ATOM_ATTR
30 1
charge -1
@<TRIPOS>BOND
     1    23    24    1
     2    24    17    1
     3    17    18   ar
     4    18    19   ar
     5    19    20   ar
     6    20    11    1
     7    11    12   ar
     8    12    13   ar
     9    13    14   ar
    10    14    10    1
    11    10     1    1
    12     1     2   ar
    13     2    25    1
    14    25    26    1
    15    26    27    1
    16    26    28    1
    17    26    29    1
    18    29    30   ar
    19    29    31   ar
    20     2     3   ar
    21     3    32    1
    22    32    33    1
    23    33    34    1
    24    33    35    1
    25    33    36    1
    26     3     4   ar
    27     4     5   ar
    28     5     6   ar
    29     6    37    1
    30    37    38    1
    31    38    39    1
    32    39    40   ar
    33    40    41   ar
    34    41    42   ar
    35    42    43   ar
    36    43    44   ar
    37     6     7   ar
    38     7     8   ar
    39     8     9   ar
    40    14    15   ar
    41    15    16   ar
    42    20    21   ar
    43    21    22   ar
    44    22    17   ar
    45    16    11   ar
    46     9     1   ar
    47     9     4   ar
    48    44    39   ar
@<TRIPOS>MOLECULE
*****
 44 48 0 0 0
SMALL
GASTEIGER

@<TRIPOS>ATOM
      1 N           5.5488    0.0518   20.0986 N.ar    1  UNL1       -0.3260
      2 C           4.3433   -0.3858   19.3207 C.ar    1  UNL1        0.0433
      3 C           3.2584    0.6269   19.5386 C.ar    1  UNL1        0.0383
      4 C           3.7934    1.6903   20.4513 C.ar    1  UNL1        0.0256
      5 C           3.1746    2.9364   21.0119 C.ar    1  UNL1        0.0389
      6 C           3.9712    3.8269   21.9186 C.ar    1  UNL1        0.1392
      7 C           5.3868    3.4714   22.2647 C.ar    1  UNL1        0.0384
      8 C           6.0057    2.2254   21.7041 C.ar    1  UNL1        0.0203
      9 C           5.2090    1.3348   20.7974 C.ar    1  UNL1        0.0606
     10 C           6.8634   -0.6675   20.1660 C.3     1  UNL1        0.1324
     11 C           7.3947   -4.1240   22.9981 C.ar    1  UNL1        0.0015
     12 C           6.5904   -2.9288   23.4159 C.ar    1  UNL1       -0.0002
     13 C           6.4132   -1.7766   22.4719 C.ar    1  UNL1       -0.0024
     14 C           7.0405   -1.8196   21.1100 C.ar    1  UNL1        0.0004
     15 C           7.8448   -3.0148   20.6922 C.ar    1  UNL1       -0.0024
     16 C           8.0220   -4.1670   21.6362 C.ar    1  UNL1       -0.0002
     17 C           7.9261   -7.5805   25.8300 C.ar    1  UNL1        0.2250
     18 C           8.5332   -7.6338   24.4594 C.ar    1  UNL1        0.0577
     19 C           8.3561   -6.4816   23.5154 C.ar    1  UNL1        0.0063
     20 C           7.5718   -5.2761   23.9421 C.ar    1  UNL1        0.0194
     21 C           6.9647   -5.2229   25.3127 C.ar    1  UNL1        0.1020
     22 N           7.1418   -6.3751   26.2567 N.ar    1  UNL1       -0.2101
     23 C           8.8217   -8.5325   28.0753 C.3     1  UNL1        0.2542
     24 O           8.1032   -8.7327   26.7740 O.3     1  UNL1       -0.4561
     25 C           4.2406   -1.6194   18.4735 C.3     1  UNL1        0.0495
     26 C           4.3766   -2.9744   19.1022 C.3     1  UNL1        0.0376
     27 C           5.4674   -3.3156   18.1309 C.3     1  UNL1        0.0059
     28 C           3.2857   -2.6332   20.0736 C.3     1  UNL1        0.0059
     29 C           4.5126   -4.3295   19.7309 C.2     1  UNL1        0.0500
     30 O           4.7669   -5.5327   18.8720 O.co2   1  UNL1       -0.5492
     31 O           4.3942   -4.4815   21.2185 O.co2   1  UNL1       -0.5492
     32 S           1.8804    0.5838   18.9477 S.3     1  UNL1       -0.1142
     33 C           0.7288    1.2015   19.6843 C.3     1  UNL1        0.0434
     34 C           0.6618    2.2965   18.6613 C.3     1  UNL1        0.0112
     35 C           0.7958    0.1066   20.7072 C.3     1  UNL1        0.0112
     36 C          -0.4227    1.8191   20.4208 C.3     1  UNL1        0.0112
     37 O           3.3524    5.0730   22.4793 O.3     1  UNL1       -0.4690
     38 C           2.7240    5.0510   23.8411 C.3     1  UNL1        0.2508
     39 C           1.9386    3.8528   24.2855 C.ar    1  UNL1        0.1026
     40 C           0.5921    3.5742   23.6860 C.ar    1  UNL1        0.0185
     41 C          -0.1932    2.3759   24.1304 C.ar    1  UNL1        0.0029
     42 C           0.3679    1.4564   25.1742 C.ar    1  UNL1        0.0207
     43 C           1.7144    1.7350   25.7736 C.ar    1  UNL1        0.0986
     44 N           2.4997    2.9332   25.3293 N.ar    1  UNL1       -0.2445
@<TRIPOS>UNITY_ATOM_ATTR
30 1
charge -1
@<TRIPOS>BOND
     1    23    24    1
     2    24    17    1
     3    17    18   ar
     4    18    19   ar
     5    19    20   ar
     6    20    11    1
     7    11    12   ar
     8    12    13   ar
     9    13    14   ar
    10    14    10    1
    11    10     1    1
    12     1     2   ar
    13     2    25    1
    14    25    26    1
    15    26    27    1
    16    26    28    1
    17    26    29    1
    18    29    30   ar
    19    29    31   ar
    20     2     3   ar
    21     3    32    1
    22    32    33    1
    23    33    34    1
    24    33    35    1
    25    33    36    1
    26     3     4   ar
    27     4     5   ar
    28     5     6   ar
    29     6    37    1
    30    37    38    1
    31    38    39    1
    32    39    40   ar
    33    40    41   ar
    34    41    42   ar
    35    42    43   ar
    36    43    44   ar
    37     6     7   ar
    38     7     8   ar
    39     8     9   ar
    40    14    15   ar
    41    15    16   ar
    42    20    21   ar
    43    21    22   ar
    44    22    17   ar
    45    16    11   ar
    46     9     1   ar
    47     9     4   ar
    48    44    39   ar
@<TRIPOS>MOLECULE
*****
 44 48 0 0 0
SMALL
GASTEIGER

@<TRIPOS>ATOM
      1 N           4.7616   -2.7325   22.4768 N.ar    1  UNL1       -0.3260
      2 C           5.9886   -3.4338   21.9741 C.ar    1  UNL1        0.0433
      3 C           7.0179   -3.4062   23.0648 C.ar    1  UNL1        0.0383
      4 C           6.4270   -2.6880   24.2417 C.ar    1  UNL1        0.0256
      5 C           6.9786   -2.3593   25.5973 C.ar    1  UNL1        0.0389
      6 C           6.1358   -1.6143   26.5895 C.ar    1  UNL1        0.1392
      7 C           4.7413   -1.1979   26.2261 C.ar    1  UNL1        0.0384
      8 C           4.1897   -1.5266   24.8705 C.ar    1  UNL1        0.0203
      9 C           5.0325   -2.2716   23.8783 C.ar    1  UNL1        0.0606
     10 C           3.4873   -2.5281   21.7124 C.3     1  UNL1        0.1324
     11 C           2.7908    1.3209   19.4875 C.ar    1  UNL1        0.0015
     12 C           1.7188    0.2724   19.5262 C.ar    1  UNL1       -0.0002
     13 C           1.9510   -1.0106   20.2678 C.ar    1  UNL1       -0.0024
     14 C           3.2551   -1.2452   20.9708 C.ar    1  UNL1        0.0004
     15 C           4.3271   -0.1966   20.9321 C.ar    1  UNL1       -0.0024
     16 C           4.0950    1.0864   20.1905 C.ar    1  UNL1       -0.0002
     17 C           2.0944    5.1699   17.2627 C.ar    1  UNL1        0.2250
     18 C           3.4924    4.6708   17.4785 C.ar    1  UNL1        0.0577
     19 C           3.7245    3.3878   18.2201 C.ar    1  UNL1        0.0063
     20 C           2.5586    2.6039   18.7459 C.ar    1  UNL1        0.0194
     21 C           1.1607    3.1030   18.5301 C.ar    1  UNL1        0.1020
     22 N           0.9286    4.3861   17.7885 N.ar    1  UNL1       -0.2101
     23 C           3.0059    7.3894   16.2662 C.3     1  UNL1        0.2542
     24 O           1.8622    6.4529   16.5211 O.3     1  UNL1       -0.4561
     25 C           6.1567   -4.0537   20.6186 C.3     1  UNL1        0.0495
     26 C           5.9450   -3.2276   19.3846 C.3     1  UNL1        0.0376
     27 C           4.7982   -4.1104   18.9904 C.3     1  UNL1        0.0059
     28 C           7.0918   -2.3448   19.7788 C.3     1  UNL1        0.0059
     29 C           5.7332   -2.4016   18.1505 C.2     1  UNL1        0.0500
     30 O           4.3552   -1.9314   17.7901 O.co2   1  UNL1       -0.5492
     31 O           6.8994   -2.0458   17.2769 O.co2   1  UNL1       -0.5492
     32 S           8.3961   -3.9937   22.9916 S.3     1  UNL1       -0.1142
     33 C           8.5740   -5.4809   22.9077 C.3     1  UNL1        0.0434
     34 C           9.2560   -5.3244   21.5810 C.3     1  UNL1        0.0112
     35 C           7.8919   -5.6372   24.2345 C.3     1  UNL1        0.0112
     36 C           8.7518   -6.9679   22.8240 C.3     1  UNL1        0.0112
     37 O           6.6874   -1.2856   27.9452 O.3     1  UNL1       -0.4690
     38 C           5.9437   -1.7036   29.1789 C.3     1  UNL1        0.2508
     39 C           6.3066   -2.9807   29.8768 C.ar    1  UNL1        0.1026
     40 C           6.4204   -3.0122   31.3722 C.ar    1  UNL1        0.0185
     41 C           6.7833   -4.2895   32.0700 C.ar    1  UNL1        0.0029
     42 C           7.0325   -5.5352   31.2725 C.ar    1  UNL1        0.0207
     43 C           6.9187   -5.5037   29.7772 C.ar    1  UNL1        0.0986
     44 N           6.5558   -4.2266   29.0793 N.ar    1  UNL1       -0.2445
@<TRIPOS>UNITY_ATOM_ATTR
30 1
charge -1
@<TRIPOS>BOND
     1    23    24    1
     2    24    17    1
     3    17    18   ar
     4    18    19   ar
     5    19    20   ar
     6    20    11    1
     7    11    12   ar
     8    12    13   ar
     9    13    14   ar
    10    14    10    1
    11    10     1    1
    12     1     2   ar
    13     2    25    1
    14    25    26    1
    15    26    27    1
    16    26    28    1
    17    26    29    1
    18    29    30   ar
    19    29    31   ar
    20     2     3   ar
    21     3    32    1
    22    32    33    1
    23    33    34    1
    24    33    35    1
    25    33    36    1
    26     3     4   ar
    27     4     5   ar
    28     5     6   ar
    29     6    37    1
    30    37    38    1
    31    38    39    1
    32    39    40   ar
    33    40    41   ar
    34    41    42   ar
    35    42    43   ar
    36    43    44   ar
    37     6     7   ar
    38     7     8   ar
    39     8     9   ar
    40    14    15   ar
    41    15    16   ar
    42    20    21   ar
    43    21    22   ar
    44    22    17   ar
    45    16    11   ar
    46     9     1   ar
    47     9     4   ar
    48    44    39   ar
@<TRIPOS>MOLECULE
*****
 44 48 0 0 0
SMALL
GASTEIGER

@<TRIPOS>ATOM
      1 N           3.0968    1.3291   21.7999 N.ar    1  UNL1       -0.3260
      2 C           2.7180    0.6648   20.5095 C.ar    1  UNL1        0.0433
      3 C           3.1629   -0.7661   20.5768 C.ar    1  UNL1        0.0383
      4 C           3.8167   -0.9861   21.9088 C.ar    1  UNL1        0.0256
      5 C           4.4439   -2.1983   22.5311 C.ar    1  UNL1        0.0389
      6 C           5.0302   -2.1155   23.9092 C.ar    1  UNL1        0.1392
      7 C           4.9893   -0.8206   24.6651 C.ar    1  UNL1        0.0384
      8 C           4.3621    0.3916   24.0429 C.ar    1  UNL1        0.0203
      9 C           3.7758    0.3088   22.6647 C.ar    1  UNL1        0.0606
     10 C           2.8414    2.7622   22.1619 C.3     1  UNL1        0.1324
     11 C          -0.9831    3.9121   24.2359 C.ar    1  UNL1        0.0015
     12 C          -0.3872    2.5540   24.4603 C.ar    1  UNL1       -0.0002
     13 C           0.8876    2.1706   23.7690 C.ar    1  UNL1       -0.0024
     14 C           1.5666    3.1455   22.8532 C.ar    1  UNL1        0.0004
     15 C           0.9707    4.5036   22.6288 C.ar    1  UNL1       -0.0024
     16 C          -0.3041    4.8870   23.3200 C.ar    1  UNL1       -0.0002
     17 C          -4.8075    5.0621   26.3097 C.ar    1  UNL1        0.2250
     18 C          -4.8012    3.9366   25.3181 C.ar    1  UNL1        0.0577
     19 C          -3.5264    3.5532   24.6268 C.ar    1  UNL1        0.0063
     20 C          -2.2579    4.2954   24.9271 C.ar    1  UNL1        0.0194
     21 C          -2.2642    5.4209   25.9187 C.ar    1  UNL1        0.1020
     22 N          -3.5390    5.8042   26.6100 N.ar    1  UNL1       -0.2101
     23 C          -6.1604    6.7294   27.7725 C.3     1  UNL1        0.2542
     24 O          -6.0823    5.4454   27.0010 O.3     1  UNL1       -0.4561
     25 C           2.0173    1.3168   19.3545 C.3     1  UNL1        0.0495
     26 C           0.7109    2.0214   19.5708 C.3     1  UNL1        0.0376
     27 C           1.2658    3.2513   18.9156 C.3     1  UNL1        0.0059
     28 C           0.1561    0.7915   20.2260 C.3     1  UNL1        0.0059
     29 C          -0.5955    2.7261   19.7871 C.2     1  UNL1        0.0500
     30 O          -1.4451    2.3830   20.9747 O.co2   1  UNL1       -0.5492
     31 O          -1.0524    3.7737   18.8157 O.co2   1  UNL1       -0.5492
     32 S           2.9853   -1.7962   19.5010 S.3     1  UNL1       -0.1142
     33 C           4.1855   -2.4538   18.8868 C.3     1  UNL1        0.0434
     34 C           3.6945   -3.7904   19.3584 C.3     1  UNL1        0.0112
     35 C           4.6764   -1.1172   18.4152 C.3     1  UNL1        0.0112
     36 C           5.3856   -3.1113   18.2725 C.3     1  UNL1        0.0112
     37 O           5.6575   -3.3277   24.5315 O.3     1  UNL1       -0.4690
     38 C           6.7315   -4.0760   23.7991 C.3     1  UNL1        0.2508
     39 C           7.2988   -5.3361   24.3824 C.ar    1  UNL1        0.1026
     40 C           7.1080   -5.6407   25.8386 C.ar    1  UNL1        0.0185
     41 C           7.6753   -6.9009   26.4219 C.ar    1  UNL1        0.0029
     42 C           8.4335   -7.8564   25.5489 C.ar    1  UNL1        0.0207
     43 C           8.6243   -7.5518   24.0926 C.ar    1  UNL1        0.0986
     44 N           8.0570   -6.2917   23.5093 N.ar    1  UNL1       -0.2445
@<TRIPOS>UNITY_ATOM_ATTR
30 1
charge -1
@<TRIPOS>BOND
     1    23    24    1
     2    24    17    1
     3    17    18   ar
     4    18    19   ar
     5    19    20   ar
     6    20    11    1
     7    11    12   ar
     8    12    13   ar
     9    13    14   ar
    10    14    10    1
    11    10     1    1
    12     1     2   ar
    13     2    25    1
    14    25    26    1
    15    26    27    1
    16    26    28    1
    17    26    29    1
    18    29    30   ar
    19    29    31   ar
    20     2     3   ar
    21     3    32    1
    22    32    33    1
    23    33    34    1
    24    33    35    1
    25    33    36    1
    26     3     4   ar
    27     4     5   ar
    28     5     6   ar
    29     6    37    1
    30    37    38    1
    31    38    39    1
    32    39    40   ar
    33    40    41   ar
    34    41    42   ar
    35    42    43   ar
    36    43    44   ar
    37     6     7   ar
    38     7     8   ar
    39     8     9   ar
    40    14    15   ar
    41    15    16   ar
    42    20    21   ar
    43    21    22   ar
    44    22    17   ar
    45    16    11   ar
    46     9     1   ar
    47     9     4   ar
    48    44    39   ar
@<TRIPOS>MOLECULE
*****
 44 48 0 0 0
SMALL
GASTEIGER

@<TRIPOS>ATOM
      1 N           3.7693   -1.0005   19.4170 N.ar    1  UNL1       -0.3260
      2 C           4.7575   -0.1263   18.7034 C.ar    1  UNL1        0.0433
      3 C           4.1194    1.2139   18.4873 C.ar    1  UNL1        0.0383
      4 C           2.7368    1.1680   19.0672 C.ar    1  UNL1        0.0256
      5 C           1.6469    2.1955   19.1464 C.ar    1  UNL1        0.0389
      6 C           0.3407    1.8545   19.8000 C.ar    1  UNL1        0.1392
      7 C           0.1243    0.4859   20.3746 C.ar    1  UNL1        0.0384
      8 C           1.2141   -0.5417   20.2955 C.ar    1  UNL1        0.0203
      9 C           2.5204   -0.2006   19.6418 C.ar    1  UNL1        0.0606
     10 C           3.9909   -2.4246   19.8327 C.3     1  UNL1        0.1324
     11 C           5.6825   -3.3442   23.9000 C.ar    1  UNL1        0.0015
     12 C           4.6287   -2.2878   23.7473 C.ar    1  UNL1       -0.0002
     13 C           4.0648   -1.9812   22.3916 C.ar    1  UNL1       -0.0024
     14 C           4.5548   -2.7311   21.1884 C.ar    1  UNL1        0.0004
     15 C           5.6087   -3.7876   21.3411 C.ar    1  UNL1       -0.0024
     16 C           6.1725   -4.0942   22.6968 C.ar    1  UNL1       -0.0002
     17 C           7.3742   -4.2639   27.9672 C.ar    1  UNL1        0.2250
     18 C           7.5007   -5.2660   26.8582 C.ar    1  UNL1        0.0577
     19 C           6.9369   -4.9594   25.5024 C.ar    1  UNL1        0.0063
     20 C           6.2464   -3.6508   25.2557 C.ar    1  UNL1        0.0194
     21 C           6.1199   -2.6487   26.3647 C.ar    1  UNL1        0.1020
     22 N           6.6838   -2.9553   27.7205 N.ar    1  UNL1       -0.2101
     23 C           7.1235   -5.3445   30.3165 C.3     1  UNL1        0.2542
     24 O           7.9381   -4.5705   29.3229 O.3     1  UNL1       -0.4561
     25 C           6.1409   -0.5227   18.2803 C.3     1  UNL1        0.0495
     26 C           7.1086   -1.0626   19.2913 C.3     1  UNL1        0.0376
     27 C           7.3538   -2.2575   18.4183 C.3     1  UNL1        0.0059
     28 C           6.8634    0.1322   20.1642 C.3     1  UNL1        0.0059
     29 C           8.0763   -1.6027   20.3022 C.2     1  UNL1        0.0500
     30 O           7.9962   -1.1541   21.7313 O.co2   1  UNL1       -0.5492
     31 O           9.1241   -2.5912   19.8841 O.co2   1  UNL1       -0.5492
     32 S           4.7527    2.3930   17.8101 S.3     1  UNL1       -0.1142
     33 C           5.9575    3.0488   18.4173 C.3     1  UNL1        0.0434
     34 C           5.1533    3.4001   19.6337 C.3     1  UNL1        0.0112
     35 C           6.7617    2.6974   17.2008 C.3     1  UNL1        0.0112
     36 C           7.1623    3.7044   19.0243 C.3     1  UNL1        0.0112
     37 O          -0.7493    2.8820   19.8792 O.3     1  UNL1       -0.4690
     38 C          -0.9812    3.6324   21.1571 C.3     1  UNL1        0.2508
     39 C          -2.2861    3.4914   21.8834 C.ar    1  UNL1        0.1026
     40 C          -2.3579    3.7652   23.3564 C.ar    1  UNL1        0.0185
     41 C          -3.6629    3.6242   24.0827 C.ar    1  UNL1        0.0029
     42 C          -4.8958    3.2094   23.3359 C.ar    1  UNL1        0.0207
     43 C          -4.8239    2.9357   21.8628 C.ar    1  UNL1        0.0986
     44 N          -3.5191    3.0766   21.1366 N.ar    1  UNL1       -0.2445
@<TRIPOS>UNITY_ATOM_ATTR
30 1
charge -1
@<TRIPOS>BOND
     1    23    24    1
     2    24    17    1
     3    17    18   ar
     4    18    19   ar
     5    19    20   ar
     6    20    11    1
     7    11    12   ar
     8    12    13   ar
     9    13    14   ar
    10    14    10    1
    11    10     1    1
    12     1     2   ar
    13     2    25    1
    14    25    26    1
    15    26    27    1
    16    26    28    1
    17    26    29    1
    18    29    30   ar
    19    29    31   ar
    20     2     3   ar
    21     3    32    1
    22    32    33    1
    23    33    34    1
    24    33    35    1
    25    33    36    1
    26     3     4   ar
    27     4     5   ar
    28     5     6   ar
    29     6    37    1
    30    37    38    1
    31    38    39    1
    32    39    40   ar
    33    40    41   ar
    34    41    42   ar
    35    42    43   ar
    36    43    44   ar
    37     6     7   ar
    38     7     8   ar
    39     8     9   ar
    40    14    15   ar
    41    15    16   ar
    42    20    21   ar
    43    21    22   ar
    44    22    17   ar
    45    16    11   ar
    46     9     1   ar
    47     9     4   ar
    48    44    39   ar
@<TRIPOS>MOLECULE
*****
 44 48 0 0 0
SMALL
GASTEIGER

@<TRIPOS>ATOM
      1 N           4.3718    0.5820   21.2940 N.ar    1  UNL1       -0.3260
      2 C           3.2833    0.5056   20.2648 C.ar    1  UNL1        0.0433
      3 C           2.0681    1.1840   20.8243 C.ar    1  UNL1        0.0383
      4 C           2.4056    1.6797   22.1993 C.ar    1  UNL1        0.0256
      5 C           1.6004    2.4217   23.2244 C.ar    1  UNL1        0.0389
      6 C           2.2191    2.7917   24.5398 C.ar    1  UNL1        0.1392
      7 C           3.6429    2.4196   24.8301 C.ar    1  UNL1        0.0384
      8 C           4.4481    1.6775   23.8049 C.ar    1  UNL1        0.0203
      9 C           3.8294    1.3076   22.4895 C.ar    1  UNL1        0.0606
     10 C           5.7593    0.0297   21.1525 C.3     1  UNL1        0.1324
     11 C           6.9309   -3.7066   23.3699 C.ar    1  UNL1        0.0015
     12 C           7.9703   -2.6810   23.0269 C.ar    1  UNL1       -0.0002
     13 C           7.5798   -1.4356   22.2877 C.ar    1  UNL1       -0.0024
     14 C           6.1498   -1.2157   21.8916 C.ar    1  UNL1        0.0004
     15 C           5.1104   -2.2414   22.2347 C.ar    1  UNL1       -0.0024
     16 C           5.5009   -3.4868   22.9738 C.ar    1  UNL1       -0.0002
     17 C           8.1024   -7.4430   25.5874 C.ar    1  UNL1        0.2250
     18 C           8.4542   -7.2901   24.1372 C.ar    1  UNL1        0.0577
     19 C           8.0637   -6.0446   23.3981 C.ar    1  UNL1        0.0063
     20 C           7.3214   -4.9521   24.1091 C.ar    1  UNL1        0.0194
     21 C           6.9695   -5.1051   25.5592 C.ar    1  UNL1        0.1020
     22 N           7.3600   -6.3505   26.2983 N.ar    1  UNL1       -0.2101
     23 C           8.2974   -8.7718   27.8114 C.3     1  UNL1        0.2542
     24 O           8.4929   -8.6884   26.3265 O.3     1  UNL1       -0.4561
     25 C           3.3910   -0.1364   18.9135 C.3     1  UNL1        0.0495
     26 C           3.7762   -1.5815   18.7982 C.3     1  UNL1        0.0376
     27 C           2.6405   -1.9564   19.7036 C.3     1  UNL1        0.0059
     28 C           4.9118   -1.2066   17.8929 C.3     1  UNL1        0.0059
     29 C           4.1613   -3.0267   18.6830 C.2     1  UNL1        0.0500
     30 O           5.5348   -3.4014   18.2106 O.co2   1  UNL1       -0.5492
     31 O           3.1731   -4.0970   19.0402 O.co2   1  UNL1       -0.5492
     32 S           0.7472    1.3395   20.1307 S.3     1  UNL1       -0.1142
     33 C           0.2427    2.7070   19.7761 C.3     1  UNL1        0.0434
     34 C           1.3904    2.8842   18.8267 C.3     1  UNL1        0.0112
     35 C          -0.9050    2.5297   20.7254 C.3     1  UNL1        0.0112
     36 C          -0.2619    4.0743   19.4215 C.3     1  UNL1        0.0112
     37 O           1.4139    3.5338   25.5651 O.3     1  UNL1       -0.4690
     38 C           1.6012    3.2379   27.0236 C.3     1  UNL1        0.2508
     39 C           0.9139    2.0577   27.6438 C.ar    1  UNL1        0.1026
     40 C          -0.5825    1.9586   27.6110 C.ar    1  UNL1        0.0185
     41 C          -1.2697    0.7783   28.2313 C.ar    1  UNL1        0.0029
     42 C          -0.4606   -0.3029   28.8841 C.ar    1  UNL1        0.0207
     43 C           1.0357   -0.2039   28.9169 C.ar    1  UNL1        0.0986
     44 N           1.7230    0.9764   28.2967 N.ar    1  UNL1       -0.2445
@<TRIPOS>UNITY_ATOM_ATTR
30 1
charge -1
@<TRIPOS>BOND
     1    23    24    1
     2    24    17    1
     3    17    18   ar
     4    18    19   ar
     5    19    20   ar
     6    20    11    1
     7    11    12   ar
     8    12    13   ar
     9    13    14   ar
    10    14    10    1
    11    10     1    1
    12     1     2   ar
    13     2    25    1
    14    25    26    1
    15    26    27    1
    16    26    28    1
    17    26    29    1
    18    29    30   ar
    19    29    31   ar
    20     2     3   ar
    21     3    32    1
    22    32    33    1
    23    33    34    1
    24    33    35    1
    25    33    36    1
    26     3     4   ar
    27     4     5   ar
    28     5     6   ar
    29     6    37    1
    30    37    38    1
    31    38    39    1
    32    39    40   ar
    33    40    41   ar
    34    41    42   ar
    35    42    43   ar
    36    43    44   ar
    37     6     7   ar
    38     7     8   ar
    39     8     9   ar
    40    14    15   ar
    41    15    16   ar
    42    20    21   ar
    43    21    22   ar
    44    22    17   ar
    45    16    11   ar
    46     9     1   ar
    47     9     4   ar
    48    44    39   ar
