@<TRIPOS>MOLECULE
*****
 28 30 0 0 0
SMALL
GASTEIGER

@<TRIPOS>ATOM
      1 C          -7.7476  -18.1445   21.5920 C.2     1  UNL1        0.2296
      2 O          -6.2556  -18.1160   21.7446 O.2     1  UNL1       -0.2745
      3 N          -8.5571  -16.9215   21.9066 N.am    1  UNL1       -0.2543
      4 C         -10.0491  -16.9500   21.7539 C.ar    1  UNL1        0.0542
      5 C         -10.6827  -16.4615   20.4851 C.ar    1  UNL1        0.0149
      6 C         -12.1746  -16.4900   20.3325 C.ar    1  UNL1        0.0014
      7 C         -13.0329  -17.0070   21.4487 C.ar    1  UNL1        0.0032
      8 C         -12.3994  -17.4955   22.7175 C.ar    1  UNL1        0.0384
      9 C         -10.9075  -17.4670   22.8701 C.ar    1  UNL1        0.0180
     10 C         -13.2578  -18.0125   23.8337 C.ar    1  UNL1        0.1806
     11 N         -14.7429  -18.2168   23.7819 N.ar    1  UNL1       -0.1083
     12 N         -15.1847  -18.7466   25.1138 N.ar    1  UNL1       -0.0229
     13 N         -13.9727  -18.8697   25.9889 N.ar    1  UNL1       -0.0464
     14 N         -12.7818  -18.4161   25.1977 N.ar    1  UNL1       -0.2388
     15 H         -11.8511  -18.3880   25.5176 H       1  UNL1        0.1923
     16 C          -8.7807  -19.5626   19.6759 C.3     1  UNL1        0.0101
     17 C          -8.4300  -19.3959   21.1247 C.3     1  UNL1        0.0856
     18 C          -7.8748  -15.6701   22.3739 C.3     1  UNL1        0.1247
     19 C          -7.2882  -15.6059   23.7530 C.ar    1  UNL1       -0.0020
     20 C          -5.8244  -15.3326   23.9334 C.ar    1  UNL1       -0.0026
     21 C          -5.2379  -15.2684   25.3125 C.ar    1  UNL1       -0.0003
     22 C          -6.1152  -15.4775   26.5111 C.ar    1  UNL1        0.0038
     23 C          -7.5789  -15.7508   26.3306 C.ar    1  UNL1        0.0712
     24 C          -8.1655  -15.8150   24.9516 C.ar    1  UNL1        0.0012
     25 C          -8.4562  -15.9599   27.5293 C.3     1  UNL1        0.4186
     26 F          -9.3335  -16.1689   28.7279 F       1  UNL1       -0.1659
     27 F          -8.6408  -17.3976   27.1433 F       1  UNL1       -0.1659
     28 F          -8.2716  -14.5222   27.9152 F       1  UNL1       -0.1659
@<TRIPOS>BOND
     1    16    17    1
     2    17     1    1
     3     1     2    2
     4     1     3   am
     5     3    18    1
     6    18    19    1
     7    19    20   ar
     8    20    21   ar
     9    21    22   ar
    10    22    23   ar
    11    23    25    1
    12    25    26    1
    13    25    27    1
    14    25    28    1
    15    23    24   ar
    16     3     4    1
    17     4     5   ar
    18     5     6   ar
    19     6     7   ar
    20     7     8   ar
    21     8    10    1
    22    10    11   ar
    23    11    12   ar
    24    12    13   ar
    25    13    14   ar
    26     8     9   ar
    27    24    19   ar
    28     9     4   ar
    29    14    10   ar
    30    14    15    1
@<TRIPOS>MOLECULE
*****
 28 30 0 0 0
SMALL
GASTEIGER

@<TRIPOS>ATOM
      1 C         -11.4136  -16.6888   22.4072 C.2     1  UNL1        0.2296
      2 O         -12.3033  -15.4939   22.5816 O.2     1  UNL1       -0.2745
      3 N         -10.1607  -16.8163   23.2222 N.am    1  UNL1       -0.2543
      4 C          -9.2709  -18.0113   23.0477 C.ar    1  UNL1        0.0542
      5 C          -9.6257  -19.3127   23.7037 C.ar    1  UNL1        0.0149
      6 C          -8.7359  -20.5076   23.5293 C.ar    1  UNL1        0.0014
      7 C          -7.4913  -20.4011   22.6989 C.ar    1  UNL1        0.0032
      8 C          -7.1365  -19.0997   22.0429 C.ar    1  UNL1        0.0384
      9 C          -8.0263  -17.9048   22.2173 C.ar    1  UNL1        0.0180
     10 C          -5.8919  -18.9931   21.2124 C.ar    1  UNL1        0.1806
     11 N          -4.4964  -19.2946   21.6726 N.ar    1  UNL1       -0.1083
     12 N          -3.5663  -19.0542   20.5206 N.ar    1  UNL1       -0.0229
     13 N          -4.3870  -18.6042   19.3484 N.ar    1  UNL1       -0.0464
     14 N          -5.8242  -18.5665   19.7760 N.ar    1  UNL1       -0.2388
     15 H          -6.5889  -18.3072   19.2127 H       1  UNL1        0.1923
     16 C         -11.2122  -17.7147   20.0288 C.3     1  UNL1        0.0101
     17 C         -11.7766  -17.7563   21.4179 C.3     1  UNL1        0.0856
     18 C          -9.7976  -15.7489   24.2115 C.3     1  UNL1        0.1247
     19 C          -8.4334  -15.7370   24.8352 C.ar    1  UNL1       -0.0020
     20 C          -8.2905  -15.6255   26.3242 C.ar    1  UNL1       -0.0026
     21 C          -6.9264  -15.6136   26.9478 C.ar    1  UNL1       -0.0003
     22 C          -5.7052  -15.7133   26.0825 C.ar    1  UNL1        0.0038
     23 C          -5.8481  -15.8248   24.5935 C.ar    1  UNL1        0.0712
     24 C          -7.2123  -15.8366   23.9699 C.ar    1  UNL1        0.0012
     25 C          -4.6270  -15.9244   23.7282 C.3     1  UNL1        0.4186
     26 F          -3.4058  -16.0240   22.8629 F       1  UNL1       -0.1659
     27 F          -4.3375  -17.2834   24.2932 F       1  UNL1       -0.1659
     28 F          -4.9165  -14.5654   23.1632 F       1  UNL1       -0.1659
@<TRIPOS>BOND
     1    16    17    1
     2    17     1    1
     3     1     2    2
     4     1     3   am
     5     3    18    1
     6    18    19    1
     7    19    20   ar
     8    20    21   ar
     9    21    22   ar
    10    22    23   ar
    11    23    25    1
    12    25    26    1
    13    25    27    1
    14    25    28    1
    15    23    24   ar
    16     3     4    1
    17     4     5   ar
    18     5     6   ar
    19     6     7   ar
    20     7     8   ar
    21     8    10    1
    22    10    11   ar
    23    11    12   ar
    24    12    13   ar
    25    13    14   ar
    26     8     9   ar
    27    24    19   ar
    28     9     4   ar
    29    14    10   ar
    30    14    15    1
@<TRIPOS>MOLECULE
*****
 28 30 0 0 0
SMALL
GASTEIGER

@<TRIPOS>ATOM
      1 C          -7.3628  -19.8916   20.3914 C.2     1  UNL1        0.2296
      2 O          -6.5298  -20.9044   19.6635 O.2     1  UNL1       -0.2745
      3 N          -6.8743  -19.3081   21.6841 N.am    1  UNL1       -0.2543
      4 C          -7.7074  -18.2952   22.4121 C.ar    1  UNL1        0.0542
      5 C          -7.1125  -16.9740   22.8000 C.ar    1  UNL1        0.0149
      6 C          -7.9456  -15.9611   23.5280 C.ar    1  UNL1        0.0014
      7 C          -9.3737  -16.2694   23.8680 C.ar    1  UNL1        0.0032
      8 C          -9.9686  -17.5906   23.4800 C.ar    1  UNL1        0.0384
      9 C          -9.1355  -18.6034   22.7521 C.ar    1  UNL1        0.0180
     10 C         -11.3967  -17.8989   23.8200 C.ar    1  UNL1        0.1806
     11 N         -12.6054  -17.4011   23.0844 N.ar    1  UNL1       -0.1083
     12 N         -13.8225  -17.9536   23.7650 N.ar    1  UNL1       -0.0229
     13 N         -13.3660  -18.7930   24.9214 N.ar    1  UNL1       -0.0464
     14 N         -11.8668  -18.7591   24.9553 N.ar    1  UNL1       -0.2388
     15 H         -11.2922  -19.2205   25.6082 H       1  UNL1        0.1923
     16 C          -9.2868  -20.2105   18.6748 C.3     1  UNL1        0.0101
     17 C          -8.6845  -19.4620   19.8268 C.3     1  UNL1        0.0856
     18 C          -5.5527  -19.7376   22.2487 C.3     1  UNL1        0.1247
     19 C          -4.3240  -18.9171   21.9892 C.ar    1  UNL1       -0.0020
     20 C          -3.6397  -18.2122   23.1227 C.ar    1  UNL1       -0.0026
     21 C          -2.4110  -17.3918   22.8631 C.ar    1  UNL1       -0.0003
     22 C          -1.8667  -17.2764   21.4702 C.ar    1  UNL1        0.0038
     23 C          -2.5509  -17.9814   20.3367 C.ar    1  UNL1        0.0712
     24 C          -3.7796  -18.8018   20.5963 C.ar    1  UNL1        0.0012
     25 C          -2.0066  -17.8661   18.9438 C.3     1  UNL1        0.4186
     26 F          -1.4622  -17.7507   17.5508 F       1  UNL1       -0.1659
     27 F          -0.7349  -18.5273   19.3860 F       1  UNL1       -0.1659
     28 F          -3.2783  -17.2049   18.5015 F       1  UNL1       -0.1659
@<TRIPOS>BOND
     1    16    17    1
     2    17     1    1
     3     1     2    2
     4     1     3   am
     5     3    18    1
     6    18    19    1
     7    19    20   ar
     8    20    21   ar
     9    21    22   ar
    10    22    23   ar
    11    23    25    1
    12    25    26    1
    13    25    27    1
    14    25    28    1
    15    23    24   ar
    16     3     4    1
    17     4     5   ar
    18     5     6   ar
    19     6     7   ar
    20     7     8   ar
    21     8    10    1
    22    10    11   ar
    23    11    12   ar
    24    12    13   ar
    25    13    14   ar
    26     8     9   ar
    27    24    19   ar
    28     9     4   ar
    29    14    10   ar
    30    14    15    1
@<TRIPOS>MOLECULE
*****
 28 30 0 0 0
SMALL
GASTEIGER

@<TRIPOS>ATOM
      1 C         -10.2089  -17.6645   22.3015 C.2     1  UNL1        0.2296
      2 O         -11.0845  -16.6503   22.9758 O.2     1  UNL1       -0.2745
      3 N          -8.7817  -17.3300   21.9832 N.am    1  UNL1       -0.2543
      4 C          -7.9061  -18.3443   21.3089 C.ar    1  UNL1        0.0542
      5 C          -8.4953  -19.3021   20.3162 C.ar    1  UNL1        0.0149
      6 C          -7.6196  -20.3163   19.6419 C.ar    1  UNL1        0.0014
      7 C          -6.1549  -20.3726   19.9603 C.ar    1  UNL1        0.0032
      8 C          -5.5658  -19.4148   20.9530 C.ar    1  UNL1        0.0384
      9 C          -6.4414  -18.4006   21.6272 C.ar    1  UNL1        0.0180
     10 C          -4.1010  -19.4711   21.2714 C.ar    1  UNL1        0.1806
     11 N          -3.1310  -20.5044   20.7799 N.ar    1  UNL1       -0.1083
     12 N          -1.7796  -20.1760   21.3419 N.ar    1  UNL1       -0.0229
     13 N          -1.9144  -18.9397   22.1807 N.ar    1  UNL1       -0.0464
     14 N          -3.3491  -18.5042   22.1371 N.ar    1  UNL1       -0.2388
     15 H          -3.7303  -17.7211   22.5961 H       1  UNL1        0.1923
     16 C         -10.9207  -20.0618   23.0061 C.3     1  UNL1        0.0101
     17 C         -10.7604  -19.0133   21.9455 C.3     1  UNL1        0.0856
     18 C          -8.2302  -15.9813   22.3392 C.3     1  UNL1        0.1247
     19 C          -7.5602  -15.7710   23.6647 C.ar    1  UNL1       -0.0020
     20 C          -6.1153  -15.3722   23.7199 C.ar    1  UNL1       -0.0026
     21 C          -5.4454  -15.1619   25.0454 C.ar    1  UNL1       -0.0003
     22 C          -6.2205  -15.3504   26.3157 C.ar    1  UNL1        0.0038
     23 C          -7.6654  -15.7491   26.2605 C.ar    1  UNL1        0.0712
     24 C          -8.3353  -15.9594   24.9350 C.ar    1  UNL1        0.0012
     25 C          -8.4405  -15.9376   27.5309 C.3     1  UNL1        0.4186
     26 F          -9.2155  -16.1261   28.8012 F       1  UNL1       -0.1659
     27 F          -8.6848  -17.3727   27.1689 F       1  UNL1       -0.1659
     28 F          -8.1962  -14.5026   27.8928 F       1  UNL1       -0.1659
@<TRIPOS>BOND
     1    16    17    1
     2    17     1    1
     3     1     2    2
     4     1     3   am
     5     3    18    1
     6    18    19    1
     7    19    20   ar
     8    20    21   ar
     9    21    22   ar
    10    22    23   ar
    11    23    25    1
    12    25    26    1
    13    25    27    1
    14    25    28    1
    15    23    24   ar
    16     3     4    1
    17     4     5   ar
    18     5     6   ar
    19     6     7   ar
    20     7     8   ar
    21     8    10    1
    22    10    11   ar
    23    11    12   ar
    24    12    13   ar
    25    13    14   ar
    26     8     9   ar
    27    24    19   ar
    28     9     4   ar
    29    14    10   ar
    30    14    15    1
@<TRIPOS>MOLECULE
*****
 28 30 0 0 0
SMALL
GASTEIGER

@<TRIPOS>ATOM
      1 C         -10.6941  -18.2902   20.2284 C.2     1  UNL1        0.2296
      2 O         -11.8502  -17.4029   19.8733 O.2     1  UNL1       -0.2745
      3 N          -9.6839  -17.8369   21.2403 N.am    1  UNL1       -0.2543
      4 C          -8.5277  -18.7242   21.5954 C.ar    1  UNL1        0.0542
      5 C          -8.7126  -19.8376   22.5833 C.ar    1  UNL1        0.0149
      6 C          -7.5564  -20.7249   22.9383 C.ar    1  UNL1        0.0014
      7 C          -6.2154  -20.4987   22.3054 C.ar    1  UNL1        0.0032
      8 C          -6.0306  -19.3853   21.3174 C.ar    1  UNL1        0.0384
      9 C          -7.1868  -18.4980   20.9624 C.ar    1  UNL1        0.0180
     10 C          -4.6896  -19.1591   20.6845 C.ar    1  UNL1        0.1806
     11 N          -3.3696  -19.6217   21.2263 N.ar    1  UNL1       -0.1083
     12 N          -2.2974  -19.1791   20.2752 N.ar    1  UNL1       -0.0229
     13 N          -2.9547  -18.4430   19.1456 N.ar    1  UNL1       -0.0464
     14 N          -4.4332  -18.4306   19.3986 N.ar    1  UNL1       -0.2388
     15 H          -5.1155  -18.0170   18.8218 H       1  UNL1        0.1923
     16 C          -9.4142  -19.8811   18.6218 C.3     1  UNL1        0.0101
     17 C         -10.5480  -19.6308   19.5714 C.3     1  UNL1        0.0856
     18 C          -9.8299  -16.4963   21.8973 C.3     1  UNL1        0.1247
     19 C          -8.8803  -16.0860   22.9836 C.ar    1  UNL1       -0.0020
     20 C          -7.6155  -15.3572   22.6383 C.ar    1  UNL1       -0.0026
     21 C          -6.6660  -14.9469   23.7246 C.ar    1  UNL1       -0.0003
     22 C          -6.9812  -15.2655   25.1561 C.ar    1  UNL1        0.0038
     23 C          -8.2459  -15.9943   25.5013 C.ar    1  UNL1        0.0712
     24 C          -9.1955  -16.4046   24.4151 C.ar    1  UNL1        0.0012
     25 C          -8.5611  -16.3129   26.9328 C.3     1  UNL1        0.4186
     26 F          -8.8763  -16.6314   28.3643 F       1  UNL1       -0.1659
     27 F          -7.9972  -14.9876   27.3519 F       1  UNL1       -0.1659
     28 F          -9.1250  -17.6382   26.5137 F       1  UNL1       -0.1659
@<TRIPOS>BOND
     1    16    17    1
     2    17     1    1
     3     1     2    2
     4     1     3   am
     5     3    18    1
     6    18    19    1
     7    19    20   ar
     8    20    21   ar
     9    21    22   ar
    10    22    23   ar
    11    23    25    1
    12    25    26    1
    13    25    27    1
    14    25    28    1
    15    23    24   ar
    16     3     4    1
    17     4     5   ar
    18     5     6   ar
    19     6     7   ar
    20     7     8   ar
    21     8    10    1
    22    10    11   ar
    23    11    12   ar
    24    12    13   ar
    25    13    14   ar
    26     8     9   ar
    27    24    19   ar
    28     9     4   ar
    29    14    10   ar
    30    14    15    1
@<TRIPOS>MOLECULE
*****
 28 30 0 0 0
SMALL
GASTEIGER

@<TRIPOS>ATOM
      1 C          -8.8231  -19.2283   19.2594 C.2     1  UNL1        0.2296
      2 O         -10.2041  -18.6502   19.3521 O.2     1  UNL1       -0.2745
      3 N          -7.8373  -18.9969   20.3661 N.am    1  UNL1       -0.2543
      4 C          -6.4562  -19.5749   20.2733 C.ar    1  UNL1        0.0542
      5 C          -6.2703  -21.0593   20.1643 C.ar    1  UNL1        0.0149
      6 C          -4.8892  -21.6373   20.0715 C.ar    1  UNL1        0.0014
      7 C          -3.6942  -20.7309   20.0878 C.ar    1  UNL1        0.0032
      8 C          -3.8802  -19.2465   20.1968 C.ar    1  UNL1        0.0384
      9 C          -5.2612  -18.6685   20.2895 C.ar    1  UNL1        0.0180
     10 C          -2.6851  -18.3401   20.2130 C.ar    1  UNL1        0.1806
     11 N          -1.3991  -18.5632   19.4738 N.ar    1  UNL1       -0.1083
     12 N          -0.4854  -17.4125   19.7752 N.ar    1  UNL1       -0.0229
     13 N          -1.2067  -16.4781   20.7008 N.ar    1  UNL1       -0.0464
     14 N          -2.5662  -17.0514   20.9713 N.ar    1  UNL1       -0.2388
     15 H          -3.2588  -16.6520   21.5458 H       1  UNL1        0.1923
     16 C          -9.1237  -21.3340   17.7675 C.3     1  UNL1        0.0101
     17 C          -8.4278  -20.0377   18.0600 C.3     1  UNL1        0.0856
     18 C          -8.2326  -18.1874   21.5654 C.3     1  UNL1        0.1247
     19 C          -9.1924  -18.7539   22.5694 C.ar    1  UNL1       -0.0020
     20 C          -8.7881  -19.9239   23.4164 C.ar    1  UNL1       -0.0026
     21 C          -9.7480  -20.4903   24.4203 C.ar    1  UNL1       -0.0003
     22 C         -11.1122  -19.8866   24.5772 C.ar    1  UNL1        0.0038
     23 C         -11.5165  -18.7165   23.7302 C.ar    1  UNL1        0.0712
     24 C         -10.5566  -18.1502   22.7263 C.ar    1  UNL1        0.0012
     25 C         -12.8806  -18.1128   23.8871 C.3     1  UNL1        0.4186
     26 F         -14.2448  -17.5091   24.0440 F       1  UNL1       -0.1659
     27 F         -12.9673  -18.6700   25.2771 F       1  UNL1       -0.1659
     28 F         -12.7939  -17.5557   22.4971 F       1  UNL1       -0.1659
@<TRIPOS>BOND
     1    16    17    1
     2    17     1    1
     3     1     2    2
     4     1     3   am
     5     3    18    1
     6    18    19    1
     7    19    20   ar
     8    20    21   ar
     9    21    22   ar
    10    22    23   ar
    11    23    25    1
    12    25    26    1
    13    25    27    1
    14    25    28    1
    15    23    24   ar
    16     3     4    1
    17     4     5   ar
    18     5     6   ar
    19     6     7   ar
    20     7     8   ar
    21     8    10    1
    22    10    11   ar
    23    11    12   ar
    24    12    13   ar
    25    13    14   ar
    26     8     9   ar
    27    24    19   ar
    28     9     4   ar
    29    14    10   ar
    30    14    15    1
@<TRIPOS>MOLECULE
*****
 28 30 0 0 0
SMALL
GASTEIGER

@<TRIPOS>ATOM
      1 C          -8.8421  -19.3114   20.0937 C.2     1  UNL1        0.2296
      2 O          -8.3735  -20.3477   19.1157 O.2     1  UNL1       -0.2745
      3 N          -8.2215  -19.2316   21.4569 N.am    1  UNL1       -0.2543
      4 C          -8.6903  -18.1953   22.4349 C.ar    1  UNL1        0.0542
      5 C         -10.1548  -17.9018   22.5724 C.ar    1  UNL1        0.0149
      6 C         -10.6235  -16.8656   23.5503 C.ar    1  UNL1        0.0014
      7 C          -9.6276  -16.1227   24.3908 C.ar    1  UNL1        0.0032
      8 C          -8.1631  -16.4161   24.2533 C.ar    1  UNL1        0.0384
      9 C          -7.6944  -17.4524   23.2754 C.ar    1  UNL1        0.0180
     10 C          -7.1672  -15.6733   25.0937 C.ar    1  UNL1        0.1806
     11 N          -5.8468  -15.1356   24.6275 N.ar    1  UNL1       -0.1083
     12 N          -5.1803  -14.4677   25.7936 N.ar    1  UNL1       -0.0229
     13 N          -6.0889  -14.5926   26.9806 N.ar    1  UNL1       -0.0464
     14 N          -7.3168  -15.3377   26.5480 N.ar    1  UNL1       -0.2388
     15 H          -8.0859  -15.5663   27.1185 H       1  UNL1        0.1923
     16 C         -11.3422  -18.8435   19.5638 C.3     1  UNL1        0.0101
     17 C          -9.9315  -18.3548   19.7083 C.3     1  UNL1        0.0856
     18 C          -7.1323  -20.1882   21.8423 C.3     1  UNL1        0.1247
     19 C          -5.7358  -19.9778   21.3366 C.ar    1  UNL1       -0.0020
     20 C          -5.1709  -20.8931   20.2911 C.ar    1  UNL1       -0.0026
     21 C          -3.7745  -20.6827   19.7855 C.ar    1  UNL1       -0.0003
     22 C          -2.9430  -19.5570   20.3253 C.ar    1  UNL1        0.0038
     23 C          -3.5079  -18.6416   21.3707 C.ar    1  UNL1        0.0712
     24 C          -4.9043  -18.8520   21.8763 C.ar    1  UNL1        0.0012
     25 C          -2.6765  -17.5159   21.9105 C.3     1  UNL1        0.4186
     26 F          -1.8450  -16.3901   22.4503 F       1  UNL1       -0.1659
     27 F          -3.0700  -17.8951   23.3074 F       1  UNL1       -0.1659
     28 F          -2.2830  -17.1367   20.5136 F       1  UNL1       -0.1659
@<TRIPOS>BOND
     1    16    17    1
     2    17     1    1
     3     1     2    2
     4     1     3   am
     5     3    18    1
     6    18    19    1
     7    19    20   ar
     8    20    21   ar
     9    21    22   ar
    10    22    23   ar
    11    23    25    1
    12    25    26    1
    13    25    27    1
    14    25    28    1
    15    23    24   ar
    16     3     4    1
    17     4     5   ar
    18     5     6   ar
    19     6     7   ar
    20     7     8   ar
    21     8    10    1
    22    10    11   ar
    23    11    12   ar
    24    12    13   ar
    25    13    14   ar
    26     8     9   ar
    27    24    19   ar
    28     9     4   ar
    29    14    10   ar
    30    14    15    1
@<TRIPOS>MOLECULE
*****
 28 30 0 0 0
SMALL
GASTEIGER

@<TRIPOS>ATOM
      1 C          -9.0446  -19.5160   20.1249 C.2     1  UNL1        0.2296
      2 O         -10.4805  -19.2622   20.4769 O.2     1  UNL1       -0.2745
      3 N          -8.0135  -19.6192   21.2094 N.am    1  UNL1       -0.2543
      4 C          -6.5776  -19.8731   20.8574 C.ar    1  UNL1        0.0542
      5 C          -6.1663  -21.2026   20.2980 C.ar    1  UNL1        0.0149
      6 C          -4.7305  -21.4564   19.9460 C.ar    1  UNL1        0.0014
      7 C          -3.7060  -20.3806   20.1534 C.ar    1  UNL1        0.0032
      8 C          -4.1173  -19.0510   20.7128 C.ar    1  UNL1        0.0384
      9 C          -5.5531  -18.7972   21.0648 C.ar    1  UNL1        0.0180
     10 C          -3.0928  -17.9752   20.9202 C.ar    1  UNL1        0.1806
     11 N          -3.1244  -16.9215   21.9873 N.ar    1  UNL1       -0.1083
     12 N          -1.9079  -16.0592   21.8236 N.ar    1  UNL1       -0.0229
     13 N          -1.1245  -16.5800   20.6552 N.ar    1  UNL1       -0.0464
     14 N          -1.8568  -17.7641   20.0969 N.ar    1  UNL1       -0.2388
     15 H          -1.5756  -18.3074   19.3255 H       1  UNL1        0.1923
     16 C          -9.0013  -20.9117   17.9339 C.3     1  UNL1        0.0101
     17 C          -8.6399  -19.6666   18.6884 C.3     1  UNL1        0.0856
     18 C          -8.4182  -19.4686   22.6459 C.3     1  UNL1        0.1247
     19 C          -8.5112  -18.1031   23.2598 C.ar    1  UNL1       -0.0020
     20 C          -9.8384  -17.4101   23.3500 C.ar    1  UNL1       -0.0026
     21 C          -9.9313  -16.0447   23.9638 C.ar    1  UNL1       -0.0003
     22 C          -8.6970  -15.3722   24.4874 C.ar    1  UNL1        0.0038
     23 C          -7.3697  -16.0652   24.3972 C.ar    1  UNL1        0.0712
     24 C          -7.2768  -17.4306   23.7834 C.ar    1  UNL1        0.0012
     25 C          -6.1354  -15.3927   24.9208 C.3     1  UNL1        0.4186
     26 F          -4.9010  -14.7202   25.4444 F       1  UNL1       -0.1659
     27 F          -6.5868  -15.6585   26.3264 F       1  UNL1       -0.1659
     28 F          -5.6840  -15.1269   23.5153 F       1  UNL1       -0.1659
@<TRIPOS>BOND
     1    16    17    1
     2    17     1    1
     3     1     2    2
     4     1     3   am
     5     3    18    1
     6    18    19    1
     7    19    20   ar
     8    20    21   ar
     9    21    22   ar
    10    22    23   ar
    11    23    25    1
    12    25    26    1
    13    25    27    1
    14    25    28    1
    15    23    24   ar
    16     3     4    1
    17     4     5   ar
    18     5     6   ar
    19     6     7   ar
    20     7     8   ar
    21     8    10    1
    22    10    11   ar
    23    11    12   ar
    24    12    13   ar
    25    13    14   ar
    26     8     9   ar
    27    24    19   ar
    28     9     4   ar
    29    14    10   ar
    30    14    15    1
@<TRIPOS>MOLECULE
*****
 28 30 0 0 0
SMALL
GASTEIGER

@<TRIPOS>ATOM
      1 C         -10.7418  -16.8686   20.7692 C.2     1  UNL1        0.2296
      2 O         -10.8454  -16.7255   19.2797 O.2     1  UNL1       -0.2745
      3 N          -9.9662  -18.0080   21.3611 N.am    1  UNL1       -0.2543
      4 C          -9.8626  -18.1511   22.8507 C.ar    1  UNL1        0.0542
      5 C         -10.5906  -19.2607   23.5499 C.ar    1  UNL1        0.0149
      6 C         -10.4870  -19.4037   25.0394 C.ar    1  UNL1        0.0014
      7 C          -9.6555  -18.4373   25.8297 C.ar    1  UNL1        0.0032
      8 C          -8.9275  -17.3278   25.1305 C.ar    1  UNL1        0.0384
      9 C          -9.0311  -17.1847   23.6410 C.ar    1  UNL1        0.0180
     10 C          -8.0960  -16.3614   25.9208 C.ar    1  UNL1        0.1806
     11 N          -6.7652  -15.8034   25.5116 N.ar    1  UNL1       -0.1083
     12 N          -6.2960  -14.8804   26.5970 N.ar    1  UNL1       -0.0229
     13 N          -7.3368  -14.8680   27.6770 N.ar    1  UNL1       -0.0464
     14 N          -8.4493  -15.7833   27.2591 N.ar    1  UNL1       -0.2388
     15 H          -9.2677  -15.9715   27.7729 H       1  UNL1        0.1923
     16 C         -12.6372  -16.2659   22.4408 C.3     1  UNL1        0.0101
     17 C         -11.4139  -15.8724   21.6670 C.3     1  UNL1        0.0856
     18 C          -9.2941  -19.0041   20.4634 C.3     1  UNL1        0.1247
     19 C          -7.8576  -19.3706   20.6923 C.ar    1  UNL1       -0.0020
     20 C          -7.2437  -20.5088   19.9324 C.ar    1  UNL1       -0.0026
     21 C          -5.8073  -20.8753   20.1613 C.ar    1  UNL1       -0.0003
     22 C          -4.9848  -20.1034   21.1501 C.ar    1  UNL1        0.0038
     23 C          -5.5987  -18.9652   21.9100 C.ar    1  UNL1        0.0712
     24 C          -7.0351  -18.5988   21.6811 C.ar    1  UNL1        0.0012
     25 C          -4.7762  -18.1934   22.8989 C.3     1  UNL1        0.4186
     26 F          -3.9537  -17.4216   23.8877 F       1  UNL1       -0.1659
     27 F          -3.7160  -19.2531   22.8441 F       1  UNL1       -0.1659
     28 F          -5.8364  -17.1337   22.9536 F       1  UNL1       -0.1659
@<TRIPOS>BOND
     1    16    17    1
     2    17     1    1
     3     1     2    2
     4     1     3   am
     5     3    18    1
     6    18    19    1
     7    19    20   ar
     8    20    21   ar
     9    21    22   ar
    10    22    23   ar
    11    23    25    1
    12    25    26    1
    13    25    27    1
    14    25    28    1
    15    23    24   ar
    16     3     4    1
    17     4     5   ar
    18     5     6   ar
    19     6     7   ar
    20     7     8   ar
    21     8    10    1
    22    10    11   ar
    23    11    12   ar
    24    12    13   ar
    25    13    14   ar
    26     8     9   ar
    27    24    19   ar
    28     9     4   ar
    29    14    10   ar
    30    14    15    1
