@<TRIPOS>MOLECULE
*****
 22 24 0 0 0
SMALL
GASTEIGER

@<TRIPOS>ATOM
      1 C         -10.2070  -17.4306   22.7327 C.ar    1  UNL1        0.1447
      2 C         -10.0760  -18.3642   21.5660 C.ar    1  UNL1        0.0749
      3 C         -11.0947  -19.1254   20.7704 C.ar    1  UNL1        0.0468
      4 C         -10.3696  -19.9035   19.7127 C.ar    1  UNL1        0.1799
      5 O          -8.9028  -19.6232   19.8545 O.2     1  UNL1       -0.4471
      6 C          -8.7214  -18.6718   21.0000 C.ar    1  UNL1        0.1851
      7 C          -7.4977  -18.0459   21.6007 C.ar    1  UNL1        0.2078
      8 C          -7.6287  -17.1123   22.7674 C.ar    1  UNL1        0.1883
      9 O          -6.4050  -16.4864   23.3681 O.2     1  UNL1       -0.4177
     10 C          -6.5359  -15.5529   24.5349 C.ar    1  UNL1        0.3460
     11 O          -5.3123  -14.9269   25.1356 O.2     1  UNL1       -0.2445
     12 C          -7.8906  -15.2452   25.1010 C.ar    1  UNL1        0.0825
     13 C          -9.1142  -15.8711   24.5002 C.ar    1  UNL1        0.0128
     14 C          -8.9832  -16.8047   23.3334 C.ar    1  UNL1        0.0721
     15 C         -12.4701  -16.1625   22.5900 C.3     1  UNL1        0.2525
     16 O         -11.5616  -17.1229   23.2988 O.3     1  UNL1       -0.4712
     17 O          -6.1431  -18.3535   21.0347 O.3     1  UNL1       -0.4645
     18 C          -5.2157  -19.2765   21.7682 C.3     1  UNL1        0.2315
     19 C          -3.7856  -18.8819   21.9901 C.2     1  UNL1        0.0122
     20 C          -2.8237  -18.8701   20.8392 C.2     1  UNL1       -0.0443
     21 C          -1.3936  -18.4756   21.0610 C.3     1  UNL1        0.0261
     22 C          -3.2919  -19.2528   19.4665 C.3     1  UNL1        0.0261
@<TRIPOS>BOND
     1    15    16    1
     2    16     1    1
     3     1     2   ar
     4     2     3   ar
     5     3     4   ar
     6     4     5   ar
     7     5     6   ar
     8     6     7   ar
     9     7    17    1
    10    17    18    1
    11    18    19    1
    12    19    20    2
    13    20    21    1
    14    20    22    1
    15     7     8   ar
    16     8     9   ar
    17     9    10   ar
    18    10    11    2
    19    10    12   ar
    20    12    13   ar
    21    13    14   ar
    22    14     1   ar
    23     6     2   ar
    24    14     8   ar
@<TRIPOS>MOLECULE
*****
 22 24 0 0 0
SMALL
GASTEIGER

@<TRIPOS>ATOM
      1 C          -6.9217  -19.4190   21.6464 C.ar    1  UNL1        0.1447
      2 C          -5.8931  -18.5894   22.3561 C.ar    1  UNL1        0.0749
      3 C          -4.4943  -18.8929   22.8047 C.ar    1  UNL1        0.0468
      4 C          -3.9434  -17.6651   23.4673 C.ar    1  UNL1        0.1799
      5 O          -5.0017  -16.6028   23.4282 O.2     1  UNL1       -0.4471
      6 C          -6.2067  -17.1741   22.7414 C.ar    1  UNL1        0.1851
      7 C          -7.5490  -16.5883   22.4171 C.ar    1  UNL1        0.2078
      8 C          -8.5776  -17.4179   21.7075 C.ar    1  UNL1        0.1883
      9 O          -9.9200  -16.8321   21.3832 O.2     1  UNL1       -0.4177
     10 C         -10.9486  -17.6617   20.6735 C.ar    1  UNL1        0.3460
     11 O         -12.2909  -17.0760   20.3492 O.2     1  UNL1       -0.2445
     12 C         -10.6351  -19.0771   20.2881 C.ar    1  UNL1        0.0825
     13 C          -9.2928  -19.6628   20.6124 C.ar    1  UNL1        0.0128
     14 C          -8.2640  -18.8332   21.3221 C.ar    1  UNL1        0.0721
     15 C          -5.6607  -21.1118   20.1317 C.3     1  UNL1        0.2525
     16 O          -6.6082  -20.8344   21.2610 O.3     1  UNL1       -0.4712
     17 O          -7.8626  -15.1730   22.8025 O.3     1  UNL1       -0.4645
     18 C          -7.7327  -14.7386   24.2323 C.3     1  UNL1        0.2315
     19 C          -8.4408  -15.4988   25.3143 C.2     1  UNL1        0.0122
     20 C          -7.7252  -15.8281   26.5909 C.2     1  UNL1       -0.0443
     21 C          -8.4332  -16.5883   27.6730 C.3     1  UNL1        0.0261
     22 C          -6.3016  -15.3971   26.7854 C.3     1  UNL1        0.0261
@<TRIPOS>BOND
     1    15    16    1
     2    16     1    1
     3     1     2   ar
     4     2     3   ar
     5     3     4   ar
     6     4     5   ar
     7     5     6   ar
     8     6     7   ar
     9     7    17    1
    10    17    18    1
    11    18    19    1
    12    19    20    2
    13    20    21    1
    14    20    22    1
    15     7     8   ar
    16     8     9   ar
    17     9    10   ar
    18    10    11    2
    19    10    12   ar
    20    12    13   ar
    21    13    14   ar
    22    14     1   ar
    23     6     2   ar
    24    14     8   ar
@<TRIPOS>MOLECULE
*****
 22 24 0 0 0
SMALL
GASTEIGER

@<TRIPOS>ATOM
      1 C         -10.2852  -17.3378   22.7968 C.ar    1  UNL1        0.1447
      2 C          -9.1804  -16.7281   23.6077 C.ar    1  UNL1        0.0749
      3 C          -9.1947  -15.8535   24.8262 C.ar    1  UNL1        0.0468
      4 C          -7.7729  -15.5520   25.1971 C.ar    1  UNL1        0.1799
      5 O          -6.8798  -16.2404   24.2078 O.2     1  UNL1       -0.4471
      6 C          -7.7497  -16.9673   23.2255 C.ar    1  UNL1        0.1851
      7 C          -7.4239  -17.8160   22.0324 C.ar    1  UNL1        0.2078
      8 C          -8.5288  -18.4256   21.2215 C.ar    1  UNL1        0.1883
      9 O          -8.2029  -19.2743   20.0283 O.2     1  UNL1       -0.4177
     10 C          -9.3078  -19.8839   19.2174 C.ar    1  UNL1        0.3460
     11 O          -8.9820  -20.7327   18.0243 O.2     1  UNL1       -0.2445
     12 C         -10.7385  -19.6449   19.5995 C.ar    1  UNL1        0.0825
     13 C         -11.0643  -18.7962   20.7926 C.ar    1  UNL1        0.0128
     14 C          -9.9593  -18.1865   21.6036 C.ar    1  UNL1        0.0721
     15 C         -12.4430  -15.8982   22.6495 C.3     1  UNL1        0.2525
     16 O         -11.7159  -17.0987   23.1789 O.3     1  UNL1       -0.4712
     17 O          -5.9932  -18.0551   21.6502 O.3     1  UNL1       -0.4645
     18 C          -5.2111  -19.1471   22.3178 C.3     1  UNL1        0.2315
     19 C          -3.7119  -19.1327   22.2699 C.2     1  UNL1        0.0122
     20 C          -3.0010  -19.3506   20.9672 C.2     1  UNL1       -0.0443
     21 C          -1.5019  -19.3362   20.9192 C.3     1  UNL1        0.0261
     22 C          -3.7894  -19.5829   19.7123 C.3     1  UNL1        0.0261
@<TRIPOS>BOND
     1    15    16    1
     2    16     1    1
     3     1     2   ar
     4     2     3   ar
     5     3     4   ar
     6     4     5   ar
     7     5     6   ar
     8     6     7   ar
     9     7    17    1
    10    17    18    1
    11    18    19    1
    12    19    20    2
    13    20    21    1
    14    20    22    1
    15     7     8   ar
    16     8     9   ar
    17     9    10   ar
    18    10    11    2
    19    10    12   ar
    20    12    13   ar
    21    13    14   ar
    22    14     1   ar
    23     6     2   ar
    24    14     8   ar
@<TRIPOS>MOLECULE
*****
 22 24 0 0 0
SMALL
GASTEIGER

@<TRIPOS>ATOM
      1 C          -5.2500  -17.9753   22.8894 C.ar    1  UNL1        0.1447
      2 C          -5.7340  -16.8138   23.7058 C.ar    1  UNL1        0.0749
      3 C          -5.0881  -16.0190   24.8018 C.ar    1  UNL1        0.0468
      4 C          -6.0609  -14.9675   25.2469 C.ar    1  UNL1        0.1799
      5 O          -7.3079  -15.1125   24.4260 O.2     1  UNL1       -0.4471
      6 C          -7.1059  -16.2535   23.4735 C.ar    1  UNL1        0.1851
      7 C          -7.9939  -16.8548   22.4248 C.ar    1  UNL1        0.2078
      8 C          -7.5099  -18.0163   21.6083 C.ar    1  UNL1        0.1883
      9 O          -8.3980  -18.6176   20.5595 O.2     1  UNL1       -0.4177
     10 C          -7.9141  -19.7791   19.7430 C.ar    1  UNL1        0.3460
     11 O          -8.8020  -20.3804   18.6942 O.2     1  UNL1       -0.2445
     12 C          -6.5421  -20.3394   19.9752 C.ar    1  UNL1        0.0825
     13 C          -5.6541  -19.7382   21.0240 C.ar    1  UNL1        0.0128
     14 C          -6.1381  -18.5766   21.8406 C.ar    1  UNL1        0.0721
     15 C          -2.6755  -17.8255   22.5745 C.3     1  UNL1        0.2525
     16 O          -3.8781  -18.5356   23.1216 O.3     1  UNL1       -0.4712
     17 O          -9.3658  -16.2945   22.1924 O.3     1  UNL1       -0.4645
     18 C         -10.5377  -16.8411   22.9526 C.3     1  UNL1        0.2315
     19 C         -10.3214  -17.8539   24.0378 C.2     1  UNL1        0.0122
     20 C         -10.5084  -19.3139   23.7491 C.2     1  UNL1       -0.0443
     21 C         -10.2921  -20.3267   24.8342 C.3     1  UNL1        0.0261
     22 C         -10.9117  -19.7611   22.3752 C.3     1  UNL1        0.0261
@<TRIPOS>BOND
     1    15    16    1
     2    16     1    1
     3     1     2   ar
     4     2     3   ar
     5     3     4   ar
     6     4     5   ar
     7     5     6   ar
     8     6     7   ar
     9     7    17    1
    10    17    18    1
    11    18    19    1
    12    19    20    2
    13    20    21    1
    14    20    22    1
    15     7     8   ar
    16     8     9   ar
    17     9    10   ar
    18    10    11    2
    19    10    12   ar
    20    12    13   ar
    21    13    14   ar
    22    14     1   ar
    23     6     2   ar
    24    14     8   ar
@<TRIPOS>MOLECULE
*****
 22 24 0 0 0
SMALL
GASTEIGER

@<TRIPOS>ATOM
      1 C          -6.0010  -19.5804   21.0523 C.ar    1  UNL1        0.1447
      2 C          -5.3065  -18.7819   22.1153 C.ar    1  UNL1        0.0749
      3 C          -3.9338  -18.8838   22.7112 C.ar    1  UNL1        0.0468
      4 C          -3.7963  -17.8062   23.7455 C.ar    1  UNL1        0.1799
      5 O          -5.0841  -17.0383   23.7888 O.2     1  UNL1       -0.4471
      6 C          -6.0175  -17.6413   22.7813 C.ar    1  UNL1        0.1851
      7 C          -7.4229  -17.2992   22.3843 C.ar    1  UNL1        0.2078
      8 C          -8.1174  -18.0977   21.3212 C.ar    1  UNL1        0.1883
      9 O          -9.5230  -17.7555   20.9242 O.2     1  UNL1       -0.4177
     10 C         -10.2174  -18.5540   19.8612 C.ar    1  UNL1        0.3460
     11 O         -11.6229  -18.2119   19.4642 O.2     1  UNL1       -0.2445
     12 C          -9.5065  -19.6946   19.1951 C.ar    1  UNL1        0.0825
     13 C          -8.1011  -20.0368   19.5921 C.ar    1  UNL1        0.0128
     14 C          -7.4065  -19.2382   20.6552 C.ar    1  UNL1        0.0721
     15 C          -3.9755  -20.4886   19.7024 C.3     1  UNL1        0.2525
     16 O          -5.2901  -20.7211   20.3862 O.3     1  UNL1       -0.4712
     17 O          -8.1339  -16.1586   23.0503 O.3     1  UNL1       -0.4645
     18 C          -9.2141  -16.4319   24.0545 C.3     1  UNL1        0.2315
     19 C         -10.6479  -16.4873   23.6172 C.2     1  UNL1        0.0122
     20 C         -11.3856  -17.7934   23.6290 C.2     1  UNL1       -0.0443
     21 C         -12.8194  -17.8489   23.1918 C.3     1  UNL1        0.0261
     22 C         -10.6894  -19.0440   24.0780 C.3     1  UNL1        0.0261
@<TRIPOS>BOND
     1    15    16    1
     2    16     1    1
     3     1     2   ar
     4     2     3   ar
     5     3     4   ar
     6     4     5   ar
     7     5     6   ar
     8     6     7   ar
     9     7    17    1
    10    17    18    1
    11    18    19    1
    12    19    20    2
    13    20    21    1
    14    20    22    1
    15     7     8   ar
    16     8     9   ar
    17     9    10   ar
    18    10    11    2
    19    10    12   ar
    20    12    13   ar
    21    13    14   ar
    22    14     1   ar
    23     6     2   ar
    24    14     8   ar
@<TRIPOS>MOLECULE
*****
 22 24 0 0 0
SMALL
GASTEIGER

@<TRIPOS>ATOM
      1 C          -7.7336  -17.8292   21.7948 C.ar    1  UNL1        0.1447
      2 C          -6.9480  -18.9646   21.2086 C.ar    1  UNL1        0.0749
      3 C          -7.2855  -19.9827   20.1601 C.ar    1  UNL1        0.0468
      4 C          -6.0954  -20.8786   19.9838 C.ar    1  UNL1        0.1799
      5 O          -5.0223  -20.4141   20.9234 O.2     1  UNL1       -0.4471
      6 C          -5.5493  -19.2311   21.6804 C.ar    1  UNL1        0.1851
      7 C          -4.9362  -18.3623   22.7383 C.ar    1  UNL1        0.2078
      8 C          -5.7218  -17.2269   23.3245 C.ar    1  UNL1        0.1883
      9 O          -5.1086  -16.3580   24.3824 O.2     1  UNL1       -0.4177
     10 C          -5.8943  -15.2226   24.9686 C.ar    1  UNL1        0.3460
     11 O          -5.2812  -14.3537   26.0265 O.2     1  UNL1       -0.2445
     12 C          -7.2930  -14.9560   24.4969 C.ar    1  UNL1        0.0825
     13 C          -7.9061  -15.8248   23.4390 C.ar    1  UNL1        0.0128
     14 C          -7.1205  -16.9603   22.8528 C.ar    1  UNL1        0.0721
     15 C         -10.2752  -18.3620   21.8753 C.3     1  UNL1        0.2525
     16 O          -9.1324  -17.5625   21.3231 O.3     1  UNL1       -0.4712
     17 O          -3.5375  -18.6289   23.2100 O.3     1  UNL1       -0.4645
     18 C          -2.4073  -17.7668   22.7310 C.3     1  UNL1        0.2315
     19 C          -2.4539  -17.1636   21.3583 C.2     1  UNL1        0.0122
     20 C          -2.1869  -18.0176   20.1544 C.2     1  UNL1       -0.0443
     21 C          -2.2335  -17.4146   18.7818 C.3     1  UNL1        0.0261
     22 C          -1.8733  -19.4748   20.3232 C.3     1  UNL1        0.0261
@<TRIPOS>BOND
     1    15    16    1
     2    16     1    1
     3     1     2   ar
     4     2     3   ar
     5     3     4   ar
     6     4     5   ar
     7     5     6   ar
     8     6     7   ar
     9     7    17    1
    10    17    18    1
    11    18    19    1
    12    19    20    2
    13    20    21    1
    14    20    22    1
    15     7     8   ar
    16     8     9   ar
    17     9    10   ar
    18    10    11    2
    19    10    12   ar
    20    12    13   ar
    21    13    14   ar
    22    14     1   ar
    23     6     2   ar
    24    14     8   ar
@<TRIPOS>MOLECULE
*****
 22 24 0 0 0
SMALL
GASTEIGER

@<TRIPOS>ATOM
      1 C         -12.2856   -3.0217   19.1922 C.ar    1  UNL1        0.1447
      2 C         -13.7696   -3.0105   19.4106 C.ar    1  UNL1        0.0749
      3 C         -14.7481   -1.8890   19.5975 C.ar    1  UNL1        0.0468
      4 C         -16.1116   -2.4884   19.7746 C.ar    1  UNL1        0.1799
      5 O         -15.9759   -3.9803   19.6972 O.2     1  UNL1       -0.4471
      6 C         -14.5284   -4.3029   19.4722 C.ar    1  UNL1        0.1851
      7 C         -13.8032   -5.6066   19.3156 C.ar    1  UNL1        0.2078
      8 C         -12.3193   -5.6178   19.0972 C.ar    1  UNL1        0.1883
      9 O         -11.5941   -6.9216   18.9405 O.2     1  UNL1       -0.4177
     10 C         -10.1102   -6.9328   18.7221 C.ar    1  UNL1        0.3460
     11 O          -9.3850   -8.2365   18.5654 O.2     1  UNL1       -0.2445
     12 C          -9.3512   -5.6404   18.6604 C.ar    1  UNL1        0.0825
     13 C         -10.0764   -4.3367   18.8171 C.ar    1  UNL1        0.0128
     14 C         -11.5605   -4.3255   19.0355 C.ar    1  UNL1        0.0721
     15 C         -11.4579   -0.9607   17.8442 C.3     1  UNL1        0.2525
     16 O         -11.5267   -1.7293   19.1305 O.3     1  UNL1       -0.4712
     17 O         -14.5620   -6.8990   19.3772 O.3     1  UNL1       -0.4645
     18 C         -15.5146   -7.2627   18.2771 C.3     1  UNL1        0.2315
     19 C         -15.7982   -8.7048   17.9768 C.2     1  UNL1        0.0122
     20 C         -16.7488   -9.4781   18.8418 C.2     1  UNL1       -0.0443
     21 C         -17.0324  -10.9201   18.5416 C.3     1  UNL1        0.0261
     22 C         -17.4159   -8.8094   20.0072 C.3     1  UNL1        0.0261
@<TRIPOS>BOND
     1    15    16    1
     2    16     1    1
     3     1     2   ar
     4     2     3   ar
     5     3     4   ar
     6     4     5   ar
     7     5     6   ar
     8     6     7   ar
     9     7    17    1
    10    17    18    1
    11    18    19    1
    12    19    20    2
    13    20    21    1
    14    20    22    1
    15     7     8   ar
    16     8     9   ar
    17     9    10   ar
    18    10    11    2
    19    10    12   ar
    20    12    13   ar
    21    13    14   ar
    22    14     1   ar
    23     6     2   ar
    24    14     8   ar
@<TRIPOS>MOLECULE
*****
 22 24 0 0 0
SMALL
GASTEIGER

@<TRIPOS>ATOM
      1 C          -5.9060  -16.2913   23.8588 C.ar    1  UNL1        0.1447
      2 C          -7.4045  -16.3303   23.9131 C.ar    1  UNL1        0.0749
      3 C          -8.4082  -15.4373   24.5804 C.ar    1  UNL1        0.0468
      4 C          -9.7766  -15.9759   24.2848 C.ar    1  UNL1        0.1799
      5 O          -9.6186  -17.2017   23.4348 O.2     1  UNL1       -0.4471
      6 C          -8.1526  -17.4207   23.2051 C.ar    1  UNL1        0.1851
      7 C          -7.4022  -18.4721   22.4427 C.ar    1  UNL1        0.2078
      8 C          -5.9037  -18.4332   22.3883 C.ar    1  UNL1        0.1883
      9 O          -5.1533  -19.4847   21.6258 O.2     1  UNL1       -0.4177
     10 C          -3.6548  -19.4457   21.5715 C.ar    1  UNL1        0.3460
     11 O          -2.9043  -20.4971   20.8091 O.2     1  UNL1       -0.2445
     12 C          -2.9066  -18.3553   22.2796 C.ar    1  UNL1        0.0825
     13 C          -3.6570  -17.3038   23.0420 C.ar    1  UNL1        0.0128
     14 C          -5.1556  -17.3428   23.0963 C.ar    1  UNL1        0.0721
     15 C          -5.1927  -15.1175   26.0641 C.3     1  UNL1        0.2525
     16 O          -5.1579  -15.2008   24.5669 O.3     1  UNL1       -0.4712
     17 O          -8.1502  -19.5626   21.7346 O.3     1  UNL1       -0.4645
     18 C          -9.5582  -19.3287   21.2731 C.3     1  UNL1        0.2315
     19 C          -9.8680  -18.1755   20.3653 C.2     1  UNL1        0.0122
     20 C         -11.2204  -17.5280   20.4102 C.2     1  UNL1       -0.0443
     21 C         -11.5303  -16.3748   19.5025 C.3     1  UNL1        0.0261
     22 C         -12.2628  -18.0339   21.3630 C.3     1  UNL1        0.0261
@<TRIPOS>BOND
     1    15    16    1
     2    16     1    1
     3     1     2   ar
     4     2     3   ar
     5     3     4   ar
     6     4     5   ar
     7     5     6   ar
     8     6     7   ar
     9     7    17    1
    10    17    18    1
    11    18    19    1
    12    19    20    2
    13    20    21    1
    14    20    22    1
    15     7     8   ar
    16     8     9   ar
    17     9    10   ar
    18    10    11    2
    19    10    12   ar
    20    12    13   ar
    21    13    14   ar
    22    14     1   ar
    23     6     2   ar
    24    14     8   ar
@<TRIPOS>MOLECULE
*****
 22 24 0 0 0
SMALL
GASTEIGER

@<TRIPOS>ATOM
      1 C         -16.2680   -4.9003   19.7868 C.ar    1  UNL1        0.1447
      2 C         -14.9323   -4.2199   19.7337 C.ar    1  UNL1        0.0749
      3 C         -14.5291   -2.7854   19.9061 C.ar    1  UNL1        0.0468
      4 C         -13.0404   -2.6997   19.7438 C.ar    1  UNL1        0.1799
      5 O         -12.5235   -4.0812   19.4712 O.2     1  UNL1       -0.4471
      6 C         -13.6928   -5.0207   19.4649 C.ar    1  UNL1        0.1851
      7 C         -13.7890   -6.5020   19.2492 C.ar    1  UNL1        0.2078
      8 C         -15.1247   -7.1825   19.3023 C.ar    1  UNL1        0.1883
      9 O         -15.2208   -8.6638   19.0866 O.2     1  UNL1       -0.4177
     10 C         -16.5565   -9.3443   19.1397 C.ar    1  UNL1        0.3460
     11 O         -16.6527  -10.8255   18.9240 O.2     1  UNL1       -0.2445
     12 C         -17.7961   -8.5435   19.4085 C.ar    1  UNL1        0.0825
     13 C         -17.6999   -7.0622   19.6242 C.ar    1  UNL1        0.0128
     14 C         -16.3641   -6.3817   19.5711 C.ar    1  UNL1        0.0721
     15 C         -18.1537   -3.3227   18.9470 C.3     1  UNL1        0.2525
     16 O         -17.5076   -4.0996   20.0556 O.3     1  UNL1       -0.4712
     17 O         -12.5494   -7.3028   18.9804 O.3     1  UNL1       -0.4645
     18 C         -12.0275   -7.4297   17.5799 C.3     1  UNL1        0.2315
     19 C         -11.2293   -6.3141   16.9731 C.2     1  UNL1        0.0122
     20 C         -10.0071   -5.7990   17.6739 C.2     1  UNL1       -0.0443
     21 C          -9.2089   -4.6834   17.0671 C.3     1  UNL1        0.0261
     22 C          -9.5832   -6.3997   18.9815 C.3     1  UNL1        0.0261
@<TRIPOS>BOND
     1    15    16    1
     2    16     1    1
     3     1     2   ar
     4     2     3   ar
     5     3     4   ar
     6     4     5   ar
     7     5     6   ar
     8     6     7   ar
     9     7    17    1
    10    17    18    1
    11    18    19    1
    12    19    20    2
    13    20    21    1
    14    20    22    1
    15     7     8   ar
    16     8     9   ar
    17     9    10   ar
    18    10    11    2
    19    10    12   ar
    20    12    13   ar
    21    13    14   ar
    22    14     1   ar
    23     6     2   ar
    24    14     8   ar
