@<TRIPOS>MOLECULE
*****
 39 42 0 0 0
SMALL
GASTEIGER

@<TRIPOS>ATOM
      1 N          -5.3894  -15.2812   22.9557 N.am    1  UNL1       -0.2683
      2 C          -4.4319  -16.3801   22.6014 C.2     1  UNL1        0.3044
      3 O          -4.8692  -17.8125   22.6869 O.2     1  UNL1       -0.2525
      4 N          -3.0371  -16.0468   22.1616 N.am    1  UNL1       -0.2903
      5 H          -5.1024  -14.3411   22.8995 H       1  UNL1        0.1564
      6 H          -2.7501  -15.1067   22.1055 H       1  UNL1        0.1509
      7 C          -8.4726  -16.1776   25.2882 C.ar    1  UNL1        0.0360
      8 C          -7.0779  -15.8442   24.8484 C.ar    1  UNL1        0.0176
      9 C          -6.7843  -15.6146   23.3954 C.ar    1  UNL1        0.0518
     10 C          -7.8855  -15.7184   22.3822 C.ar    1  UNL1        0.0178
     11 C          -9.2802  -16.0518   22.8220 C.ar    1  UNL1        0.0387
     12 C          -9.5738  -16.2814   24.2750 C.ar    1  UNL1        0.0060
     13 C         -10.3815  -16.1557   21.8088 C.ar    1  UNL1        0.1839
     14 N         -10.2933  -15.7534   20.3665 N.ar    1  UNL1       -0.1081
     15 N         -11.6215  -16.0291   19.7263 N.ar    1  UNL1       -0.0227
     16 N         -12.5306  -16.6018   20.7731 N.ar    1  UNL1       -0.0429
     17 N         -11.7642  -16.6800   22.0601 N.ar    1  UNL1       -0.2113
     18 C         -12.2885  -17.1925   23.3687 C.3     1  UNL1        0.1573
     19 C          -8.5623  -15.2994   27.7317 C.3     1  UNL1        0.0773
     20 C          -8.7662  -16.4072   26.7411 C.2     1  UNL1        0.1735
     21 O          -9.2637  -17.7445   27.2036 O.2     1  UNL1       -0.2913
     22 C          -2.0796  -17.1457   21.8074 C.3     1  UNL1        0.0745
     23 C          -1.6609  -18.1404   22.8492 C.3     1  UNL1        0.0214
     24 C          -1.5408  -17.2499   20.4114 C.3     1  UNL1        0.0369
     25 C          -2.4154  -17.7635   19.3063 C.3     1  UNL1        0.0738
     26 N          -3.4852  -18.7721   19.6037 N.3     1  UNL1       -0.2726
     27 C          -3.1096  -20.1729   19.9868 C.3     1  UNL1        0.0721
     28 C          -4.1794  -21.1814   20.2841 C.3     1  UNL1        0.0174
     29 C          -5.6247  -20.7892   20.1984 C.3     1  UNL1        0.0031
     30 C          -6.0002  -19.3885   19.8153 C.3     1  UNL1        0.0204
     31 C          -4.9305  -18.3799   19.5179 C.3     1  UNL1        0.0724
     32 C          -7.4455  -18.9963   19.7295 C.3     1  UNL1        0.0277
     33 C          -8.3860  -19.3504   20.8430 C.ar    1  UNL1       -0.0220
     34 C          -9.8249  -19.6500   20.5427 C.ar    1  UNL1       -0.0020
     35 C         -10.7654  -20.0042   21.6561 C.ar    1  UNL1        0.0293
     36 C         -10.2673  -20.0587   23.0699 C.ar    1  UNL1        0.1401
     37 F         -11.2079  -20.4129   24.1834 F       1  UNL1       -0.2042
     38 C          -8.8285  -19.7591   23.3703 C.ar    1  UNL1        0.0293
     39 C          -7.8879  -19.4049   22.2568 C.ar    1  UNL1       -0.0020
@<TRIPOS>BOND
     1    19    20    1
     2    20    21    2
     3    20     7    1
     4     7     8   ar
     5     8     9   ar
     6     9     1    1
     7     1     2   am
     8     2     3    2
     9     2     4   am
    10     4    22    1
    11    22    23    1
    12    22    24    1
    13    24    25    1
    14    25    26    1
    15    26    27    1
    16    27    28    1
    17    28    29    1
    18    29    30    1
    19    30    32    1
    20    32    33    1
    21    33    34   ar
    22    34    35   ar
    23    35    36   ar
    24    36    37    1
    25    36    38   ar
    26    38    39   ar
    27    30    31    1
    28     9    10   ar
    29    10    11   ar
    30    11    13    1
    31    13    14   ar
    32    14    15   ar
    33    15    16   ar
    34    16    17   ar
    35    17    18    1
    36    11    12   ar
    37    12     7   ar
    38    31    26    1
    39    17    13   ar
    40    39    33   ar
    41     1     5    1
    42     4     6    1
@<TRIPOS>MOLECULE
*****
 39 42 0 0 0
SMALL
GASTEIGER

@<TRIPOS>ATOM
      1 N          -4.7785  -20.3144   20.4569 N.am    1  UNL1       -0.2683
      2 C          -3.9738  -19.2089   19.8400 C.2     1  UNL1        0.3044
      3 O          -4.6638  -17.9953   19.2910 O.2     1  UNL1       -0.2525
      4 N          -2.4793  -19.3169   19.7722 N.am    1  UNL1       -0.2903
      5 H          -4.3256  -21.1108   20.8172 H       1  UNL1        0.1564
      6 H          -2.0265  -20.1134   20.1325 H       1  UNL1        0.1509
      7 C          -8.5920  -20.3149   19.3583 C.ar    1  UNL1        0.0360
      8 C          -7.0975  -20.4229   19.2905 C.ar    1  UNL1        0.0176
      9 C          -6.2731  -20.2063   20.5248 C.ar    1  UNL1        0.0518
     10 C          -6.9432  -19.8816   21.8268 C.ar    1  UNL1        0.0178
     11 C          -8.4377  -19.7736   21.8946 C.ar    1  UNL1        0.0387
     12 C          -9.2621  -19.9902   20.6604 C.ar    1  UNL1        0.0060
     13 C          -9.1080  -19.4489   23.1968 C.ar    1  UNL1        0.1839
     14 N          -9.1706  -20.3394   24.4022 N.ar    1  UNL1       -0.1081
     15 N          -9.9345  -19.6177   25.4725 N.ar    1  UNL1       -0.0227
     16 N         -10.3440  -18.2811   24.9285 N.ar    1  UNL1       -0.0429
     17 N          -9.8332  -18.1768   23.5220 N.ar    1  UNL1       -0.2113
     18 C         -10.0155  -17.0060   22.6023 C.3     1  UNL1        0.1573
     19 C          -8.9078  -21.4217   17.0291 C.3     1  UNL1        0.0773
     20 C          -9.4164  -20.5315   18.1240 C.2     1  UNL1        0.1735
     21 O         -10.7493  -19.8579   17.9846 O.2     1  UNL1       -0.2913
     22 C          -1.6747  -18.2114   19.1553 C.3     1  UNL1        0.0745
     23 C          -1.9526  -17.7776   17.7465 C.3     1  UNL1        0.0214
     24 C          -0.5922  -17.5398   19.9472 C.3     1  UNL1        0.0369
     25 C          -0.9496  -16.5618   21.0270 C.3     1  UNL1        0.0738
     26 N          -2.0754  -16.8650   21.9708 N.3     1  UNL1       -0.2726
     27 C          -2.1818  -18.2226   22.5998 C.3     1  UNL1        0.0721
     28 C          -3.3076  -18.5257   23.5436 C.3     1  UNL1        0.0174
     29 C          -4.3269  -17.4712   23.8584 C.3     1  UNL1        0.0031
     30 C          -4.2205  -16.1136   23.2294 C.3     1  UNL1        0.0204
     31 C          -3.0947  -15.8105   22.2856 C.3     1  UNL1        0.0724
     32 C          -5.2398  -15.0592   23.5442 C.3     1  UNL1        0.0277
     33 C          -6.1561  -15.2290   24.7196 C.ar    1  UNL1       -0.0220
     34 C          -7.6426  -15.2262   24.5183 C.ar    1  UNL1       -0.0020
     35 C          -8.5589  -15.3960   25.6937 C.ar    1  UNL1        0.0293
     36 C          -7.9888  -15.5685   27.0703 C.ar    1  UNL1        0.1401
     37 F          -8.9052  -15.7383   28.2457 F       1  UNL1       -0.2042
     38 C          -6.5024  -15.5713   27.2716 C.ar    1  UNL1        0.0293
     39 C          -5.5860  -15.4015   26.0962 C.ar    1  UNL1       -0.0020
@<TRIPOS>BOND
     1    19    20    1
     2    20    21    2
     3    20     7    1
     4     7     8   ar
     5     8     9   ar
     6     9     1    1
     7     1     2   am
     8     2     3    2
     9     2     4   am
    10     4    22    1
    11    22    23    1
    12    22    24    1
    13    24    25    1
    14    25    26    1
    15    26    27    1
    16    27    28    1
    17    28    29    1
    18    29    30    1
    19    30    32    1
    20    32    33    1
    21    33    34   ar
    22    34    35   ar
    23    35    36   ar
    24    36    37    1
    25    36    38   ar
    26    38    39   ar
    27    30    31    1
    28     9    10   ar
    29    10    11   ar
    30    11    13    1
    31    13    14   ar
    32    14    15   ar
    33    15    16   ar
    34    16    17   ar
    35    17    18    1
    36    11    12   ar
    37    12     7   ar
    38    31    26    1
    39    17    13   ar
    40    39    33   ar
    41     1     5    1
    42     4     6    1
@<TRIPOS>MOLECULE
*****
 39 42 0 0 0
SMALL
GASTEIGER

@<TRIPOS>ATOM
      1 N          -6.9909  -20.3385   20.3064 N.am    1  UNL1       -0.2683
      2 C          -5.6490  -19.6700   20.3566 C.2     1  UNL1        0.3044
      3 O          -5.4633  -18.4208   21.1659 O.2     1  UNL1       -0.2525
      4 N          -4.4930  -20.2507   19.5975 N.am    1  UNL1       -0.2903
      5 H          -7.1129  -21.1584   19.7752 H       1  UNL1        0.1564
      6 H          -4.6149  -21.0706   19.0663 H       1  UNL1        0.1509
      7 C          -9.5471  -19.5853   23.2473 C.ar    1  UNL1        0.0360
      8 C          -8.3911  -20.1660   22.4881 C.ar    1  UNL1        0.0176
      9 C          -8.1470  -19.7577   21.0655 C.ar    1  UNL1        0.0518
     10 C          -9.0590  -18.7687   20.4021 C.ar    1  UNL1        0.0178
     11 C         -10.2150  -18.1880   21.1612 C.ar    1  UNL1        0.0387
     12 C         -10.4590  -18.5963   22.5838 C.ar    1  UNL1        0.0060
     13 C         -11.1270  -17.1990   20.4978 C.ar    1  UNL1        0.1839
     14 N         -10.7811  -16.3288   19.3259 N.ar    1  UNL1       -0.1081
     15 N         -11.9853  -15.4985   18.9936 N.ar    1  UNL1       -0.0227
     16 N         -13.0755  -15.8556   19.9601 N.ar    1  UNL1       -0.0429
     17 N         -12.5451  -16.9065   20.8897 N.ar    1  UNL1       -0.2113
     18 C         -13.3001  -17.5516   22.0138 C.3     1  UNL1        0.1573
     19 C         -10.2982  -18.9892   25.6619 C.3     1  UNL1        0.0773
     20 C          -9.7911  -19.9935   24.6698 C.2     1  UNL1        0.1735
     21 O          -9.5282  -21.4061   25.1004 O.2     1  UNL1       -0.2913
     22 C          -3.1511  -19.5823   19.6477 C.3     1  UNL1        0.0745
     23 C          -2.8094  -18.5107   18.6551 C.3     1  UNL1        0.0214
     24 C          -2.1510  -19.9853   20.6904 C.3     1  UNL1        0.0369
     25 C          -2.3249  -19.5343   22.1104 C.3     1  UNL1        0.0738
     26 N          -2.7297  -18.1201   22.4040 N.3     1  UNL1       -0.2726
     27 C          -2.1671  -16.9942   21.5882 C.3     1  UNL1        0.0721
     28 C          -2.5720  -15.5800   21.8818 C.3     1  UNL1        0.0174
     29 C          -3.5395  -15.2919   22.9912 C.3     1  UNL1        0.0031
     30 C          -4.1022  -16.4178   23.8070 C.3     1  UNL1        0.0204
     31 C          -3.6973  -17.8319   23.5134 C.3     1  UNL1        0.0724
     32 C          -5.0697  -16.1296   24.9164 C.3     1  UNL1        0.0277
     33 C          -6.5325  -15.9859   24.6174 C.ar    1  UNL1       -0.0220
     34 C          -7.5078  -15.7600   25.7345 C.ar    1  UNL1       -0.0020
     35 C          -8.9706  -15.6162   25.4354 C.ar    1  UNL1        0.0293
     36 C          -9.4582  -15.6983   24.0193 C.ar    1  UNL1        0.1401
     37 F         -10.9211  -15.5545   23.7203 F       1  UNL1       -0.2042
     38 C          -8.4831  -15.9242   22.9022 C.ar    1  UNL1        0.0293
     39 C          -7.0202  -16.0680   23.2012 C.ar    1  UNL1       -0.0020
@<TRIPOS>BOND
     1    19    20    1
     2    20    21    2
     3    20     7    1
     4     7     8   ar
     5     8     9   ar
     6     9     1    1
     7     1     2   am
     8     2     3    2
     9     2     4   am
    10     4    22    1
    11    22    23    1
    12    22    24    1
    13    24    25    1
    14    25    26    1
    15    26    27    1
    16    27    28    1
    17    28    29    1
    18    29    30    1
    19    30    32    1
    20    32    33    1
    21    33    34   ar
    22    34    35   ar
    23    35    36   ar
    24    36    37    1
    25    36    38   ar
    26    38    39   ar
    27    30    31    1
    28     9    10   ar
    29    10    11   ar
    30    11    13    1
    31    13    14   ar
    32    14    15   ar
    33    15    16   ar
    34    16    17   ar
    35    17    18    1
    36    11    12   ar
    37    12     7   ar
    38    31    26    1
    39    17    13   ar
    40    39    33   ar
    41     1     5    1
    42     4     6    1
@<TRIPOS>MOLECULE
*****
 39 42 0 0 0
SMALL
GASTEIGER

@<TRIPOS>ATOM
      1 N           4.5332   -2.0754   24.7652 N.am    1  UNL1       -0.2683
      2 C           5.6633   -1.1971   25.2142 C.2     1  UNL1        0.3044
      3 O           6.3110   -0.2538   24.2442 O.2     1  UNL1       -0.2525
      4 N           6.1455   -1.2620   26.6330 N.am    1  UNL1       -0.2903
      5 H           4.1081   -2.6945   25.4017 H       1  UNL1        0.1564
      6 H           5.7204   -1.8811   27.2696 H       1  UNL1        0.1509
      7 C           4.0241   -2.9718   20.9328 C.ar    1  UNL1        0.0360
      8 C           4.5064   -3.0367   22.3516 C.ar    1  UNL1        0.0176
      9 C           4.0509   -2.0104   23.3463 C.ar    1  UNL1        0.0518
     10 C           3.1133   -0.9192   22.9221 C.ar    1  UNL1        0.0178
     11 C           2.6310   -0.8543   21.5032 C.ar    1  UNL1        0.0387
     12 C           3.0865   -1.8805   20.5086 C.ar    1  UNL1        0.0060
     13 C           1.6933    0.2370   21.0790 C.ar    1  UNL1        0.1839
     14 N           0.2107    0.1032   20.8945 N.ar    1  UNL1       -0.1081
     15 N          -0.3254    1.4371   20.4662 N.ar    1  UNL1       -0.0227
     16 N           0.8260    2.3952   20.3860 N.ar    1  UNL1       -0.0429
     17 N           2.0736    1.6535   20.7647 N.ar    1  UNL1       -0.2113
     18 C           3.4583    2.2276   20.8195 C.3     1  UNL1        0.1573
     19 C           3.6349   -4.3052   18.7372 C.3     1  UNL1        0.0773
     20 C           4.4796   -3.9980   19.9381 C.2     1  UNL1        0.1735
     21 O           5.7796   -4.7172   20.1443 O.2     1  UNL1       -0.2913
     22 C           7.2756   -0.3837   27.0820 C.3     1  UNL1        0.0745
     23 C           6.9904    0.8641   27.8642 C.3     1  UNL1        0.0214
     24 C           8.6906   -0.7531   26.7488 C.3     1  UNL1        0.0369
     25 C           9.0722   -2.1952   26.5919 C.3     1  UNL1        0.0738
     26 N           8.6715   -2.9471   25.3573 N.3     1  UNL1       -0.2726
     27 C           7.8587   -4.2023   25.4743 C.3     1  UNL1        0.0721
     28 C           7.4580   -4.9541   24.2397 C.3     1  UNL1        0.0174
     29 C           7.8701   -4.4506   22.8881 C.3     1  UNL1        0.0031
     30 C           8.6828   -3.1953   22.7712 C.3     1  UNL1        0.0204
     31 C           9.0835   -2.4436   24.0057 C.3     1  UNL1        0.0724
     32 C           9.0949   -2.6918   21.4196 C.3     1  UNL1        0.0277
     33 C           8.0986   -1.9906   20.5447 C.ar    1  UNL1       -0.0220
     34 C           7.2659   -0.8742   21.1019 C.ar    1  UNL1       -0.0020
     35 C           6.2696   -0.1729   20.2271 C.ar    1  UNL1        0.0293
     36 C           6.1058   -0.5879   18.7950 C.ar    1  UNL1        0.1401
     37 F           5.1094    0.1135   17.9201 F       1  UNL1       -0.2042
     38 C           6.9384   -1.7042   18.2377 C.ar    1  UNL1        0.0293
     39 C           7.9348   -2.4056   19.1126 C.ar    1  UNL1       -0.0020
@<TRIPOS>BOND
     1    19    20    1
     2    20    21    2
     3    20     7    1
     4     7     8   ar
     5     8     9   ar
     6     9     1    1
     7     1     2   am
     8     2     3    2
     9     2     4   am
    10     4    22    1
    11    22    23    1
    12    22    24    1
    13    24    25    1
    14    25    26    1
    15    26    27    1
    16    27    28    1
    17    28    29    1
    18    29    30    1
    19    30    32    1
    20    32    33    1
    21    33    34   ar
    22    34    35   ar
    23    35    36   ar
    24    36    37    1
    25    36    38   ar
    26    38    39   ar
    27    30    31    1
    28     9    10   ar
    29    10    11   ar
    30    11    13    1
    31    13    14   ar
    32    14    15   ar
    33    15    16   ar
    34    16    17   ar
    35    17    18    1
    36    11    12   ar
    37    12     7   ar
    38    31    26    1
    39    17    13   ar
    40    39    33   ar
    41     1     5    1
    42     4     6    1
@<TRIPOS>MOLECULE
*****
 39 42 0 0 0
SMALL
GASTEIGER

@<TRIPOS>ATOM
      1 N           2.5058   -0.6730   21.8853 N.am    1  UNL1       -0.2683
      2 C           1.9230    0.7092   21.8836 C.2     1  UNL1        0.3044
      3 O           2.7879    1.8882   22.2183 O.2     1  UNL1       -0.2525
      4 N           0.4755    0.9124   21.5473 N.am    1  UNL1       -0.2903
      5 H           1.9382   -1.4468   21.6657 H       1  UNL1        0.1564
      6 H          -0.0922    0.1385   21.3276 H       1  UNL1        0.1509
      7 C           6.4571   -0.3077   21.8234 C.ar    1  UNL1        0.0360
      8 C           5.0095   -0.1046   21.4871 C.ar    1  UNL1        0.0176
      9 C           3.9535   -0.8761   22.2217 C.ar    1  UNL1        0.0518
     10 C           4.3451   -1.8506   23.2926 C.ar    1  UNL1        0.0178
     11 C           5.7927   -2.0537   23.6289 C.ar    1  UNL1        0.0387
     12 C           6.8487   -1.2822   22.8943 C.ar    1  UNL1        0.0060
     13 C           6.1843   -3.0282   24.6999 C.ar    1  UNL1        0.1839
     14 N           6.5085   -4.4786   24.4965 N.ar    1  UNL1       -0.1081
     15 N           6.8450   -5.0703   25.8331 N.ar    1  UNL1       -0.0227
     16 N           6.7289   -3.9856   26.8627 N.ar    1  UNL1       -0.0429
     17 N           6.3205   -2.7235   26.1623 N.ar    1  UNL1       -0.2113
     18 C           6.0890   -1.3908   26.8106 C.3     1  UNL1        0.1573
     19 C           7.1971    1.8169   20.5240 C.3     1  UNL1        0.0773
     20 C           7.5132    0.4637   21.0888 C.2     1  UNL1        0.1735
     21 O           8.8853   -0.1179   20.9190 O.2     1  UNL1       -0.2913
     22 C          -0.1073    2.2945   21.5456 C.3     1  UNL1        0.0745
     23 C          -0.5964    2.9038   22.8261 C.3     1  UNL1        0.0214
     24 C          -0.2011    3.0674   20.2635 C.3     1  UNL1        0.0369
     25 C           0.1593    2.4108   18.9639 C.3     1  UNL1        0.0738
     26 N           1.5893    2.0670   18.6685 N.3     1  UNL1       -0.2726
     27 C           2.6589    3.1065   18.8281 C.3     1  UNL1        0.0721
     28 C           4.0887    2.7627   18.5327 C.3     1  UNL1        0.0174
     29 C           4.4490    1.3795   18.0777 C.3     1  UNL1        0.0031
     30 C           3.3794    0.3401   17.9180 C.3     1  UNL1        0.0204
     31 C           1.9495    0.6839   18.2135 C.3     1  UNL1        0.0724
     32 C           3.7396   -1.0431   17.4630 C.3     1  UNL1        0.0277
     33 C           4.5653   -1.9317   18.3454 C.ar    1  UNL1       -0.0220
     34 C           3.8947   -2.9241   19.2485 C.ar    1  UNL1       -0.0020
     35 C           4.7203   -3.8127   20.1309 C.ar    1  UNL1        0.0293
     36 C           6.2166   -3.7089   20.1103 C.ar    1  UNL1        0.1401
     37 F           7.0423   -4.5976   20.9927 F       1  UNL1       -0.2042
     38 C           6.8872   -2.7165   19.2073 C.ar    1  UNL1        0.0293
     39 C           6.0615   -1.8279   18.3248 C.ar    1  UNL1       -0.0020
@<TRIPOS>BOND
     1    19    20    1
     2    20    21    2
     3    20     7    1
     4     7     8   ar
     5     8     9   ar
     6     9     1    1
     7     1     2   am
     8     2     3    2
     9     2     4   am
    10     4    22    1
    11    22    23    1
    12    22    24    1
    13    24    25    1
    14    25    26    1
    15    26    27    1
    16    27    28    1
    17    28    29    1
    18    29    30    1
    19    30    32    1
    20    32    33    1
    21    33    34   ar
    22    34    35   ar
    23    35    36   ar
    24    36    37    1
    25    36    38   ar
    26    38    39   ar
    27    30    31    1
    28     9    10   ar
    29    10    11   ar
    30    11    13    1
    31    13    14   ar
    32    14    15   ar
    33    15    16   ar
    34    16    17   ar
    35    17    18    1
    36    11    12   ar
    37    12     7   ar
    38    31    26    1
    39    17    13   ar
    40    39    33   ar
    41     1     5    1
    42     4     6    1
@<TRIPOS>MOLECULE
*****
 39 42 0 0 0
SMALL
GASTEIGER

@<TRIPOS>ATOM
      1 N           4.6586   -2.3323   23.9250 N.am    1  UNL1       -0.2683
      2 C           5.7510   -3.3324   24.1628 C.2     1  UNL1        0.3044
      3 O           6.3202   -4.1091   23.0126 O.2     1  UNL1       -0.2525
      4 N           6.2742   -3.5558   25.5507 N.am    1  UNL1       -0.2903
      5 H           4.2851   -1.8225   24.6799 H       1  UNL1        0.1564
      6 H           5.9006   -3.0461   26.3056 H       1  UNL1        0.1509
      7 C           4.1263   -2.7166   20.0111 C.ar    1  UNL1        0.0360
      8 C           4.6494   -2.9399   21.3990 C.ar    1  UNL1        0.0176
      9 C           4.1354   -2.1089   22.5371 C.ar    1  UNL1        0.0518
     10 C           3.0983   -1.0544   22.2872 C.ar    1  UNL1        0.0178
     11 C           2.5752   -0.8311   20.8992 C.ar    1  UNL1        0.0387
     12 C           3.0892   -1.6621   19.7612 C.ar    1  UNL1        0.0060
     13 C           1.5380    0.2234   20.6493 C.ar    1  UNL1        0.1839
     14 N           0.0588    0.0688   20.8441 N.ar    1  UNL1       -0.1081
     15 N          -0.5955    1.3674   20.4759 N.ar    1  UNL1       -0.0227
     16 N           0.4794    2.3246   20.0535 N.ar    1  UNL1       -0.0429
     17 N           1.7980    1.6176   20.1606 N.ar    1  UNL1       -0.2113
     18 C           3.1408    2.2021   19.8361 C.3     1  UNL1        0.1573
     19 C           4.4044   -5.0289   18.8596 C.3     1  UNL1        0.0773
     20 C           4.6403   -3.5476   18.8730 C.2     1  UNL1        0.1735
     21 O           5.3902   -2.8975   17.7484 O.2     1  UNL1       -0.2913
     22 C           7.3665   -4.5559   25.7885 C.3     1  UNL1        0.0745
     23 C           8.7821   -4.2219   25.4216 C.3     1  UNL1        0.0214
     24 C           7.0433   -5.8900   26.3932 C.3     1  UNL1        0.0369
     25 C           6.2269   -5.9662   27.6492 C.3     1  UNL1        0.0738
     26 N           6.7494   -5.3664   28.9210 N.3     1  UNL1       -0.2726
     27 C           7.5846   -6.1937   29.8526 C.3     1  UNL1        0.0721
     28 C           8.1071   -5.5939   31.1242 C.3     1  UNL1        0.0174
     29 C           7.7943   -4.1668   31.4643 C.3     1  UNL1        0.0031
     30 C           6.9591   -3.3396   30.5327 C.3     1  UNL1        0.0204
     31 C           6.4366   -3.9394   29.2610 C.3     1  UNL1        0.0724
     32 C           6.6463   -1.9125   30.8727 C.3     1  UNL1        0.0277
     33 C           6.1328   -1.5620   32.2378 C.ar    1  UNL1       -0.0220
     34 C           6.9368   -0.6683   33.1350 C.ar    1  UNL1       -0.0020
     35 C           6.4233   -0.3178   34.5000 C.ar    1  UNL1        0.0293
     36 C           5.1057   -0.8610   34.9679 C.ar    1  UNL1        0.1401
     37 F           4.5921   -0.5104   36.3331 F       1  UNL1       -0.2042
     38 C           4.3016   -1.7546   34.0708 C.ar    1  UNL1        0.0293
     39 C           4.8152   -2.1051   32.7057 C.ar    1  UNL1       -0.0020
@<TRIPOS>BOND
     1    19    20    1
     2    20    21    2
     3    20     7    1
     4     7     8   ar
     5     8     9   ar
     6     9     1    1
     7     1     2   am
     8     2     3    2
     9     2     4   am
    10     4    22    1
    11    22    23    1
    12    22    24    1
    13    24    25    1
    14    25    26    1
    15    26    27    1
    16    27    28    1
    17    28    29    1
    18    29    30    1
    19    30    32    1
    20    32    33    1
    21    33    34   ar
    22    34    35   ar
    23    35    36   ar
    24    36    37    1
    25    36    38   ar
    26    38    39   ar
    27    30    31    1
    28     9    10   ar
    29    10    11   ar
    30    11    13    1
    31    13    14   ar
    32    14    15   ar
    33    15    16   ar
    34    16    17   ar
    35    17    18    1
    36    11    12   ar
    37    12     7   ar
    38    31    26    1
    39    17    13   ar
    40    39    33   ar
    41     1     5    1
    42     4     6    1
@<TRIPOS>MOLECULE
*****
 39 42 0 0 0
SMALL
GASTEIGER

@<TRIPOS>ATOM
      1 N          -0.7785    1.3125   20.4986 N.am    1  UNL1       -0.2683
      2 C          -1.0095    2.7945   20.5200 C.2     1  UNL1        0.3044
      3 O           0.1096    3.7227   20.8890 O.2     1  UNL1       -0.2525
      4 N          -2.3595    3.3482   20.1723 N.am    1  UNL1       -0.2903
      5 H          -1.5130    0.7033   20.2565 H       1  UNL1        0.1564
      6 H          -3.0940    2.7389   19.9301 H       1  UNL1        0.1509
      7 C           2.3496    0.1182   22.6290 C.ar    1  UNL1        0.0360
      8 C           0.9996    0.6718   22.2813 C.ar    1  UNL1        0.0176
      9 C           0.5715    0.7588   20.8463 C.ar    1  UNL1        0.0518
     10 C           1.4935    0.2922   19.7590 C.ar    1  UNL1        0.0178
     11 C           2.8435   -0.2615   20.1068 C.ar    1  UNL1        0.0387
     12 C           3.2715   -0.3485   21.5417 C.ar    1  UNL1        0.0060
     13 C           3.7655   -0.7282   19.0194 C.ar    1  UNL1        0.1839
     14 N           4.5417    0.1508   18.0840 N.ar    1  UNL1       -0.1081
     15 N           5.3291   -0.7335   17.1631 N.ar    1  UNL1       -0.0227
     16 N           5.0395   -2.1590   17.5294 N.ar    1  UNL1       -0.0429
     17 N           4.0732   -2.1557   18.6767 N.ar    1  UNL1       -0.2113
     18 C           3.5129   -3.3672   19.3610 C.3     1  UNL1        0.1573
     19 C           2.4970    1.1686   25.0007 C.3     1  UNL1        0.0773
     20 C           2.7776    0.0311   24.0640 C.2     1  UNL1        0.1735
     21 O           3.4863   -1.1933   24.5624 O.2     1  UNL1       -0.2913
     22 C          -2.5905    4.8301   20.1936 C.3     1  UNL1        0.0745
     23 C          -2.3324    5.6472   18.9624 C.3     1  UNL1        0.0214
     24 C          -3.0795    5.4950   21.4461 C.3     1  UNL1        0.0369
     25 C          -4.1167    4.8229   22.2961 C.3     1  UNL1        0.0738
     26 N          -3.7840    4.4105   23.6995 N.3     1  UNL1       -0.2726
     27 C          -4.7116    4.7623   24.8245 C.3     1  UNL1        0.0721
     28 C          -4.3788    4.3499   26.2277 C.3     1  UNL1        0.0174
     29 C          -3.1184    3.5857   26.5060 C.3     1  UNL1        0.0031
     30 C          -2.1908    3.2339   25.3809 C.3     1  UNL1        0.0204
     31 C          -2.5236    3.6463   23.9777 C.3     1  UNL1        0.0724
     32 C          -0.9305    2.4696   25.6592 C.3     1  UNL1        0.0277
     33 C          -0.4810    2.2539   27.0738 C.ar    1  UNL1       -0.0220
     34 C          -0.7958    0.9643   27.7724 C.ar    1  UNL1       -0.0020
     35 C          -0.3463    0.7485   29.1871 C.ar    1  UNL1        0.0293
     36 C           0.4180    1.8223   29.9033 C.ar    1  UNL1        0.1401
     37 F           0.8675    1.6064   31.3180 F       1  UNL1       -0.2042
     38 C           0.7328    3.1118   29.2048 C.ar    1  UNL1        0.0293
     39 C           0.2833    3.3276   27.7900 C.ar    1  UNL1       -0.0020
@<TRIPOS>BOND
     1    19    20    1
     2    20    21    2
     3    20     7    1
     4     7     8   ar
     5     8     9   ar
     6     9     1    1
     7     1     2   am
     8     2     3    2
     9     2     4   am
    10     4    22    1
    11    22    23    1
    12    22    24    1
    13    24    25    1
    14    25    26    1
    15    26    27    1
    16    27    28    1
    17    28    29    1
    18    29    30    1
    19    30    32    1
    20    32    33    1
    21    33    34   ar
    22    34    35   ar
    23    35    36   ar
    24    36    37    1
    25    36    38   ar
    26    38    39   ar
    27    30    31    1
    28     9    10   ar
    29    10    11   ar
    30    11    13    1
    31    13    14   ar
    32    14    15   ar
    33    15    16   ar
    34    16    17   ar
    35    17    18    1
    36    11    12   ar
    37    12     7   ar
    38    31    26    1
    39    17    13   ar
    40    39    33   ar
    41     1     5    1
    42     4     6    1
@<TRIPOS>MOLECULE
*****
 39 42 0 0 0
SMALL
GASTEIGER

@<TRIPOS>ATOM
      1 N           0.5800    1.1977   19.1358 N.am    1  UNL1       -0.2683
      2 C           0.4083    2.3742   20.0504 C.2     1  UNL1        0.3044
      3 O           1.5839    2.9091   20.8131 O.2     1  UNL1       -0.2525
      4 N          -0.9391    3.0157   20.2022 N.am    1  UNL1       -0.2903
      5 H          -0.1916    0.8467   18.6351 H       1  UNL1        0.1564
      6 H          -1.7107    2.6646   19.7016 H       1  UNL1        0.1509
      7 C           4.3858    0.6562   18.1494 C.ar    1  UNL1        0.0360
      8 C           3.0384    1.2976   18.3012 C.ar    1  UNL1        0.0176
      9 C           1.9274    0.5562   18.9839 C.ar    1  UNL1        0.0518
     10 C           2.1638   -0.8266   19.5147 C.ar    1  UNL1        0.0178
     11 C           3.5112   -1.4681   19.3629 C.ar    1  UNL1        0.0387
     12 C           4.6222   -0.7267   18.6802 C.ar    1  UNL1        0.0060
     13 C           3.7476   -2.8510   19.8937 C.ar    1  UNL1        0.1839
     14 N           3.4646   -4.1337   19.1694 N.ar    1  UNL1       -0.1081
     15 N           3.8506   -5.2695   20.0700 N.ar    1  UNL1       -0.0227
     16 N           4.3722   -4.6886   21.3509 N.ar    1  UNL1       -0.0429
     17 N           4.3086   -3.1940   21.2419 N.ar    1  UNL1       -0.2113
     18 C           4.7316   -2.2143   22.2960 C.3     1  UNL1        0.1573
     19 C           6.4312    0.6684   16.5474 C.3     1  UNL1        0.0773
     20 C           5.4968    1.3976   17.4667 C.2     1  UNL1        0.1735
     21 O           5.6733    2.8682   17.7033 O.2     1  UNL1       -0.2913
     22 C          -1.1108    4.1921   21.1169 C.3     1  UNL1        0.0745
     23 C          -1.2351    3.9798   22.5966 C.3     1  UNL1        0.0214
     24 C          -1.1583    5.5808   20.5518 C.3     1  UNL1        0.0369
     25 C          -2.0974    5.9011   19.4269 C.3     1  UNL1        0.0738
     26 N          -3.3872    5.1477   19.2891 N.3     1  UNL1       -0.2726
     27 C          -3.7004    4.4240   18.0132 C.3     1  UNL1        0.0721
     28 C          -4.9902    3.6706   17.8755 C.3     1  UNL1        0.0174
     29 C          -5.9667    3.6411   19.0137 C.3     1  UNL1        0.0031
     30 C          -5.6535    4.3648   20.2896 C.3     1  UNL1        0.0204
     31 C          -4.3638    5.1181   20.4273 C.3     1  UNL1        0.0724
     32 C          -6.6300    4.3353   21.4278 C.3     1  UNL1        0.0277
     33 C          -6.1325    4.2717   22.8414 C.ar    1  UNL1       -0.0220
     34 C          -5.0992    3.2553   23.2279 C.ar    1  UNL1       -0.0020
     35 C          -4.6017    3.1917   24.6415 C.ar    1  UNL1        0.0293
     36 C          -5.1374    4.1444   25.6687 C.ar    1  UNL1        0.1401
     37 F          -4.6398    4.0808   27.0824 F       1  UNL1       -0.2042
     38 C          -6.1706    5.1608   25.2824 C.ar    1  UNL1        0.0293
     39 C          -6.6682    5.2244   23.8687 C.ar    1  UNL1       -0.0020
@<TRIPOS>BOND
     1    19    20    1
     2    20    21    2
     3    20     7    1
     4     7     8   ar
     5     8     9   ar
     6     9     1    1
     7     1     2   am
     8     2     3    2
     9     2     4   am
    10     4    22    1
    11    22    23    1
    12    22    24    1
    13    24    25    1
    14    25    26    1
    15    26    27    1
    16    27    28    1
    17    28    29    1
    18    29    30    1
    19    30    32    1
    20    32    33    1
    21    33    34   ar
    22    34    35   ar
    23    35    36   ar
    24    36    37    1
    25    36    38   ar
    26    38    39   ar
    27    30    31    1
    28     9    10   ar
    29    10    11   ar
    30    11    13    1
    31    13    14   ar
    32    14    15   ar
    33    15    16   ar
    34    16    17   ar
    35    17    18    1
    36    11    12   ar
    37    12     7   ar
    38    31    26    1
    39    17    13   ar
    40    39    33   ar
    41     1     5    1
    42     4     6    1
@<TRIPOS>MOLECULE
*****
 39 42 0 0 0
SMALL
GASTEIGER

@<TRIPOS>ATOM
      1 N          -0.1696    0.9319   20.7762 N.am    1  UNL1       -0.2683
      2 C          -0.1183    2.3202   20.2106 C.2     1  UNL1        0.3044
      3 O           1.1976    3.0281   20.0787 O.2     1  UNL1       -0.2525
      4 N          -1.3828    3.0005   19.7769 N.am    1  UNL1       -0.2903
      5 H          -1.0332    0.4672   20.8628 H       1  UNL1        0.1564
      6 H          -2.2464    2.5359   19.8634 H       1  UNL1        0.1509
      7 C           2.8811   -0.2257   23.0353 C.ar    1  UNL1        0.0360
      8 C           1.6166    0.4546   22.6016 C.ar    1  UNL1        0.0176
      9 C           1.0950    0.2515   21.2099 C.ar    1  UNL1        0.0518
     10 C           1.8379   -0.6319   20.2520 C.ar    1  UNL1        0.0178
     11 C           3.1024   -1.3122   20.6858 C.ar    1  UNL1        0.0387
     12 C           3.6240   -1.1091   22.0774 C.ar    1  UNL1        0.0060
     13 C           3.8454   -2.1956   19.7278 C.ar    1  UNL1        0.1839
     14 N           3.8180   -3.6953   19.7090 N.ar    1  UNL1       -0.1081
     15 N           4.7019   -4.1610   18.5901 N.ar    1  UNL1       -0.0227
     16 N           5.2756   -2.9492   17.9175 N.ar    1  UNL1       -0.0429
     17 N           4.7463   -1.7345   18.6207 N.ar    1  UNL1       -0.2113
     18 C           5.0623   -0.3091   18.2769 C.3     1  UNL1        0.1573
     19 C           3.7756    1.3529   24.8949 C.3     1  UNL1        0.0773
     20 C           3.4026   -0.0226   24.4270 C.2     1  UNL1        0.1735
     21 O           3.5513   -1.1950   25.3508 O.2     1  UNL1       -0.2913
     22 C          -1.3314    4.3888   19.2112 C.3     1  UNL1        0.0745
     23 C          -1.0635    4.5938   17.7496 C.3     1  UNL1        0.0214
     24 C          -1.5480    5.5722   20.1071 C.3     1  UNL1        0.0369
     25 C          -2.8949    5.8100   20.7231 C.3     1  UNL1        0.0738
     26 N          -3.3607    4.9522   21.8622 N.3     1  UNL1       -0.2726
     27 C          -4.4744    3.9692   21.6541 C.3     1  UNL1        0.0721
     28 C          -4.9401    3.1114   22.7931 C.3     1  UNL1        0.0174
     29 C          -4.2921    3.2367   24.1401 C.3     1  UNL1        0.0031
     30 C          -3.1784    4.2197   24.3481 C.3     1  UNL1        0.0204
     31 C          -2.7127    5.0774   23.2092 C.3     1  UNL1        0.0724
     32 C          -2.5304    4.3449   25.6951 C.3     1  UNL1        0.0277
     33 C          -1.4775    3.3626   26.1151 C.ar    1  UNL1       -0.0220
     34 C          -1.0524    2.2719   25.1772 C.ar    1  UNL1       -0.0020
     35 C           0.0005    1.2896   25.5971 C.ar    1  UNL1        0.0293
     36 C           0.6284    1.3979   26.9551 C.ar    1  UNL1        0.1401
     37 F           1.6814    0.4156   27.3750 F       1  UNL1       -0.2042
     38 C           0.2034    2.4886   27.8930 C.ar    1  UNL1        0.0293
     39 C          -0.8496    3.4710   27.4731 C.ar    1  UNL1       -0.0020
@<TRIPOS>BOND
     1    19    20    1
     2    20    21    2
     3    20     7    1
     4     7     8   ar
     5     8     9   ar
     6     9     1    1
     7     1     2   am
     8     2     3    2
     9     2     4   am
    10     4    22    1
    11    22    23    1
    12    22    24    1
    13    24    25    1
    14    25    26    1
    15    26    27    1
    16    27    28    1
    17    28    29    1
    18    29    30    1
    19    30    32    1
    20    32    33    1
    21    33    34   ar
    22    34    35   ar
    23    35    36   ar
    24    36    37    1
    25    36    38   ar
    26    38    39   ar
    27    30    31    1
    28     9    10   ar
    29    10    11   ar
    30    11    13    1
    31    13    14   ar
    32    14    15   ar
    33    15    16   ar
    34    16    17   ar
    35    17    18    1
    36    11    12   ar
    37    12     7   ar
    38    31    26    1
    39    17    13   ar
    40    39    33   ar
    41     1     5    1
    42     4     6    1
