@<TRIPOS>MOLECULE
*****
 32 34 0 0 0
SMALL
GASTEIGER

@<TRIPOS>ATOM
      1 C          -3.9744  -18.3704   22.0464 C.ar    1  UNL1        0.2031
      2 N          -4.7985  -17.3207   22.7314 N.ar    1  UNL1       -0.1927
      3 C          -4.2923  -15.9117   22.8235 C.ar    1  UNL1        0.2187
      4 N          -2.9620  -15.5524   22.2308 N.ar    1  UNL1       -0.2057
      5 C          -2.1380  -16.6020   21.5458 C.ar    1  UNL1        0.1799
      6 C          -2.6442  -18.0110   21.4537 C.ar    1  UNL1        0.3398
      7 N          -1.8202  -19.0607   20.7687 N.pl3   1  UNL1        0.0855
      8 O          -1.0535  -18.7194   19.5254 O.2     1  UNL1        0.0416
      9 O          -1.7627  -20.4518   21.3271 O.co2   1  UNL1       -0.5759
     10 N          -4.4806  -19.7794   21.9542 N.pl3   1  UNL1       -0.3131
     11 H          -4.2130  -20.4437   22.6297 H       1  UNL1        0.1484
     12 C          -5.3944  -20.1762   20.8328 C.3     1  UNL1        0.0883
     13 C          -9.8083  -19.3516   21.1282 C.3     1  UNL1        0.0160
     14 C          -9.1469  -19.4227   19.7838 C.3     1  UNL1        0.0014
     15 C          -7.6756  -19.6975   19.6854 C.3     1  UNL1        0.0017
     16 C          -6.8657  -19.9013   20.9313 C.3     1  UNL1        0.0196
     17 C          -7.5271  -19.8303   22.2757 C.3     1  UNL1        0.0017
     18 C          -8.9984  -19.5555   22.3742 C.3     1  UNL1        0.0014
     19 C         -11.2796  -19.0768   21.2267 C.3     1  UNL1        0.0721
     20 C         -11.3711  -16.5552   20.6077 C.3     1  UNL1        0.0897
     21 N         -11.7655  -17.6864   21.5104 N.3     1  UNL1       -0.2703
     22 C         -12.6459  -17.4270   22.6969 C.3     1  UNL1        0.0897
     23 N          -5.1163  -14.8620   23.5085 N.pl3   1  UNL1       -0.2990
     24 H          -4.6866  -14.0460   23.8530 H       1  UNL1        0.1500
     25 C          -6.5952  -15.0556   23.6685 C.3     1  UNL1        0.1173
     26 C          -7.1491  -15.5617   24.9673 C.ar    1  UNL1        0.0080
     27 C          -6.3542  -15.4126   26.2306 C.ar    1  UNL1       -0.0018
     28 C          -6.9081  -15.9187   27.5295 C.ar    1  UNL1       -0.0002
     29 C          -8.2570  -16.5739   27.5651 C.ar    1  UNL1        0.0008
     30 C          -9.0519  -16.7230   26.3017 C.ar    1  UNL1        0.0111
     31 C          -8.4980  -16.2169   25.0029 C.ar    1  UNL1        0.0553
     32 CL         -9.2930  -16.3660   23.7397 Cl      1  UNL1       -0.0825
@<TRIPOS>UNITY_ATOM_ATTR
7 1
charge 1
9 1
charge -1
@<TRIPOS>BOND
     1    20    21    1
     2    21    22    1
     3    21    19    1
     4    19    13    1
     5    13    14    1
     6    14    15    1
     7    15    16    1
     8    16    12    1
     9    12    10    1
    10    10     1    1
    11     1     2   ar
    12     2     3   ar
    13     3    23    1
    14    23    25    1
    15    25    26    1
    16    26    27   ar
    17    27    28   ar
    18    28    29   ar
    19    29    30   ar
    20    30    31   ar
    21    31    32    1
    22     3     4   ar
    23     4     5   ar
    24     5     6   ar
    25     6     7    1
    26     7     8    2
    27     7     9    1
    28    16    17    1
    29    17    18    1
    30    18    13    1
    31     6     1   ar
    32    31    26   ar
    33    10    11    1
    34    23    24    1
@<TRIPOS>MOLECULE
*****
 32 34 0 0 0
SMALL
GASTEIGER

@<TRIPOS>ATOM
      1 C          -8.8376  -18.1514   21.5217 C.ar    1  UNL1        0.2031
      2 N          -7.7745  -17.1902   21.9646 N.ar    1  UNL1       -0.1927
      3 C          -8.0531  -15.7163   21.9746 C.ar    1  UNL1        0.2187
      4 N          -9.3947  -15.2037   21.5418 N.ar    1  UNL1       -0.2057
      5 C         -10.4577  -16.1648   21.0990 C.ar    1  UNL1        0.1799
      6 C         -10.1791  -17.6387   21.0890 C.ar    1  UNL1        0.3398
      7 N         -11.2421  -18.5999   20.6462 N.pl3   1  UNL1        0.0855
      8 O         -10.8629  -19.8504   19.9097 O.2     1  UNL1        0.0416
      9 O         -12.6844  -18.3106   20.9398 O.co2   1  UNL1       -0.5759
     10 N          -8.5590  -19.6253   21.5117 N.pl3   1  UNL1       -0.3131
     11 H          -9.1421  -20.2330   21.0019 H       1  UNL1        0.1484
     12 C          -7.3919  -20.1732   22.2783 C.3     1  UNL1        0.0883
     13 C          -3.2122  -19.6409   20.6981 C.3     1  UNL1        0.0160
     14 C          -4.2047  -20.4640   19.9316 C.3     1  UNL1        0.0014
     15 C          -5.5979  -20.6414   20.4583 C.3     1  UNL1        0.0017
     16 C          -5.9987  -19.9958   21.7515 C.3     1  UNL1        0.0196
     17 C          -5.0062  -19.1727   22.5180 C.3     1  UNL1        0.0017
     18 C          -3.6130  -18.9953   21.9913 C.3     1  UNL1        0.0014
     19 C          -1.8190  -19.4635   20.1714 C.3     1  UNL1        0.0721
     20 C          -0.0918  -17.5288   20.0181 C.3     1  UNL1        0.0897
     21 N          -1.3954  -18.1425   19.6010 N.3     1  UNL1       -0.2703
     22 C          -2.2754  -17.4351   18.6133 C.3     1  UNL1        0.0897
     23 N          -6.9901  -14.7551   22.4174 N.pl3   1  UNL1       -0.2990
     24 H          -6.8367  -13.9240   21.9125 H       1  UNL1        0.1500
     25 C          -6.1607  -15.0602   23.6295 C.3     1  UNL1        0.1173
     26 C          -6.8266  -15.3137   24.9495 C.ar    1  UNL1        0.0080
     27 C          -8.3128  -15.1597   25.0816 C.ar    1  UNL1       -0.0018
     28 C          -8.9787  -15.4132   26.4016 C.ar    1  UNL1       -0.0002
     29 C          -8.1584  -15.8205   27.5895 C.ar    1  UNL1        0.0008
     30 C          -6.6721  -15.9744   27.4574 C.ar    1  UNL1        0.0111
     31 C          -6.0062  -15.7210   26.1374 C.ar    1  UNL1        0.0553
     32 CL         -4.5200  -15.8749   26.0053 Cl      1  UNL1       -0.0825
@<TRIPOS>UNITY_ATOM_ATTR
7 1
charge 1
9 1
charge -1
@<TRIPOS>BOND
     1    20    21    1
     2    21    22    1
     3    21    19    1
     4    19    13    1
     5    13    14    1
     6    14    15    1
     7    15    16    1
     8    16    12    1
     9    12    10    1
    10    10     1    1
    11     1     2   ar
    12     2     3   ar
    13     3    23    1
    14    23    25    1
    15    25    26    1
    16    26    27   ar
    17    27    28   ar
    18    28    29   ar
    19    29    30   ar
    20    30    31   ar
    21    31    32    1
    22     3     4   ar
    23     4     5   ar
    24     5     6   ar
    25     6     7    1
    26     7     8    2
    27     7     9    1
    28    16    17    1
    29    17    18    1
    30    18    13    1
    31     6     1   ar
    32    31    26   ar
    33    10    11    1
    34    23    24    1
@<TRIPOS>MOLECULE
*****
 32 34 0 0 0
SMALL
GASTEIGER

@<TRIPOS>ATOM
      1 C          -9.4524  -18.5959   21.6936 C.ar    1  UNL1        0.2031
      2 N          -9.0623  -18.5260   23.1404 N.ar    1  UNL1       -0.1927
      3 C         -10.0125  -17.9471   24.1463 C.ar    1  UNL1        0.2187
      4 N         -11.3529  -17.4380   23.7054 N.ar    1  UNL1       -0.2057
      5 C         -11.7430  -17.5079   22.2588 C.ar    1  UNL1        0.1799
      6 C         -10.7927  -18.0868   21.2529 C.ar    1  UNL1        0.3398
      7 N         -11.1828  -18.1566   19.8062 N.pl3   1  UNL1        0.0855
      8 O         -10.7799  -19.3399   18.9770 O.2     1  UNL1        0.0416
      9 O         -11.9759  -17.0432   19.1886 O.co2   1  UNL1       -0.5759
     10 N          -8.5022  -19.1748   20.6877 N.pl3   1  UNL1       -0.3131
     11 H          -8.5258  -18.8654   19.7534 H       1  UNL1        0.1484
     12 C          -7.5160  -20.2250   21.1053 C.3     1  UNL1        0.0883
     13 C          -3.1586  -19.1812   21.5218 C.3     1  UNL1        0.0160
     14 C          -4.1568  -18.6379   22.5007 C.3     1  UNL1        0.0014
     15 C          -5.6093  -18.9858   22.3619 C.3     1  UNL1        0.0017
     16 C          -6.0635  -19.8770   21.2442 C.3     1  UNL1        0.0196
     17 C          -5.0652  -20.4204   20.2653 C.3     1  UNL1        0.0017
     18 C          -3.6128  -20.0725   20.4042 C.3     1  UNL1        0.0014
     19 C          -1.7061  -18.8333   21.6607 C.3     1  UNL1        0.0721
     20 C          -1.5923  -16.2691   21.2579 C.3     1  UNL1        0.0897
     21 N          -1.1418  -17.6588   20.9176 N.3     1  UNL1       -0.2703
     22 C          -0.1270  -17.8740   19.8340 C.3     1  UNL1        0.0897
     23 N          -9.6225  -17.8772   25.5930 N.pl3   1  UNL1       -0.2990
     24 H          -9.7703  -18.6531   26.1806 H       1  UNL1        0.1500
     25 C          -9.0072  -16.6252   26.1443 C.3     1  UNL1        0.1173
     26 C          -7.7244  -16.1033   25.5681 C.ar    1  UNL1        0.0080
     27 C          -7.6156  -15.8418   24.0951 C.ar    1  UNL1       -0.0018
     28 C          -6.3327  -15.3198   23.5188 C.ar    1  UNL1       -0.0002
     29 C          -5.1588  -15.0594   24.4155 C.ar    1  UNL1        0.0008
     30 C          -5.2678  -15.3210   25.8886 C.ar    1  UNL1        0.0111
     31 C          -6.5505  -15.8429   26.4648 C.ar    1  UNL1        0.0553
     32 CL         -6.6594  -16.1045   27.9378 Cl      1  UNL1       -0.0825
@<TRIPOS>UNITY_ATOM_ATTR
7 1
charge 1
9 1
charge -1
@<TRIPOS>BOND
     1    20    21    1
     2    21    22    1
     3    21    19    1
     4    19    13    1
     5    13    14    1
     6    14    15    1
     7    15    16    1
     8    16    12    1
     9    12    10    1
    10    10     1    1
    11     1     2   ar
    12     2     3   ar
    13     3    23    1
    14    23    25    1
    15    25    26    1
    16    26    27   ar
    17    27    28   ar
    18    28    29   ar
    19    29    30   ar
    20    30    31   ar
    21    31    32    1
    22     3     4   ar
    23     4     5   ar
    24     5     6   ar
    25     6     7    1
    26     7     8    2
    27     7     9    1
    28    16    17    1
    29    17    18    1
    30    18    13    1
    31     6     1   ar
    32    31    26   ar
    33    10    11    1
    34    23    24    1
@<TRIPOS>MOLECULE
*****
 32 34 0 0 0
SMALL
GASTEIGER

@<TRIPOS>ATOM
      1 C          -8.8385  -19.1336   20.9655 C.ar    1  UNL1        0.2031
      2 N          -7.7042  -18.9819   19.9957 N.ar    1  UNL1       -0.1927
      3 C          -6.3703  -19.5968   20.2997 C.ar    1  UNL1        0.2187
      4 N          -6.1706  -20.3634   21.5735 N.ar    1  UNL1       -0.2057
      5 C          -7.3049  -20.5151   22.5432 C.ar    1  UNL1        0.1799
      6 C          -8.6389  -19.9003   22.2392 C.ar    1  UNL1        0.3398
      7 N          -9.7731  -20.0520   23.2089 N.pl3   1  UNL1        0.0855
      8 O         -11.1804  -20.1734   22.7040 O.2     1  UNL1        0.0416
      9 O          -9.5002  -20.0822   24.6836 O.co2   1  UNL1       -0.5759
     10 N         -10.1725  -18.5187   20.6615 N.pl3   1  UNL1       -0.3131
     11 H         -10.8317  -19.0140   20.1235 H       1  UNL1        0.1484
     12 C         -10.5021  -17.1493   21.1771 C.3     1  UNL1        0.0883
     13 C          -7.9811  -15.2957   24.4111 C.3     1  UNL1        0.0160
     14 C          -7.5551  -15.1931   22.9766 C.3     1  UNL1        0.0014
     15 C          -8.3954  -15.8110   21.8986 C.3     1  UNL1        0.0017
     16 C          -9.6618  -16.5314   22.2551 C.3     1  UNL1        0.0196
     17 C         -10.0879  -16.6340   23.6896 C.3     1  UNL1        0.0017
     18 C          -9.2475  -16.0162   24.7676 C.3     1  UNL1        0.0014
     19 C          -7.1408  -14.6778   25.4891 C.3     1  UNL1        0.0721
     20 C          -4.8841  -15.8879   25.9282 C.3     1  UNL1        0.0897
     21 N          -6.2796  -15.5452   26.3585 N.3     1  UNL1       -0.2703
     22 C          -6.8139  -16.0699   27.6583 C.3     1  UNL1        0.0897
     23 N          -5.2360  -19.4451   19.3300 N.pl3   1  UNL1       -0.2990
     24 H          -5.4197  -19.2262   18.3879 H       1  UNL1        0.1500
     25 C          -3.8217  -19.6269   19.7958 C.3     1  UNL1        0.1173
     26 C          -3.1249  -18.5186   20.5279 C.ar    1  UNL1        0.0080
     27 C          -3.4229  -18.2739   21.9775 C.ar    1  UNL1       -0.0018
     28 C          -2.7260  -17.1655   22.7098 C.ar    1  UNL1       -0.0002
     29 C          -1.7313  -16.3020   21.9924 C.ar    1  UNL1        0.0008
     30 C          -1.4333  -16.5467   20.5427 C.ar    1  UNL1        0.0111
     31 C          -2.1301  -17.6550   19.8106 C.ar    1  UNL1        0.0553
     32 CL         -1.8321  -17.8997   18.3610 Cl      1  UNL1       -0.0825
@<TRIPOS>UNITY_ATOM_ATTR
7 1
charge 1
9 1
charge -1
@<TRIPOS>BOND
     1    20    21    1
     2    21    22    1
     3    21    19    1
     4    19    13    1
     5    13    14    1
     6    14    15    1
     7    15    16    1
     8    16    12    1
     9    12    10    1
    10    10     1    1
    11     1     2   ar
    12     2     3   ar
    13     3    23    1
    14    23    25    1
    15    25    26    1
    16    26    27   ar
    17    27    28   ar
    18    28    29   ar
    19    29    30   ar
    20    30    31   ar
    21    31    32    1
    22     3     4   ar
    23     4     5   ar
    24     5     6   ar
    25     6     7    1
    26     7     8    2
    27     7     9    1
    28    16    17    1
    29    17    18    1
    30    18    13    1
    31     6     1   ar
    32    31    26   ar
    33    10    11    1
    34    23    24    1
@<TRIPOS>MOLECULE
*****
 32 34 0 0 0
SMALL
GASTEIGER

@<TRIPOS>ATOM
      1 C          -7.8116  -16.7284   24.4722 C.ar    1  UNL1        0.2031
      2 N          -8.2669  -17.8192   23.5486 N.ar    1  UNL1       -0.1927
      3 C          -9.2485  -18.8470   24.0282 C.ar    1  UNL1        0.2187
      4 N          -9.7747  -18.7841   25.4315 N.ar    1  UNL1       -0.2057
      5 C          -9.3194  -17.6934   26.3551 C.ar    1  UNL1        0.1799
      6 C          -8.3379  -16.6656   25.8755 C.ar    1  UNL1        0.3398
      7 N          -7.8825  -15.5749   26.7990 N.pl3   1  UNL1        0.0855
      8 O          -6.4180  -15.3621   27.0439 O.2     1  UNL1        0.0416
      9 O          -8.8918  -14.6969   27.4778 O.co2   1  UNL1       -0.5759
     10 N          -6.8300  -15.7006   23.9926 N.pl3   1  UNL1       -0.3131
     11 H          -7.1430  -14.9274   23.4696 H       1  UNL1        0.1484
     12 C          -5.3717  -15.8507   24.3098 C.3     1  UNL1        0.0883
     13 C          -2.6958  -18.1826   21.5437 C.3     1  UNL1        0.0160
     14 C          -2.4288  -16.7283   21.7960 C.3     1  UNL1        0.0014
     15 C          -3.3208  -15.9510   22.7180 C.3     1  UNL1        0.0017
     16 C          -4.4797  -16.6280   23.3878 C.3     1  UNL1        0.0196
     17 C          -4.7466  -18.0823   23.1354 C.3     1  UNL1        0.0017
     18 C          -3.8546  -18.8596   22.2134 C.3     1  UNL1        0.0014
     19 C          -1.8038  -18.9599   20.6216 C.3     1  UNL1        0.0721
     20 C           0.4308  -17.9224   19.7969 C.3     1  UNL1        0.0897
     21 N          -1.0149  -18.2469   19.5636 N.3     1  UNL1       -0.2703
     22 C          -1.6719  -17.8585   18.2722 C.3     1  UNL1        0.0897
     23 N          -9.7038  -19.9377   23.1047 N.pl3   1  UNL1       -0.2990
     24 H          -9.1238  -20.7156   22.9379 H       1  UNL1        0.1500
     25 C         -11.0428  -19.8433   22.4352 C.3     1  UNL1        0.1173
     26 C         -11.4131  -18.6076   21.6697 C.ar    1  UNL1        0.0080
     27 C         -10.7805  -18.3328   20.3377 C.ar    1  UNL1       -0.0018
     28 C         -11.1508  -17.0971   19.5722 C.ar    1  UNL1       -0.0002
     29 C         -12.1537  -16.1363   20.1387 C.ar    1  UNL1        0.0008
     30 C         -12.7864  -16.4112   21.4707 C.ar    1  UNL1        0.0111
     31 C         -12.4161  -17.6468   22.2362 C.ar    1  UNL1        0.0553
     32 CL        -13.0487  -17.9217   23.5681 Cl      1  UNL1       -0.0825
@<TRIPOS>UNITY_ATOM_ATTR
7 1
charge 1
9 1
charge -1
@<TRIPOS>BOND
     1    20    21    1
     2    21    22    1
     3    21    19    1
     4    19    13    1
     5    13    14    1
     6    14    15    1
     7    15    16    1
     8    16    12    1
     9    12    10    1
    10    10     1    1
    11     1     2   ar
    12     2     3   ar
    13     3    23    1
    14    23    25    1
    15    25    26    1
    16    26    27   ar
    17    27    28   ar
    18    28    29   ar
    19    29    30   ar
    20    30    31   ar
    21    31    32    1
    22     3     4   ar
    23     4     5   ar
    24     5     6   ar
    25     6     7    1
    26     7     8    2
    27     7     9    1
    28    16    17    1
    29    17    18    1
    30    18    13    1
    31     6     1   ar
    32    31    26   ar
    33    10    11    1
    34    23    24    1
@<TRIPOS>MOLECULE
*****
 32 34 0 0 0
SMALL
GASTEIGER

@<TRIPOS>ATOM
      1 C         -10.6646  -17.6389   20.8751 C.ar    1  UNL1        0.2031
      2 N         -10.5030  -18.3708   22.1745 N.ar    1  UNL1       -0.1927
      3 C         -11.1893  -17.8669   23.4095 C.ar    1  UNL1        0.2187
      4 N         -12.0372  -16.6311   23.3450 N.ar    1  UNL1       -0.2057
      5 C         -12.1987  -15.8993   22.0457 C.ar    1  UNL1        0.1799
      6 C         -11.5124  -16.4032   20.8107 C.ar    1  UNL1        0.3398
      7 N         -11.6740  -15.6714   19.5114 N.pl3   1  UNL1        0.0855
      8 O         -13.0234  -15.5845   18.8623 O.2     1  UNL1        0.0416
      9 O         -10.4860  -15.0264   18.8611 O.co2   1  UNL1       -0.5759
     10 N          -9.9783  -18.1428   19.6402 N.pl3   1  UNL1       -0.3131
     11 H         -10.0207  -17.6216   18.8060 H       1  UNL1        0.1484
     12 C          -9.2274  -19.4408   19.6761 C.3     1  UNL1        0.0883
     13 C          -5.0633  -19.5848   21.3761 C.3     1  UNL1        0.0160
     14 C          -6.2354  -19.9702   22.2291 C.3     1  UNL1        0.0014
     15 C          -7.6234  -19.9222   21.6624 C.3     1  UNL1        0.0017
     16 C          -7.8393  -19.4888   20.2428 C.3     1  UNL1        0.0196
     17 C          -6.6673  -19.1034   19.3898 C.3     1  UNL1        0.0017
     18 C          -5.2792  -19.1514   19.9564 C.3     1  UNL1        0.0014
     19 C          -3.6753  -19.6328   21.9427 C.3     1  UNL1        0.0721
     20 C          -2.8009  -17.2577   22.5295 C.3     1  UNL1        0.0897
     21 N          -2.7237  -18.5005   21.6932 N.3     1  UNL1       -0.2703
     22 C          -1.6948  -18.6110   20.6072 C.3     1  UNL1        0.0897
     23 N         -11.0277  -18.5987   24.7088 N.pl3   1  UNL1       -0.2990
     24 H         -11.8141  -18.9867   25.1563 H       1  UNL1        0.1500
     25 C          -9.6680  -18.7394   25.3263 C.3     1  UNL1        0.1173
     26 C          -8.9370  -17.5243   25.8155 C.ar    1  UNL1        0.0080
     27 C          -8.9945  -17.1479   27.2663 C.ar    1  UNL1       -0.0018
     28 C          -8.2636  -15.9328   27.7555 C.ar    1  UNL1       -0.0002
     29 C          -7.4751  -15.0942   26.7938 C.ar    1  UNL1        0.0008
     30 C          -7.4175  -15.4706   25.3429 C.ar    1  UNL1        0.0111
     31 C          -8.1485  -16.6857   24.8537 C.ar    1  UNL1        0.0553
     32 CL         -8.0909  -17.0621   23.4029 Cl      1  UNL1       -0.0825
@<TRIPOS>UNITY_ATOM_ATTR
7 1
charge 1
9 1
charge -1
@<TRIPOS>BOND
     1    20    21    1
     2    21    22    1
     3    21    19    1
     4    19    13    1
     5    13    14    1
     6    14    15    1
     7    15    16    1
     8    16    12    1
     9    12    10    1
    10    10     1    1
    11     1     2   ar
    12     2     3   ar
    13     3    23    1
    14    23    25    1
    15    25    26    1
    16    26    27   ar
    17    27    28   ar
    18    28    29   ar
    19    29    30   ar
    20    30    31   ar
    21    31    32    1
    22     3     4   ar
    23     4     5   ar
    24     5     6   ar
    25     6     7    1
    26     7     8    2
    27     7     9    1
    28    16    17    1
    29    17    18    1
    30    18    13    1
    31     6     1   ar
    32    31    26   ar
    33    10    11    1
    34    23    24    1
@<TRIPOS>MOLECULE
*****
 32 34 0 0 0
SMALL
GASTEIGER

@<TRIPOS>ATOM
      1 C          -7.3618  -15.6152   23.9971 C.ar    1  UNL1        0.2031
      2 N          -7.8624  -16.0212   22.6426 N.ar    1  UNL1       -0.1927
      3 C          -9.1929  -16.7005   22.5075 C.ar    1  UNL1        0.2187
      4 N         -10.0229  -16.9737   23.7268 N.ar    1  UNL1       -0.2057
      5 C          -9.5222  -16.5676   25.0812 C.ar    1  UNL1        0.1799
      6 C          -8.1917  -15.8884   25.2164 C.ar    1  UNL1        0.3398
      7 N          -7.6910  -15.4823   26.5708 N.pl3   1  UNL1        0.0855
      8 O          -6.2740  -15.7757   26.9655 O.2     1  UNL1        0.0416
      9 O          -8.6075  -14.7829   27.5305 O.co2   1  UNL1       -0.5759
     10 N          -6.0312  -14.9359   24.1323 N.pl3   1  UNL1       -0.3131
     11 H          -5.9498  -13.9720   23.9495 H       1  UNL1        0.1484
     12 C          -4.8248  -15.7253   24.5460 C.3     1  UNL1        0.0883
     13 C          -2.5389  -18.1090   21.4894 C.3     1  UNL1        0.0160
     14 C          -3.3949  -18.8114   22.5013 C.3     1  UNL1        0.0014
     15 C          -4.1568  -18.0169   23.5201 C.3     1  UNL1        0.0017
     16 C          -4.0628  -16.5199   23.5272 C.3     1  UNL1        0.0196
     17 C          -3.2068  -15.8174   22.5154 C.3     1  UNL1        0.0017
     18 C          -2.4448  -16.6120   21.4965 C.3     1  UNL1        0.0014
     19 C          -1.7769  -18.9036   20.4706 C.3     1  UNL1        0.0721
     20 C           0.4881  -17.8467   19.7617 C.3     1  UNL1        0.0897
     21 N          -0.9353  -18.2003   19.4474 N.3     1  UNL1       -0.2703
     22 C          -1.5171  -17.8507   18.1097 C.3     1  UNL1        0.0897
     23 N          -9.6936  -17.1065   21.1531 N.pl3   1  UNL1       -0.2990
     24 H         -10.1167  -16.4402   20.5646 H       1  UNL1        0.1500
     25 C          -9.5495  -18.5277   20.6952 C.3     1  UNL1        0.1173
     26 C          -8.2324  -19.2314   20.8367 C.ar    1  UNL1        0.0080
     27 C          -7.2207  -19.1584   19.7317 C.ar    1  UNL1       -0.0018
     28 C          -5.9035  -19.8621   19.8731 C.ar    1  UNL1       -0.0002
     29 C          -5.5982  -20.6387   21.1195 C.ar    1  UNL1        0.0008
     30 C          -6.6099  -20.7116   22.2246 C.ar    1  UNL1        0.0111
     31 C          -7.9270  -20.0080   22.0831 C.ar    1  UNL1        0.0553
     32 CL         -8.9387  -20.0809   23.1881 Cl      1  UNL1       -0.0825
@<TRIPOS>UNITY_ATOM_ATTR
7 1
charge 1
9 1
charge -1
@<TRIPOS>BOND
     1    20    21    1
     2    21    22    1
     3    21    19    1
     4    19    13    1
     5    13    14    1
     6    14    15    1
     7    15    16    1
     8    16    12    1
     9    12    10    1
    10    10     1    1
    11     1     2   ar
    12     2     3   ar
    13     3    23    1
    14    23    25    1
    15    25    26    1
    16    26    27   ar
    17    27    28   ar
    18    28    29   ar
    19    29    30   ar
    20    30    31   ar
    21    31    32    1
    22     3     4   ar
    23     4     5   ar
    24     5     6   ar
    25     6     7    1
    26     7     8    2
    27     7     9    1
    28    16    17    1
    29    17    18    1
    30    18    13    1
    31     6     1   ar
    32    31    26   ar
    33    10    11    1
    34    23    24    1
@<TRIPOS>MOLECULE
*****
 32 34 0 0 0
SMALL
GASTEIGER

@<TRIPOS>ATOM
      1 C          -6.7035  -15.9438   24.3991 C.ar    1  UNL1        0.2031
      2 N          -7.0798  -16.4189   23.0270 N.ar    1  UNL1       -0.1927
      3 C          -8.5252  -16.5282   22.6412 C.ar    1  UNL1        0.2187
      4 N          -9.5944  -16.1623   23.6277 N.ar    1  UNL1       -0.2057
      5 C          -9.2181  -15.6872   24.9998 C.ar    1  UNL1        0.1799
      6 C          -7.7727  -15.5780   25.3855 C.ar    1  UNL1        0.3398
      7 N          -7.3964  -15.1029   26.7576 N.pl3   1  UNL1        0.0855
      8 O          -8.4657  -14.7446   27.7467 O.2     1  UNL1        0.0416
      9 O          -5.9508  -14.9862   27.1407 O.co2   1  UNL1       -0.5759
     10 N          -5.2581  -15.8346   24.7848 N.pl3   1  UNL1       -0.3131
     11 H          -4.8927  -14.9712   25.0855 H       1  UNL1        0.1484
     12 C          -4.3693  -17.0407   24.7125 C.3     1  UNL1        0.0883
     13 C          -2.8210  -18.4593   20.7326 C.3     1  UNL1        0.0160
     14 C          -3.8105  -19.2920   21.4924 C.3     1  UNL1        0.0014
     15 C          -4.3266  -18.8192   22.8191 C.3     1  UNL1        0.0017
     16 C          -3.8532  -17.5136   23.3859 C.3     1  UNL1        0.0196
     17 C          -2.8637  -16.6809   22.6260 C.3     1  UNL1        0.0017
     18 C          -2.3476  -17.1538   21.2993 C.3     1  UNL1        0.0014
     19 C          -2.3049  -18.9322   19.4059 C.3     1  UNL1        0.0721
     20 C           0.1281  -18.0225   19.4571 C.3     1  UNL1        0.0897
     21 N          -1.1756  -18.2052   18.7381 N.3     1  UNL1       -0.2703
     22 C          -1.3499  -17.6608   17.3512 C.3     1  UNL1        0.0897
     23 N          -8.9015  -17.0032   21.2692 N.pl3   1  UNL1       -0.2990
     24 H          -8.4347  -16.6461   20.4794 H       1  UNL1        0.1500
     25 C          -9.9890  -18.0225   21.1004 C.3     1  UNL1        0.1173
     26 C         -11.0231  -18.2004   22.1722 C.ar    1  UNL1        0.0080
     27 C         -12.3069  -17.4269   22.1115 C.ar    1  UNL1       -0.0018
     28 C         -13.3411  -17.6047   23.1834 C.ar    1  UNL1       -0.0002
     29 C         -13.0915  -18.5561   24.3160 C.ar    1  UNL1        0.0008
     30 C         -11.8076  -19.3295   24.3766 C.ar    1  UNL1        0.0111
     31 C         -10.7735  -19.1517   23.3048 C.ar    1  UNL1        0.0553
     32 CL         -9.4898  -19.9251   23.3655 Cl      1  UNL1       -0.0825
@<TRIPOS>UNITY_ATOM_ATTR
7 1
charge 1
9 1
charge -1
@<TRIPOS>BOND
     1    20    21    1
     2    21    22    1
     3    21    19    1
     4    19    13    1
     5    13    14    1
     6    14    15    1
     7    15    16    1
     8    16    12    1
     9    12    10    1
    10    10     1    1
    11     1     2   ar
    12     2     3   ar
    13     3    23    1
    14    23    25    1
    15    25    26    1
    16    26    27   ar
    17    27    28   ar
    18    28    29   ar
    19    29    30   ar
    20    30    31   ar
    21    31    32    1
    22     3     4   ar
    23     4     5   ar
    24     5     6   ar
    25     6     7    1
    26     7     8    2
    27     7     9    1
    28    16    17    1
    29    17    18    1
    30    18    13    1
    31     6     1   ar
    32    31    26   ar
    33    10    11    1
    34    23    24    1
@<TRIPOS>MOLECULE
*****
 32 34 0 0 0
SMALL
GASTEIGER

@<TRIPOS>ATOM
      1 C          -6.7375  -15.9017   24.4309 C.ar    1  UNL1        0.2031
      2 N          -7.1090  -16.3606   23.0520 N.ar    1  UNL1       -0.1927
      3 C          -8.5533  -16.4837   22.6662 C.ar    1  UNL1        0.2187
      4 N          -9.6261  -16.1478   23.6594 N.ar    1  UNL1       -0.2057
      5 C          -9.2546  -15.6890   25.0383 C.ar    1  UNL1        0.1799
      6 C          -7.8103  -15.5659   25.4240 C.ar    1  UNL1        0.3398
      7 N          -7.4388  -15.1070   26.8029 N.pl3   1  UNL1        0.0855
      8 O          -8.5111  -14.7447   27.7872 O.2     1  UNL1        0.0416
      9 O          -5.9948  -15.0104   27.1976 O.co2   1  UNL1       -0.5759
     10 N          -5.2932  -15.7786   24.8167 N.pl3   1  UNL1       -0.3131
     11 H          -4.9354  -14.9111   25.1143 H       1  UNL1        0.1484
     12 C          -4.3941  -16.9774   24.7491 C.3     1  UNL1        0.0883
     13 C          -2.8884  -18.4391   20.7684 C.3     1  UNL1        0.0160
     14 C          -2.3999  -17.1332   21.3214 C.3     1  UNL1        0.0014
     15 C          -2.9018  -16.6459   22.6483 C.3     1  UNL1        0.0017
     16 C          -3.8922  -17.4646   23.4222 C.3     1  UNL1        0.0196
     17 C          -4.3807  -18.7705   22.8691 C.3     1  UNL1        0.0017
     18 C          -3.8788  -19.2578   21.5422 C.3     1  UNL1        0.0014
     19 C          -2.3865  -18.9263   19.4414 C.3     1  UNL1        0.0721
     20 C           0.0650  -18.0666   19.4674 C.3     1  UNL1        0.0897
     21 N          -1.2508  -18.2190   18.7635 N.3     1  UNL1       -0.2703
     22 C          -1.4307  -17.6641   17.3815 C.3     1  UNL1        0.0897
     23 N          -8.9248  -16.9425   21.2873 N.pl3   1  UNL1       -0.2990
     24 H          -8.4704  -16.5601   20.5021 H       1  UNL1        0.1500
     25 C          -9.9887  -17.9841   21.1047 C.3     1  UNL1        0.1173
     26 C         -11.0153  -18.2035   22.1761 C.ar    1  UNL1        0.0080
     27 C         -10.7420  -19.1701   23.2900 C.ar    1  UNL1       -0.0018
     28 C         -11.7687  -19.3895   24.3615 C.ar    1  UNL1       -0.0002
     29 C         -13.0686  -18.6423   24.3189 C.ar    1  UNL1        0.0008
     30 C         -13.3418  -17.6756   23.2049 C.ar    1  UNL1        0.0111
     31 C         -12.3152  -17.4562   22.1335 C.ar    1  UNL1        0.0553
     32 CL        -12.5885  -16.4896   21.0196 Cl      1  UNL1       -0.0825
@<TRIPOS>UNITY_ATOM_ATTR
7 1
charge 1
9 1
charge -1
@<TRIPOS>BOND
     1    20    21    1
     2    21    22    1
     3    21    19    1
     4    19    13    1
     5    13    14    1
     6    14    15    1
     7    15    16    1
     8    16    12    1
     9    12    10    1
    10    10     1    1
    11     1     2   ar
    12     2     3   ar
    13     3    23    1
    14    23    25    1
    15    25    26    1
    16    26    27   ar
    17    27    28   ar
    18    28    29   ar
    19    29    30   ar
    20    30    31   ar
    21    31    32    1
    22     3     4   ar
    23     4     5   ar
    24     5     6   ar
    25     6     7    1
    26     7     8    2
    27     7     9    1
    28    16    17    1
    29    17    18    1
    30    18    13    1
    31     6     1   ar
    32    31    26   ar
    33    10    11    1
    34    23    24    1
