@<TRIPOS>MOLECULE
*****
 24 27 0 0 0
SMALL
GASTEIGER

@<TRIPOS>ATOM
      1 C          -8.3406  -19.3620   20.0474 C.3     1  UNL1        0.0899
      2 N          -7.8052  -19.6128   21.4259 N.3     1  UNL1       -0.2667
      3 C          -8.6019  -19.1972   22.6270 C.3     1  UNL1        0.0978
      4 C          -9.6009  -20.1412   23.2276 C.3     1  UNL1        0.0224
      5 C         -10.3976  -19.7256   24.4287 C.3     1  UNL1        0.0065
      6 C         -10.1953  -18.3661   25.0292 C.3     1  UNL1        0.0277
      7 C          -9.1962  -17.4221   24.4286 C.ar    1  UNL1       -0.0073
      8 C          -8.9938  -16.0625   25.0291 C.ar    1  UNL1       -0.0015
      9 C          -7.9948  -15.1185   24.4285 C.ar    1  UNL1        0.0203
     10 C          -7.1981  -15.5341   23.2274 C.ar    1  UNL1        0.0985
     11 N          -7.4005  -16.8936   22.6269 N.ar    1  UNL1       -0.2471
     12 C          -8.3995  -17.8377   23.2275 C.ar    1  UNL1        0.0695
     13 C          -6.4732  -20.2791   21.6034 C.3     1  UNL1        0.0886
     14 C          -5.2151  -19.4632   21.5630 C.3     1  UNL1        0.0764
     15 C          -4.3750  -19.4412   20.3206 C.3     1  UNL1        0.0626
     16 C          -3.1169  -18.6253   20.2802 C.ar    1  UNL1        0.0577
     17 N          -2.2768  -18.6033   19.0378 N.ar    1  UNL1       -0.2484
     18 C          -1.0187  -17.7874   18.9975 C.ar    1  UNL1        0.0984
     19 C          -0.6008  -16.9936   20.1996 C.ar    1  UNL1        0.0204
     20 C          -1.4409  -17.0156   21.4420 C.ar    1  UNL1       -0.0002
     21 C          -2.6989  -17.8315   21.4823 C.ar    1  UNL1        0.0073
     22 C          -3.5391  -17.8535   22.7248 C.3     1  UNL1        0.0968
     23 N          -4.7971  -18.6694   22.7651 N.3     1  UNL1       -0.2934
     24 H          -5.5598  -18.0244   22.9718 H       1  UNL1        0.1236
@<TRIPOS>BOND
     1     1     2    1
     2     2    13    1
     3    14    13    1
     4    14    15    1
     5    15    16    1
     6    16    17   ar
     7    17    18   ar
     8    18    19   ar
     9    19    20   ar
    10    20    21   ar
    11    21    22    1
    12    22    23    1
    13     3     2    1
    14     3     4    1
    15     4     5    1
    16     5     6    1
    17     6     7    1
    18     7     8   ar
    19     8     9   ar
    20     9    10   ar
    21    10    11   ar
    22    11    12   ar
    23    23    14    1
    24    12     3    1
    25    21    16   ar
    26    12     7   ar
    27    23    24    1
@<TRIPOS>MOLECULE
*****
 24 27 0 0 0
SMALL
GASTEIGER

@<TRIPOS>ATOM
      1 C          -8.2465  -19.4539   20.0789 C.3     1  UNL1        0.0899
      2 N          -8.0664  -19.7045   21.5468 N.3     1  UNL1       -0.2667
      3 C          -9.1923  -19.4280   22.4986 C.3     1  UNL1        0.0978
      4 C          -9.3059  -20.2102   23.7734 C.3     1  UNL1        0.0224
      5 C         -10.4318  -19.9337   24.7252 C.3     1  UNL1        0.0065
      6 C         -11.4440  -18.8749   24.4021 C.3     1  UNL1        0.0277
      7 C         -11.3304  -18.0927   23.1273 C.ar    1  UNL1       -0.0073
      8 C         -12.3427  -17.0339   22.8043 C.ar    1  UNL1       -0.0015
      9 C         -12.2290  -16.2517   21.5295 C.ar    1  UNL1        0.0203
     10 C         -11.1031  -16.5282   20.5777 C.ar    1  UNL1        0.0985
     11 N         -10.0909  -17.5870   20.9007 N.ar    1  UNL1       -0.2471
     12 C         -10.2045  -18.3693   22.1756 C.ar    1  UNL1        0.0695
     13 C          -6.7603  -20.2316   22.0629 C.3     1  UNL1        0.0886
     14 C          -5.4710  -19.7719   21.4494 C.3     1  UNL1        0.0764
     15 C          -4.7672  -18.5663   21.9981 C.3     1  UNL1        0.0626
     16 C          -3.4778  -18.1066   21.3847 C.ar    1  UNL1        0.0577
     17 N          -2.7741  -16.9009   21.9334 N.ar    1  UNL1       -0.2484
     18 C          -1.4848  -16.4413   21.3199 C.ar    1  UNL1        0.0984
     19 C          -0.8993  -17.1872   20.1578 C.ar    1  UNL1        0.0204
     20 C          -1.6030  -18.3929   19.6091 C.ar    1  UNL1       -0.0002
     21 C          -2.8923  -18.8525   20.2225 C.ar    1  UNL1        0.0073
     22 C          -3.5961  -20.0582   19.6738 C.3     1  UNL1        0.0968
     23 N          -4.8854  -20.5179   20.2873 N.3     1  UNL1       -0.2934
     24 H          -4.7378  -21.4781   20.5980 H       1  UNL1        0.1236
@<TRIPOS>BOND
     1     1     2    1
     2     2    13    1
     3    14    13    1
     4    14    15    1
     5    15    16    1
     6    16    17   ar
     7    17    18   ar
     8    18    19   ar
     9    19    20   ar
    10    20    21   ar
    11    21    22    1
    12    22    23    1
    13     3     2    1
    14     3     4    1
    15     4     5    1
    16     5     6    1
    17     6     7    1
    18     7     8   ar
    19     8     9   ar
    20     9    10   ar
    21    10    11   ar
    22    11    12   ar
    23    23    14    1
    24    12     3    1
    25    21    16   ar
    26    12     7   ar
    27    23    24    1
@<TRIPOS>MOLECULE
*****
 24 27 0 0 0
SMALL
GASTEIGER

@<TRIPOS>ATOM
      1 C          -4.1515  -17.3984   24.6834 C.3     1  UNL1        0.0899
      2 N          -4.9799  -17.2827   23.4383 N.3     1  UNL1       -0.2667
      3 C          -4.7650  -18.2391   22.3029 C.3     1  UNL1        0.0978
      4 C          -5.7225  -19.3733   22.0863 C.3     1  UNL1        0.0224
      5 C          -5.5076  -20.3297   20.9509 C.3     1  UNL1        0.0065
      6 C          -4.3354  -20.1519   20.0321 C.3     1  UNL1        0.0277
      7 C          -3.3780  -19.0177   20.2487 C.ar    1  UNL1       -0.0073
      8 C          -2.2057  -18.8399   19.3299 C.ar    1  UNL1       -0.0015
      9 C          -1.2483  -17.7058   19.5465 C.ar    1  UNL1        0.0203
     10 C          -1.4631  -16.7493   20.6819 C.ar    1  UNL1        0.0985
     11 N          -2.6353  -16.9271   21.6007 N.ar    1  UNL1       -0.2471
     12 C          -3.5928  -18.0613   21.3841 C.ar    1  UNL1        0.0695
     13 C          -6.0231  -16.2105   23.3286 C.3     1  UNL1        0.0886
     14 C          -7.4770  -16.5786   23.3011 C.3     1  UNL1        0.0764
     15 C          -8.2043  -16.6646   21.9921 C.3     1  UNL1        0.0626
     16 C          -9.6582  -17.0327   21.9646 C.ar    1  UNL1        0.0577
     17 N         -10.3855  -17.1187   20.6556 N.ar    1  UNL1       -0.2484
     18 C         -11.8394  -17.4868   20.6282 C.ar    1  UNL1        0.0984
     19 C         -12.5659  -17.7690   21.9098 C.ar    1  UNL1        0.0204
     20 C         -11.8386  -17.6830   23.2188 C.ar    1  UNL1       -0.0002
     21 C         -10.3847  -17.3149   23.2463 C.ar    1  UNL1        0.0073
     22 C          -9.6574  -17.2289   24.5553 C.3     1  UNL1        0.0968
     23 N          -8.2035  -16.8608   24.5827 N.3     1  UNL1       -0.2934
     24 H          -7.7130  -17.6320   25.0356 H       1  UNL1        0.1236
@<TRIPOS>BOND
     1     1     2    1
     2     2    13    1
     3    14    13    1
     4    14    15    1
     5    15    16    1
     6    16    17   ar
     7    17    18   ar
     8    18    19   ar
     9    19    20   ar
    10    20    21   ar
    11    21    22    1
    12    22    23    1
    13     3     2    1
    14     3     4    1
    15     4     5    1
    16     5     6    1
    17     6     7    1
    18     7     8   ar
    19     8     9   ar
    20     9    10   ar
    21    10    11   ar
    22    11    12   ar
    23    23    14    1
    24    12     3    1
    25    21    16   ar
    26    12     7   ar
    27    23    24    1
@<TRIPOS>MOLECULE
*****
 24 27 0 0 0
SMALL
GASTEIGER

@<TRIPOS>ATOM
      1 C          -7.7420  -16.1440   23.4128 C.3     1  UNL1        0.0899
      2 N          -8.4794  -17.2462   22.7120 N.3     1  UNL1       -0.2667
      3 C          -9.8828  -17.0226   22.2318 C.3     1  UNL1        0.0978
      4 C         -10.1285  -16.2745   20.9552 C.3     1  UNL1        0.0224
      5 C         -11.5319  -16.0509   20.4751 C.3     1  UNL1        0.0065
      6 C         -12.6896  -16.5754   21.2716 C.3     1  UNL1        0.0277
      7 C         -12.4439  -17.3236   22.5482 C.ar    1  UNL1       -0.0073
      8 C         -13.6017  -17.8482   23.3449 C.ar    1  UNL1       -0.0015
      9 C         -13.3560  -18.5963   24.6215 C.ar    1  UNL1        0.0203
     10 C         -11.9526  -18.8199   25.1016 C.ar    1  UNL1        0.0985
     11 N         -10.7949  -18.2953   24.3051 N.ar    1  UNL1       -0.2471
     12 C         -11.0405  -17.5472   23.0284 C.ar    1  UNL1        0.0695
     13 C          -7.8135  -18.5720   22.4913 C.3     1  UNL1        0.0886
     14 C          -6.5401  -18.6497   21.7023 C.3     1  UNL1        0.0764
     15 C          -5.2170  -18.5578   22.4028 C.3     1  UNL1        0.0626
     16 C          -3.9436  -18.6355   21.6138 C.ar    1  UNL1        0.0577
     17 N          -2.6204  -18.5436   22.3144 N.ar    1  UNL1       -0.2484
     18 C          -1.3471  -18.6212   21.5254 C.ar    1  UNL1        0.0984
     19 C          -1.3969  -18.7907   20.0358 C.ar    1  UNL1        0.0204
     20 C          -2.7201  -18.8826   19.3352 C.ar    1  UNL1       -0.0002
     21 C          -3.9934  -18.8049   20.1242 C.ar    1  UNL1        0.0073
     22 C          -5.3166  -18.8968   19.4237 C.3     1  UNL1        0.0968
     23 N          -6.5899  -18.8192   20.2127 N.3     1  UNL1       -0.2934
     24 H          -7.1017  -19.6827   20.0316 H       1  UNL1        0.1236
@<TRIPOS>BOND
     1     1     2    1
     2     2    13    1
     3    14    13    1
     4    14    15    1
     5    15    16    1
     6    16    17   ar
     7    17    18   ar
     8    18    19   ar
     9    19    20   ar
    10    20    21   ar
    11    21    22    1
    12    22    23    1
    13     3     2    1
    14     3     4    1
    15     4     5    1
    16     5     6    1
    17     6     7    1
    18     7     8   ar
    19     8     9   ar
    20     9    10   ar
    21    10    11   ar
    22    11    12   ar
    23    23    14    1
    24    12     3    1
    25    21    16   ar
    26    12     7   ar
    27    23    24    1
@<TRIPOS>MOLECULE
*****
 24 27 0 0 0
SMALL
GASTEIGER

@<TRIPOS>ATOM
      1 C          -7.5716  -15.3493   22.8603 C.3     1  UNL1        0.0899
      2 N          -7.4816  -16.7774   23.3100 N.3     1  UNL1       -0.2667
      3 C          -8.7205  -17.6198   23.3843 C.3     1  UNL1        0.0978
      4 C          -9.4856  -17.7165   24.6708 C.3     1  UNL1        0.0224
      5 C         -10.7245  -18.5590   24.7451 C.3     1  UNL1        0.0065
      6 C         -11.1982  -19.3046   23.5329 C.3     1  UNL1        0.0277
      7 C         -10.4331  -19.2079   22.2464 C.ar    1  UNL1       -0.0073
      8 C         -10.9069  -19.9536   21.0341 C.ar    1  UNL1       -0.0015
      9 C         -10.1418  -19.8568   19.7476 C.ar    1  UNL1        0.0203
     10 C          -8.9029  -19.0144   19.6733 C.ar    1  UNL1        0.0985
     11 N          -8.4291  -18.2687   20.8855 N.ar    1  UNL1       -0.2471
     12 C          -9.1943  -18.3655   22.1721 C.ar    1  UNL1        0.0695
     13 C          -6.1527  -17.3631   23.6854 C.3     1  UNL1        0.0886
     14 C          -5.1603  -17.7166   22.6176 C.3     1  UNL1        0.0764
     15 C          -3.8399  -17.0076   22.5565 C.3     1  UNL1        0.0626
     16 C          -2.8475  -17.3612   21.4886 C.ar    1  UNL1        0.0577
     17 N          -1.5271  -16.6522   21.4275 N.ar    1  UNL1       -0.2484
     18 C          -0.5347  -17.0058   20.3597 C.ar    1  UNL1        0.0984
     19 C          -0.8628  -18.0683   19.3531 C.ar    1  UNL1        0.0204
     20 C          -2.1832  -18.7773   19.4142 C.ar    1  UNL1       -0.0002
     21 C          -3.1755  -18.4238   20.4820 C.ar    1  UNL1        0.0073
     22 C          -4.4960  -19.1328   20.5432 C.3     1  UNL1        0.0968
     23 N          -5.4884  -18.7792   21.6110 N.3     1  UNL1       -0.2934
     24 H          -5.6740  -19.6343   22.1352 H       1  UNL1        0.1236
@<TRIPOS>BOND
     1     1     2    1
     2     2    13    1
     3    14    13    1
     4    14    15    1
     5    15    16    1
     6    16    17   ar
     7    17    18   ar
     8    18    19   ar
     9    19    20   ar
    10    20    21   ar
    11    21    22    1
    12    22    23    1
    13     3     2    1
    14     3     4    1
    15     4     5    1
    16     5     6    1
    17     6     7    1
    18     7     8   ar
    19     8     9   ar
    20     9    10   ar
    21    10    11   ar
    22    11    12   ar
    23    23    14    1
    24    12     3    1
    25    21    16   ar
    26    12     7   ar
    27    23    24    1
@<TRIPOS>MOLECULE
*****
 24 27 0 0 0
SMALL
GASTEIGER

@<TRIPOS>ATOM
      1 C         -10.4020   -7.0205   18.9588 C.3     1  UNL1        0.0899
      2 N         -11.6664   -6.4468   18.3915 N.3     1  UNL1       -0.2667
      3 C         -12.2958   -5.2433   19.0283 C.3     1  UNL1        0.0978
      4 C         -13.3332   -5.4168   20.0977 C.3     1  UNL1        0.0224
      5 C         -13.9625   -4.2133   20.7345 C.3     1  UNL1        0.0065
      6 C         -13.5544   -2.8363   20.3020 C.3     1  UNL1        0.0277
      7 C         -12.5169   -2.6627   19.2327 C.ar    1  UNL1       -0.0073
      8 C         -12.1087   -1.2856   18.8002 C.ar    1  UNL1       -0.0015
      9 C         -11.0712   -1.1120   17.7309 C.ar    1  UNL1        0.0203
     10 C         -10.4419   -2.3155   17.0941 C.ar    1  UNL1        0.0985
     11 N         -10.8500   -3.6926   17.5265 N.ar    1  UNL1       -0.2471
     12 C         -11.8876   -3.8662   18.5959 C.ar    1  UNL1        0.0695
     13 C         -12.3016   -7.0765   17.1874 C.3     1  UNL1        0.0886
     14 C         -13.7343   -7.5179   17.2396 C.3     1  UNL1        0.0764
     15 C         -14.0920   -8.8308   17.8707 C.3     1  UNL1        0.0626
     16 C         -15.5247   -9.2722   17.9229 C.ar    1  UNL1        0.0577
     17 N         -15.8824  -10.5852   18.5540 N.ar    1  UNL1       -0.2484
     18 C         -17.3150  -11.0265   18.6062 C.ar    1  UNL1        0.0984
     19 C         -18.3899  -10.1550   18.0274 C.ar    1  UNL1        0.0204
     20 C         -18.0322   -8.8421   17.3964 C.ar    1  UNL1       -0.0002
     21 C         -16.5996   -8.4007   17.3441 C.ar    1  UNL1        0.0073
     22 C         -16.2418   -7.0877   16.7131 C.3     1  UNL1        0.0968
     23 N         -14.8092   -6.6464   16.6608 N.3     1  UNL1       -0.2934
     24 H         -14.7584   -5.7525   17.1495 H       1  UNL1        0.1236
@<TRIPOS>BOND
     1     1     2    1
     2     2    13    1
     3    14    13    1
     4    14    15    1
     5    15    16    1
     6    16    17   ar
     7    17    18   ar
     8    18    19   ar
     9    19    20   ar
    10    20    21   ar
    11    21    22    1
    12    22    23    1
    13     3     2    1
    14     3     4    1
    15     4     5    1
    16     5     6    1
    17     6     7    1
    18     7     8   ar
    19     8     9   ar
    20     9    10   ar
    21    10    11   ar
    22    11    12   ar
    23    23    14    1
    24    12     3    1
    25    21    16   ar
    26    12     7   ar
    27    23    24    1
@<TRIPOS>MOLECULE
*****
 24 27 0 0 0
SMALL
GASTEIGER

@<TRIPOS>ATOM
      1 C          -7.3406  -17.1056   23.0229 C.3     1  UNL1        0.0899
      2 N          -7.3467  -18.3797   22.2314 N.3     1  UNL1       -0.2667
      3 C          -8.4965  -18.6908   21.3198 C.3     1  UNL1        0.0978
      4 C          -8.2518  -19.3911   20.0161 C.3     1  UNL1        0.0224
      5 C          -9.4017  -19.7023   19.1045 C.3     1  UNL1        0.0065
      6 C         -10.7962  -19.3131   19.4966 C.3     1  UNL1        0.0277
      7 C         -11.0409  -18.6128   20.8002 C.ar    1  UNL1       -0.0073
      8 C         -12.4355  -18.2236   21.1924 C.ar    1  UNL1       -0.0015
      9 C         -12.6802  -17.5233   22.4961 C.ar    1  UNL1        0.0203
     10 C         -11.5303  -17.2122   23.4077 C.ar    1  UNL1        0.0985
     11 N         -10.1358  -17.6013   23.0156 N.ar    1  UNL1       -0.2471
     12 C          -9.8911  -18.3017   21.7118 C.ar    1  UNL1        0.0695
     13 C          -6.2029  -19.3426   22.3515 C.3     1  UNL1        0.0886
     14 C          -4.8106  -18.8995   22.0119 C.3     1  UNL1        0.0764
     15 C          -4.3418  -18.9252   20.5873 C.3     1  UNL1        0.0626
     16 C          -2.9495  -18.4821   20.2478 C.ar    1  UNL1        0.0577
     17 N          -2.4807  -18.5078   18.8232 N.ar    1  UNL1       -0.2484
     18 C          -1.0884  -18.0647   18.4837 C.ar    1  UNL1        0.0984
     19 C          -0.1650  -17.5959   19.5688 C.ar    1  UNL1        0.0204
     20 C          -0.6338  -17.5702   20.9934 C.ar    1  UNL1       -0.0002
     21 C          -2.0260  -18.0133   21.3329 C.ar    1  UNL1        0.0073
     22 C          -2.4949  -17.9876   22.7576 C.3     1  UNL1        0.0968
     23 N          -3.8871  -18.4307   23.0970 N.3     1  UNL1       -0.2934
     24 H          -4.3447  -17.6409   23.5523 H       1  UNL1        0.1236
@<TRIPOS>BOND
     1     1     2    1
     2     2    13    1
     3    14    13    1
     4    14    15    1
     5    15    16    1
     6    16    17   ar
     7    17    18   ar
     8    18    19   ar
     9    19    20   ar
    10    20    21   ar
    11    21    22    1
    12    22    23    1
    13     3     2    1
    14     3     4    1
    15     4     5    1
    16     5     6    1
    17     6     7    1
    18     7     8   ar
    19     8     9   ar
    20     9    10   ar
    21    10    11   ar
    22    11    12   ar
    23    23    14    1
    24    12     3    1
    25    21    16   ar
    26    12     7   ar
    27    23    24    1
@<TRIPOS>MOLECULE
*****
 24 27 0 0 0
SMALL
GASTEIGER

@<TRIPOS>ATOM
      1 C          -6.2827  -19.3090   19.7759 C.3     1  UNL1        0.0899
      2 N          -5.9590  -19.4243   21.2360 N.3     1  UNL1       -0.2667
      3 C          -4.7708  -18.7032   21.8000 C.3     1  UNL1        0.0978
      4 C          -4.7781  -18.2494   23.2297 C.3     1  UNL1        0.0224
      5 C          -3.5898  -17.5283   23.7937 C.3     1  UNL1        0.0065
      6 C          -2.3943  -17.2611   22.9281 C.3     1  UNL1        0.0277
      7 C          -2.3871  -17.7149   21.4985 C.ar    1  UNL1       -0.0073
      8 C          -1.1915  -17.4476   20.6328 C.ar    1  UNL1       -0.0015
      9 C          -1.1843  -17.9015   19.2031 C.ar    1  UNL1        0.0203
     10 C          -2.3725  -18.6225   18.6391 C.ar    1  UNL1        0.0985
     11 N          -3.5680  -18.8898   19.5047 N.ar    1  UNL1       -0.2471
     12 C          -3.5753  -18.4360   20.9344 C.ar    1  UNL1        0.0695
     13 C          -6.8236  -20.2606   22.1320 C.3     1  UNL1        0.0886
     14 C          -8.1868  -19.7743   22.5261 C.3     1  UNL1        0.0764
     15 C          -8.7708  -18.5616   21.8642 C.3     1  UNL1        0.0626
     16 C         -10.1340  -18.0752   22.2583 C.ar    1  UNL1        0.0577
     17 N         -10.7180  -16.8625   21.5964 N.ar    1  UNL1       -0.2484
     18 C         -12.0812  -16.3762   21.9905 C.ar    1  UNL1        0.0984
     19 C         -12.8603  -17.1028   23.0465 C.ar    1  UNL1        0.0204
     20 C         -12.2763  -18.3155   23.7084 C.ar    1  UNL1       -0.0002
     21 C         -10.9132  -18.8018   23.3143 C.ar    1  UNL1        0.0073
     22 C         -10.3291  -20.0146   23.9762 C.3     1  UNL1        0.0968
     23 N          -8.9660  -20.5008   23.5821 N.3     1  UNL1       -0.2934
     24 H          -9.0786  -21.4610   23.2568 H       1  UNL1        0.1236
@<TRIPOS>BOND
     1     1     2    1
     2     2    13    1
     3    14    13    1
     4    14    15    1
     5    15    16    1
     6    16    17   ar
     7    17    18   ar
     8    18    19   ar
     9    19    20   ar
    10    20    21   ar
    11    21    22    1
    12    22    23    1
    13     3     2    1
    14     3     4    1
    15     4     5    1
    16     5     6    1
    17     6     7    1
    18     7     8   ar
    19     8     9   ar
    20     9    10   ar
    21    10    11   ar
    22    11    12   ar
    23    23    14    1
    24    12     3    1
    25    21    16   ar
    26    12     7   ar
    27    23    24    1
@<TRIPOS>MOLECULE
*****
 24 27 0 0 0
SMALL
GASTEIGER

@<TRIPOS>ATOM
      1 C         -11.6304  -18.3387   23.4288 C.3     1  UNL1        0.0899
      2 N         -10.1994  -18.3570   22.9795 N.3     1  UNL1       -0.2667
      3 C          -9.3077  -17.1858   23.2677 C.3     1  UNL1        0.0978
      4 C          -8.8006  -16.3343   22.1418 C.3     1  UNL1        0.0224
      5 C          -7.9089  -15.1630   22.4300 C.3     1  UNL1        0.0065
      6 C          -7.5244  -14.8432   23.8441 C.3     1  UNL1        0.0277
      7 C          -8.0315  -15.6947   24.9700 C.ar    1  UNL1       -0.0073
      8 C          -7.6469  -15.3749   26.3843 C.ar    1  UNL1       -0.0015
      9 C          -8.1541  -16.2264   27.5102 C.ar    1  UNL1        0.0203
     10 C          -9.0457  -17.3977   27.2220 C.ar    1  UNL1        0.0985
     11 N          -9.4303  -17.7175   25.8079 N.ar    1  UNL1       -0.2471
     12 C          -8.9232  -16.8660   24.6819 C.ar    1  UNL1        0.0695
     13 C          -9.6601  -19.5467   22.2422 C.3     1  UNL1        0.0886
     14 C          -8.3092  -19.4780   21.5936 C.3     1  UNL1        0.0764
     15 C          -7.0691  -19.5830   22.4309 C.3     1  UNL1        0.0626
     16 C          -5.7182  -19.5143   21.7824 C.ar    1  UNL1        0.0577
     17 N          -4.4781  -19.6193   22.6197 N.ar    1  UNL1       -0.2484
     18 C          -3.1273  -19.5505   21.9711 C.ar    1  UNL1        0.0984
     19 C          -3.0166  -19.3768   20.4853 C.ar    1  UNL1        0.0204
     20 C          -4.2568  -19.2718   19.6481 C.ar    1  UNL1       -0.0002
     21 C          -5.6075  -19.3405   20.2966 C.ar    1  UNL1        0.0073
     22 C          -6.8477  -19.2356   19.4593 C.3     1  UNL1        0.0968
     23 N          -8.1985  -19.3043   20.1079 N.3     1  UNL1       -0.2934
     24 H          -8.6899  -20.0902   19.6821 H       1  UNL1        0.1236
@<TRIPOS>BOND
     1     1     2    1
     2     2    13    1
     3    14    13    1
     4    14    15    1
     5    15    16    1
     6    16    17   ar
     7    17    18   ar
     8    18    19   ar
     9    19    20   ar
    10    20    21   ar
    11    21    22    1
    12    22    23    1
    13     3     2    1
    14     3     4    1
    15     4     5    1
    16     5     6    1
    17     6     7    1
    18     7     8   ar
    19     8     9   ar
    20     9    10   ar
    21    10    11   ar
    22    11    12   ar
    23    23    14    1
    24    12     3    1
    25    21    16   ar
    26    12     7   ar
    27    23    24    1
