@<TRIPOS>MOLECULE
*****
 35 39 0 0 0
SMALL
GASTEIGER

@<TRIPOS>ATOM
      1 C           8.2543   -6.1237   28.6080 C.2     1  UNL1        0.0036
      2 C           8.1389   -6.0806   27.1131 C.2     1  UNL1        0.0036
      3 C           7.6932   -5.6553   25.7455 C.3     1  UNL1        0.1686
      4 O           6.9710   -4.8991   24.6700 O.3     1  UNL1       -0.3442
      5 C           6.0593   -3.9032   24.0166 C.3     1  UNL1        0.1721
      6 C           5.0682   -2.7877   23.8639 C.ar    1  UNL1        0.0425
      7 C           4.1171   -1.6872   24.2304 C.ar    1  UNL1        0.0158
      8 C           3.3208   -0.7344   25.0718 C.ar    1  UNL1        0.0504
      9 C           3.0859   -0.5567   23.5586 C.ar    1  UNL1        0.0178
     10 C           3.6314   -1.2469   22.3435 C.ar    1  UNL1        0.0379
     11 C           4.6225   -2.3624   22.4963 C.ar    1  UNL1        0.1370
     12 N           2.7754   -0.0441   26.2869 N.pl3   1  UNL1       -0.2825
     13 C           2.6142    0.2437   28.0740 C.ar    1  UNL1        0.2207
     14 N           1.6632    1.3442   28.4405 N.ar    1  UNL1       -0.2120
     15 C           1.4343    1.6885   29.8824 C.ar    1  UNL1        0.1034
     16 C           2.1566    0.9322   30.9578 C.ar    1  UNL1        0.0404
     17 C           3.1076   -0.1683   30.5913 C.ar    1  UNL1        0.0917
     18 N           3.3364   -0.5126   29.1494 N.ar    1  UNL1       -0.2130
     19 C           3.8299   -0.9245   31.6667 C.ar    1  UNL1        0.0470
     20 C           3.9108   -0.9283   33.1645 C.ar    1  UNL1        0.0082
     21 C           4.8769   -2.0003   33.5739 C.ar    1  UNL1        0.0052
     22 C           5.7327   -3.0359   32.4729 C.ar    1  UNL1        0.0369
     23 S           4.7415   -1.9204   32.3202 S.2     1  UNL1       -0.0873
     24 C           6.6837   -4.1364   32.1064 C.3     1  UNL1        0.1754
     25 O           7.4801   -5.0893   31.2649 O.3     1  UNL1       -0.3437
     26 C           8.0255   -5.7794   30.0499 C.3     1  UNL1        0.1686
     27 H           2.1651    0.6256   25.9019 H       1  UNL1        0.1551
     28 O           5.1679   -3.0526   21.2812 O.3     1  UNL1       -0.4742
     29 C           4.2961   -3.9853   20.4937 C.3     1  UNL1        0.2226
     30 C           3.5347   -3.4765   19.3057 C.3     1  UNL1        0.1200
     31 N           3.9131   -2.1684   18.6765 N.3     1  UNL1       -0.2696
     32 C           5.1453   -1.9053   17.8626 C.3     1  UNL1        0.0722
     33 C           5.1194   -0.4681   17.4339 C.3     1  UNL1        0.0188
     34 C           3.8713    0.1571   17.9829 C.3     1  UNL1        0.0188
     35 C           3.1258   -0.8938   18.7509 C.3     1  UNL1        0.0722
@<TRIPOS>BOND
     1     1     2    2
     2     2     3    1
     3     3     4    1
     4     4     5    1
     5     5     6    1
     6     6     7   ar
     7     7     8   ar
     8     8     9   ar
     9     9    10   ar
    10    10    11   ar
    11    11    28    1
    12    28    29    1
    13    29    30    1
    14    30    31    1
    15    31    32    1
    16    32    33    1
    17    33    34    1
    18    34    35    1
    19     8    12    1
    20    12    13    1
    21    13    14   ar
    22    14    15   ar
    23    15    16   ar
    24    16    17   ar
    25    17    18   ar
    26    17    19    1
    27    19    20   ar
    28    20    21   ar
    29    21    22   ar
    30    22    23   ar
    31    22    24    1
    32    24    25    1
    33    25    26    1
    34    26     1    1
    35    11     6   ar
    36    35    31    1
    37    18    13   ar
    38    23    19   ar
    39    12    27    1
@<TRIPOS>MOLECULE
*****
 35 39 0 0 0
SMALL
GASTEIGER

@<TRIPOS>ATOM
      1 C           4.6750   -1.7932   32.0966 C.2     1  UNL1        0.0036
      2 C           3.8660   -0.8511   31.2551 C.2     1  UNL1        0.0036
      3 C           3.2781   -0.1970   30.0400 C.3     1  UNL1        0.1686
      4 O           2.9822    0.0903   28.5978 O.3     1  UNL1       -0.3442
      5 C           3.0139   -0.0239   27.1026 C.3     1  UNL1        0.1721
      6 C           3.3694   -0.5258   25.7344 C.ar    1  UNL1        0.0425
      7 C           4.0058   -1.3549   24.6586 C.ar    1  UNL1        0.0158
      8 C           4.8465   -2.4112   24.0047 C.ar    1  UNL1        0.0504
      9 C           4.0805   -1.5297   22.9983 C.ar    1  UNL1        0.0178
     10 C           3.1370   -0.3736   23.1513 C.ar    1  UNL1        0.0379
     11 C           2.7815    0.1283   24.5194 C.ar    1  UNL1        0.1370
     12 N           5.7900   -3.5674   23.8517 N.pl3   1  UNL1       -0.2825
     13 C           6.8909   -4.8763   24.4661 C.ar    1  UNL1        0.2207
     14 N           7.5273   -5.7054   23.3903 N.ar    1  UNL1       -0.2120
     15 C           8.4597   -6.8218   23.7566 C.ar    1  UNL1        0.1034
     16 C           8.7557   -7.1091   25.1988 C.ar    1  UNL1        0.0404
     17 C           8.1192   -6.2800   26.2746 C.ar    1  UNL1        0.0917
     18 N           7.1868   -5.1636   25.9083 N.ar    1  UNL1       -0.2130
     19 C           8.4152   -6.5673   27.7168 C.ar    1  UNL1        0.0470
     20 C           9.2412   -7.5324   28.5144 C.ar    1  UNL1        0.0082
     21 C           9.0447   -7.2195   29.9683 C.ar    1  UNL1        0.0052
     22 C           8.0280   -5.9511   30.5802 C.ar    1  UNL1        0.0369
     23 S           8.3835   -6.4531   29.2121 S.2     1  UNL1       -0.0873
     24 C           7.3915   -5.1220   31.6560 C.3     1  UNL1        0.1754
     25 O           6.5508   -4.0656   32.3099 O.3     1  UNL1       -0.3437
     26 C           5.6074   -2.9096   32.4629 C.3     1  UNL1        0.1686
     27 H           5.8414   -3.6794   22.8750 H       1  UNL1        0.1551
     28 O           1.8380    1.2844   24.6724 O.3     1  UNL1       -0.4742
     29 C           0.3600    1.0409   24.7515 C.3     1  UNL1        0.2226
     30 C          -0.4820    1.8405   25.7010 C.3     1  UNL1        0.1200
     31 N          -0.2898    1.6919   27.1813 N.3     1  UNL1       -0.2696
     32 C           0.3555    2.6942   28.0916 C.3     1  UNL1        0.0722
     33 C           0.3349    2.1365   29.4839 C.3     1  UNL1        0.0188
     34 C          -0.3232    0.7895   29.4341 C.3     1  UNL1        0.0188
     35 C          -0.7093    0.5147   28.0109 C.3     1  UNL1        0.0722
@<TRIPOS>BOND
     1     1     2    2
     2     2     3    1
     3     3     4    1
     4     4     5    1
     5     5     6    1
     6     6     7   ar
     7     7     8   ar
     8     8     9   ar
     9     9    10   ar
    10    10    11   ar
    11    11    28    1
    12    28    29    1
    13    29    30    1
    14    30    31    1
    15    31    32    1
    16    32    33    1
    17    33    34    1
    18    34    35    1
    19     8    12    1
    20    12    13    1
    21    13    14   ar
    22    14    15   ar
    23    15    16   ar
    24    16    17   ar
    25    17    18   ar
    26    17    19    1
    27    19    20   ar
    28    20    21   ar
    29    21    22   ar
    30    22    23   ar
    31    22    24    1
    32    24    25    1
    33    25    26    1
    34    26     1    1
    35    11     6   ar
    36    35    31    1
    37    18    13   ar
    38    23    19   ar
    39    12    27    1
@<TRIPOS>MOLECULE
*****
 35 39 0 0 0
SMALL
GASTEIGER

@<TRIPOS>ATOM
      1 C           7.0708   -4.3781   31.3843 C.2     1  UNL1        0.0036
      2 C           6.1625   -3.4726   32.1621 C.2     1  UNL1        0.0036
      3 C           5.1149   -2.4397   32.4545 C.3     1  UNL1        0.1686
      4 O           4.0542   -1.4039   32.2261 O.3     1  UNL1       -0.3442
      5 C           3.1085   -0.4903   31.5045 C.3     1  UNL1        0.1721
      6 C           2.3917    0.1911   30.3766 C.ar    1  UNL1        0.0425
      7 C           1.9903    0.5580   28.9787 C.ar    1  UNL1        0.0158
      8 C           1.9527    0.5661   27.4792 C.ar    1  UNL1        0.0504
      9 C           0.9581    1.5538   28.1210 C.ar    1  UNL1        0.0178
     10 C           0.6272    1.9054   29.5412 C.ar    1  UNL1        0.0379
     11 C           1.3440    1.2240   30.6690 C.ar    1  UNL1        0.1370
     12 N           2.2836    0.2145   26.0589 N.pl3   1  UNL1       -0.2825
     13 C           3.1788   -0.6882   24.7603 C.ar    1  UNL1        0.2207
     14 N           2.7775   -0.3214   23.3624 N.ar    1  UNL1       -0.2120
     15 C           3.4368   -0.9903   22.1928 C.ar    1  UNL1        0.1034
     16 C           4.4974   -2.0260   22.4212 C.ar    1  UNL1        0.0404
     17 C           4.8988   -2.3929   23.8192 C.ar    1  UNL1        0.0917
     18 N           4.2395   -1.7240   24.9887 N.ar    1  UNL1       -0.2130
     19 C           5.9595   -3.4287   24.0476 C.ar    1  UNL1        0.0470
     20 C           6.8474   -4.3151   23.2254 C.ar    1  UNL1        0.0082
     21 C           7.6915   -5.1249   24.1644 C.ar    1  UNL1        0.0052
     22 C           7.6220   -5.0237   25.8970 C.ar    1  UNL1        0.0369
     23 S           6.9052   -4.3423   24.7692 S.2     1  UNL1       -0.0873
     24 C           8.0234   -5.3905   27.2950 C.3     1  UNL1        0.1754
     25 O           8.0609   -5.3986   28.7946 O.3     1  UNL1       -0.3437
     26 C           7.7301   -5.0470   30.2147 C.3     1  UNL1        0.1686
     27 H           1.6798    0.7967   25.5435 H       1  UNL1        0.1551
     28 O           1.0132    1.5756   32.0892 O.3     1  UNL1       -0.4742
     29 C           1.7938    2.6418   32.7993 C.3     1  UNL1        0.2226
     30 C           2.5797    2.3013   34.0307 C.3     1  UNL1        0.1200
     31 N           2.2666    2.9794   35.3315 N.3     1  UNL1       -0.2696
     32 C           2.5461    2.4331   36.7002 C.3     1  UNL1        0.0722
     33 C           2.0713    3.4390   37.7066 C.3     1  UNL1        0.0188
     34 C           1.4984    4.6071   36.9598 C.3     1  UNL1        0.0188
     35 C           1.6191    4.3229   35.4919 C.3     1  UNL1        0.0722
@<TRIPOS>BOND
     1     1     2    2
     2     2     3    1
     3     3     4    1
     4     4     5    1
     5     5     6    1
     6     6     7   ar
     7     7     8   ar
     8     8     9   ar
     9     9    10   ar
    10    10    11   ar
    11    11    28    1
    12    28    29    1
    13    29    30    1
    14    30    31    1
    15    31    32    1
    16    32    33    1
    17    33    34    1
    18    34    35    1
    19     8    12    1
    20    12    13    1
    21    13    14   ar
    22    14    15   ar
    23    15    16   ar
    24    16    17   ar
    25    17    18   ar
    26    17    19    1
    27    19    20   ar
    28    20    21   ar
    29    21    22   ar
    30    22    23   ar
    31    22    24    1
    32    24    25    1
    33    25    26    1
    34    26     1    1
    35    11     6   ar
    36    35    31    1
    37    18    13   ar
    38    23    19   ar
    39    12    27    1
@<TRIPOS>MOLECULE
*****
 35 39 0 0 0
SMALL
GASTEIGER

@<TRIPOS>ATOM
      1 C           2.0628    1.1435   29.9024 C.2     1  UNL1        0.0036
      2 C           1.6017    1.4678   28.5123 C.2     1  UNL1        0.0036
      3 C           1.4776    1.4088   27.0187 C.3     1  UNL1        0.1686
      4 O           1.7055    0.9734   25.6015 O.3     1  UNL1       -0.3442
      5 C           2.2580    0.2142   24.4317 C.3     1  UNL1        0.1721
      6 C           3.0683   -0.7773   23.6504 C.ar    1  UNL1        0.0425
      7 C           4.0388   -1.8813   23.3519 C.ar    1  UNL1        0.0158
      8 C           5.0524   -2.9649   23.5721 C.ar    1  UNL1        0.0504
      9 C           4.6890   -2.7602   22.0879 C.ar    1  UNL1        0.0178
     10 C           3.7545   -1.8278   21.3754 C.ar    1  UNL1        0.0379
     11 C           2.9442   -0.8364   22.1568 C.ar    1  UNL1        0.1370
     12 N           5.9869   -3.8973   24.2845 N.pl3   1  UNL1       -0.2825
     13 C           6.8000   -4.5980   25.7510 C.ar    1  UNL1        0.2207
     14 N           7.7705   -5.7021   25.4525 N.ar    1  UNL1       -0.2120
     15 C           8.5130   -6.3708   26.5712 C.ar    1  UNL1        0.1034
     16 C           8.2851   -5.9354   27.9884 C.ar    1  UNL1        0.0404
     17 C           7.3146   -4.8313   28.2869 C.ar    1  UNL1        0.0917
     18 N           6.5721   -4.1626   27.1682 N.ar    1  UNL1       -0.2130
     19 C           7.0867   -4.3959   29.7041 C.ar    1  UNL1        0.0470
     20 C           7.5791   -4.7572   31.0741 C.ar    1  UNL1        0.0082
     21 C           6.8872   -3.8684   32.0648 C.ar    1  UNL1        0.0052
     22 C           5.7239   -2.6453   31.6552 C.ar    1  UNL1        0.0369
     23 S           6.5343   -3.6367   30.8739 S.2     1  UNL1       -0.0873
     24 C           4.7534   -1.5412   31.9537 C.3     1  UNL1        0.1754
     25 O           3.7398   -0.4575   31.7335 O.3     1  UNL1       -0.3437
     26 C           2.8054    0.4748   31.0211 C.3     1  UNL1        0.1686
     27 H           6.3764   -4.4212   23.5477 H       1  UNL1        0.1551
     28 O           2.0098    0.0961   21.4443 O.3     1  UNL1       -0.4742
     29 C           1.2325   -0.3851   20.2550 C.3     1  UNL1        0.2226
     30 C           1.4370    0.2578   18.9154 C.3     1  UNL1        0.1200
     31 N           2.8217    0.4044   18.3575 N.3     1  UNL1       -0.2696
     32 C           3.7104    1.6034   18.5078 C.3     1  UNL1        0.0722
     33 C           4.9987    1.3177   17.7946 C.3     1  UNL1        0.0188
     34 C           4.9062   -0.0579   17.2035 C.3     1  UNL1        0.0188
     35 C           3.5607   -0.6223   17.5514 C.3     1  UNL1        0.0722
@<TRIPOS>BOND
     1     1     2    2
     2     2     3    1
     3     3     4    1
     4     4     5    1
     5     5     6    1
     6     6     7   ar
     7     7     8   ar
     8     8     9   ar
     9     9    10   ar
    10    10    11   ar
    11    11    28    1
    12    28    29    1
    13    29    30    1
    14    30    31    1
    15    31    32    1
    16    32    33    1
    17    33    34    1
    18    34    35    1
    19     8    12    1
    20    12    13    1
    21    13    14   ar
    22    14    15   ar
    23    15    16   ar
    24    16    17   ar
    25    17    18   ar
    26    17    19    1
    27    19    20   ar
    28    20    21   ar
    29    21    22   ar
    30    22    23   ar
    31    22    24    1
    32    24    25    1
    33    25    26    1
    34    26     1    1
    35    11     6   ar
    36    35    31    1
    37    18    13   ar
    38    23    19   ar
    39    12    27    1
@<TRIPOS>MOLECULE
*****
 35 39 0 0 0
SMALL
GASTEIGER

@<TRIPOS>ATOM
      1 C           1.2566    1.6843   28.5063 C.2     1  UNL1        0.0036
      2 C           1.1311    1.6373   27.0123 C.2     1  UNL1        0.0036
      3 C           1.3661    1.2213   25.5905 C.3     1  UNL1        0.1686
      4 O           1.9333    0.4864   24.4123 O.3     1  UNL1       -0.3442
      5 C           2.7642   -0.4787   23.6198 C.3     1  UNL1        0.1721
      6 C           3.7587   -1.5578   23.3087 C.ar    1  UNL1        0.0425
      7 C           4.7967   -2.6204   23.5164 C.ar    1  UNL1        0.0158
      8 C           5.7531   -3.5387   24.2179 C.ar    1  UNL1        0.0504
      9 C           5.7476   -3.7158   22.6864 C.ar    1  UNL1        0.0178
     10 C           4.9882   -3.0527   21.5756 C.ar    1  UNL1        0.0379
     11 C           3.9938   -1.9738   21.8869 C.ar    1  UNL1        0.1370
     12 N           6.5126   -4.2017   25.3287 N.pl3   1  UNL1       -0.2825
     13 C           6.9702   -4.4736   27.0663 C.ar    1  UNL1        0.2207
     14 N           8.0082   -5.5363   27.2740 N.ar    1  UNL1       -0.2120
     15 C           8.4790   -5.8641   28.6600 C.ar    1  UNL1        0.1034
     16 C           7.9119   -5.1292   29.8382 C.ar    1  UNL1        0.0404
     17 C           6.8738   -4.0665   29.6305 C.ar    1  UNL1        0.0917
     18 N           6.4030   -3.7387   28.2445 N.ar    1  UNL1       -0.2130
     19 C           6.3067   -3.3316   30.8087 C.ar    1  UNL1        0.0470
     20 C           6.4681   -3.3227   32.2999 C.ar    1  UNL1        0.0082
     21 C           5.5413   -2.2848   32.8603 C.ar    1  UNL1        0.0052
     22 C           4.4813   -1.2874   31.9123 C.ar    1  UNL1        0.0369
     23 S           5.4757   -2.3665   31.6011 S.2     1  UNL1       -0.0873
     24 C           3.4433   -0.2248   31.7046 C.3     1  UNL1        0.1754
     25 O           2.4868    0.6935   31.0030 O.3     1  UNL1       -0.3437
     26 C           1.7274    1.3565   29.8923 C.3     1  UNL1        0.1686
     27 H           7.0774   -4.8506   24.8500 H       1  UNL1        0.1551
     28 O           3.2343   -1.3107   20.7760 O.3     1  UNL1       -0.4742
     29 C           3.4367   -1.7572   19.3584 C.3     1  UNL1        0.2226
     30 C           3.4975   -0.7436   18.2544 C.3     1  UNL1        0.1200
     31 N           2.7062    0.5266   18.3580 N.3     1  UNL1       -0.2696
     32 C           3.2719    1.9127   18.4496 C.3     1  UNL1        0.0722
     33 C           2.1256    2.8763   18.5365 C.3     1  UNL1        0.0188
     34 C           0.8515    2.0856   18.4987 C.3     1  UNL1        0.0188
     35 C           1.2103    0.6333   18.3884 C.3     1  UNL1        0.0722
@<TRIPOS>BOND
     1     1     2    2
     2     2     3    1
     3     3     4    1
     4     4     5    1
     5     5     6    1
     6     6     7   ar
     7     7     8   ar
     8     8     9   ar
     9     9    10   ar
    10    10    11   ar
    11    11    28    1
    12    28    29    1
    13    29    30    1
    14    30    31    1
    15    31    32    1
    16    32    33    1
    17    33    34    1
    18    34    35    1
    19     8    12    1
    20    12    13    1
    21    13    14   ar
    22    14    15   ar
    23    15    16   ar
    24    16    17   ar
    25    17    18   ar
    26    17    19    1
    27    19    20   ar
    28    20    21   ar
    29    21    22   ar
    30    22    23   ar
    31    22    24    1
    32    24    25    1
    33    25    26    1
    34    26     1    1
    35    11     6   ar
    36    35    31    1
    37    18    13   ar
    38    23    19   ar
    39    12    27    1
@<TRIPOS>MOLECULE
*****
 35 39 0 0 0
SMALL
GASTEIGER

@<TRIPOS>ATOM
      1 C           1.2152    1.5282   26.9016 C.2     1  UNL1        0.0036
      2 C           1.5632    1.0932   25.5088 C.2     1  UNL1        0.0036
      3 C           2.2367    0.3567   24.3891 C.3     1  UNL1        0.1686
      4 O           3.1546   -0.5924   23.6773 O.3     1  UNL1       -0.3442
      5 C           4.2060   -1.6396   23.4593 C.3     1  UNL1        0.1721
      6 C           5.2644   -2.6588   23.7615 C.ar    1  UNL1        0.0425
      7 C           6.2018   -3.5269   24.5473 C.ar    1  UNL1        0.0158
      8 C           6.9054   -4.1392   25.7220 C.ar    1  UNL1        0.0504
      9 C           7.3810   -4.6971   24.3658 C.ar    1  UNL1        0.0178
     10 C           6.9962   -4.4144   22.9438 C.ar    1  UNL1        0.0379
     11 C           5.9379   -3.3953   22.6417 C.ar    1  UNL1        0.1370
     12 N           7.2902   -4.4219   27.1441 N.pl3   1  UNL1       -0.2825
     13 C           7.1866   -4.1996   28.9448 C.ar    1  UNL1        0.2207
     14 N           8.1240   -5.0677   29.7307 N.ar    1  UNL1       -0.2120
     15 C           8.1436   -4.9866   31.2283 C.ar    1  UNL1        0.1034
     16 C           7.2257   -4.0375   31.9401 C.ar    1  UNL1        0.0404
     17 C           6.2883   -3.1694   31.1543 C.ar    1  UNL1        0.0917
     18 N           6.2687   -3.2505   29.6566 N.ar    1  UNL1       -0.2130
     19 C           5.3704   -2.2203   31.8661 C.ar    1  UNL1        0.0470
     20 C           5.0581   -1.8190   33.2773 C.ar    1  UNL1        0.0082
     21 C           3.9868   -0.7698   33.2345 C.ar    1  UNL1        0.0052
     22 C           3.2606   -0.1538   31.7819 C.ar    1  UNL1        0.0369
     23 S           4.3189   -1.1730   32.0841 S.2     1  UNL1       -0.0873
     24 C           2.3232    0.7142   30.9961 C.3     1  UNL1        0.1754
     25 O           1.6196    1.3266   29.8212 O.3     1  UNL1       -0.3437
     26 C           1.2348    1.6093   28.3993 C.3     1  UNL1        0.1686
     27 H           7.9861   -5.1118   27.0490 H       1  UNL1        0.1551
     28 O           5.5531   -3.1126   21.2196 O.3     1  UNL1       -0.4742
     29 C           4.5152   -3.9570   20.5414 C.3     1  UNL1        0.2226
     30 C           4.0226   -3.5856   19.1742 C.3     1  UNL1        0.1200
     31 N           3.5968   -2.1760   18.8878 N.3     1  UNL1       -0.2696
     32 C           3.9599   -1.3750   17.6728 C.3     1  UNL1        0.0722
     33 C           3.3208   -0.0240   17.8003 C.3     1  UNL1        0.0188
     34 C           2.5626    0.0099   19.0942 C.3     1  UNL1        0.0188
     35 C           2.7333   -1.3202   19.7663 C.3     1  UNL1        0.0722
@<TRIPOS>BOND
     1     1     2    2
     2     2     3    1
     3     3     4    1
     4     4     5    1
     5     5     6    1
     6     6     7   ar
     7     7     8   ar
     8     8     9   ar
     9     9    10   ar
    10    10    11   ar
    11    11    28    1
    12    28    29    1
    13    29    30    1
    14    30    31    1
    15    31    32    1
    16    32    33    1
    17    33    34    1
    18    34    35    1
    19     8    12    1
    20    12    13    1
    21    13    14   ar
    22    14    15   ar
    23    15    16   ar
    24    16    17   ar
    25    17    18   ar
    26    17    19    1
    27    19    20   ar
    28    20    21   ar
    29    21    22   ar
    30    22    23   ar
    31    22    24    1
    32    24    25    1
    33    25    26    1
    34    26     1    1
    35    11     6   ar
    36    35    31    1
    37    18    13   ar
    38    23    19   ar
    39    12    27    1
@<TRIPOS>MOLECULE
*****
 35 39 0 0 0
SMALL
GASTEIGER

@<TRIPOS>ATOM
      1 C           1.7011    1.0788   27.5270 C.2     1  UNL1        0.0036
      2 C           2.6753    0.3089   28.3685 C.2     1  UNL1        0.0036
      3 C           3.7650   -0.6527   28.7397 C.3     1  UNL1        0.1686
      4 O           4.8388   -1.6902   28.5957 O.3     1  UNL1       -0.3442
      5 C           5.7671   -2.6782   27.9539 C.3     1  UNL1        0.1721
      6 C           6.4380   -3.4978   26.8917 C.ar    1  UNL1        0.0425
      7 C           6.7707   -4.0499   25.5373 C.ar    1  UNL1        0.0158
      8 C           6.7248   -4.2681   24.0540 C.ar    1  UNL1        0.0504
      9 C           7.7799   -5.1368   24.7674 C.ar    1  UNL1        0.0178
     10 C           8.1987   -5.2790   26.2008 C.ar    1  UNL1        0.0379
     11 C           7.5277   -4.4594   27.2629 C.ar    1  UNL1        0.1370
     12 N           6.3060   -4.1260   22.6206 N.pl3   1  UNL1       -0.2825
     13 C           5.3160   -3.4318   21.2639 C.ar    1  UNL1        0.2207
     14 N           5.6486   -3.9840   19.9095 N.ar    1  UNL1       -0.2120
     15 C           4.9074   -3.4987   18.6991 C.ar    1  UNL1        0.1034
     16 C           3.8336   -2.4613   18.8431 C.ar    1  UNL1        0.0404
     17 C           3.5010   -1.9091   20.1975 C.ar    1  UNL1        0.0917
     18 N           4.2422   -2.3944   21.4079 N.ar    1  UNL1       -0.2130
     19 C           2.4272   -0.8717   20.3415 C.ar    1  UNL1        0.0470
     20 C           1.4714   -0.1266   19.4576 C.ar    1  UNL1        0.0082
     21 C           0.6594    0.7912   20.3227 C.ar    1  UNL1        0.0052
     22 C           0.8280    0.9359   22.0454 C.ar    1  UNL1        0.0369
     23 S           1.4989    0.1164   20.9832 S.2     1  UNL1       -0.0873
     24 C           0.4953    1.4881   23.3998 C.3     1  UNL1        0.1754
     25 O           0.5412    1.7062   24.8833 O.3     1  UNL1       -0.3437
     26 C           0.9599    1.5641   26.3166 C.3     1  UNL1        0.1686
     27 H           6.8956   -4.7634   22.1566 H       1  UNL1        0.1551
     28 O           7.9465   -4.6016   28.6963 O.3     1  UNL1       -0.4742
     29 C           7.4157   -5.7344   29.5239 C.3     1  UNL1        0.2226
     30 C           7.0939   -5.5180   30.9729 C.3     1  UNL1        0.1200
     31 N           7.2416   -4.1535   31.5782 N.3     1  UNL1       -0.2696
     32 C           8.5325   -3.4979   31.9702 C.3     1  UNL1        0.0722
     33 C           8.2130   -2.1443   32.5320 C.3     1  UNL1        0.0188
     34 C           6.7246   -1.9633   32.4873 C.3     1  UNL1        0.0188
     35 C           6.1243   -3.2051   31.8978 C.3     1  UNL1        0.0722
@<TRIPOS>BOND
     1     1     2    2
     2     2     3    1
     3     3     4    1
     4     4     5    1
     5     5     6    1
     6     6     7   ar
     7     7     8   ar
     8     8     9   ar
     9     9    10   ar
    10    10    11   ar
    11    11    28    1
    12    28    29    1
    13    29    30    1
    14    30    31    1
    15    31    32    1
    16    32    33    1
    17    33    34    1
    18    34    35    1
    19     8    12    1
    20    12    13    1
    21    13    14   ar
    22    14    15   ar
    23    15    16   ar
    24    16    17   ar
    25    17    18   ar
    26    17    19    1
    27    19    20   ar
    28    20    21   ar
    29    21    22   ar
    30    22    23   ar
    31    22    24    1
    32    24    25    1
    33    25    26    1
    34    26     1    1
    35    11     6   ar
    36    35    31    1
    37    18    13   ar
    38    23    19   ar
    39    12    27    1
@<TRIPOS>MOLECULE
*****
 35 39 0 0 0
SMALL
GASTEIGER

@<TRIPOS>ATOM
      1 C           1.0787    1.5818   28.5515 C.2     1  UNL1        0.0036
      2 C           0.9728    1.5474   27.0556 C.2     1  UNL1        0.0036
      3 C           1.2366    1.1533   25.6326 C.3     1  UNL1        0.1686
      4 O           1.8383    0.4470   24.4540 O.3     1  UNL1       -0.3442
      5 C           2.7051   -0.4864   23.6620 C.3     1  UNL1        0.1721
      6 C           3.7327   -1.5343   23.3521 C.ar    1  UNL1        0.0425
      7 C           4.7971   -2.5702   23.5617 C.ar    1  UNL1        0.0158
      8 C           5.7698   -3.4693   24.2656 C.ar    1  UNL1        0.0504
      9 C           5.7879   -3.6300   22.7324 C.ar    1  UNL1        0.0178
     10 C           5.0241   -2.9762   21.6192 C.ar    1  UNL1        0.0379
     11 C           3.9965   -1.9284   21.9291 C.ar    1  UNL1        0.1370
     12 N           6.5337   -4.1231   25.3788 N.pl3   1  UNL1       -0.2825
     13 C           6.9774   -4.4010   27.1192 C.ar    1  UNL1        0.2207
     14 N           8.0417   -5.4369   27.3288 N.ar    1  UNL1       -0.2120
     15 C           8.5044   -5.7665   28.7170 C.ar    1  UNL1        0.1034
     16 C           7.9028   -5.0601   29.8956 C.ar    1  UNL1        0.0404
     17 C           6.8385   -4.0242   29.6860 C.ar    1  UNL1        0.0917
     18 N           6.3757   -3.6946   28.2978 N.ar    1  UNL1       -0.2130
     19 C           6.2368   -3.3179   30.8646 C.ar    1  UNL1        0.0470
     20 C           6.3797   -3.3205   32.3578 C.ar    1  UNL1        0.0082
     21 C           5.4178   -2.3145   32.9172 C.ar    1  UNL1        0.0052
     22 C           4.3424   -1.3366   31.9665 C.ar    1  UNL1        0.0369
     23 S           5.3700   -2.3845   31.6566 S.2     1  UNL1       -0.0873
     24 C           3.2780   -0.3007   31.7568 C.3     1  UNL1        0.1754
     25 O           2.3052    0.5985   31.0529 O.3     1  UNL1       -0.3437
     26 C           1.5414    1.2522   29.9397 C.3     1  UNL1        0.1686
     27 H           7.1220   -4.7510   24.9006 H       1  UNL1        0.1551
     28 O           3.2327   -1.2746   20.8158 O.3     1  UNL1       -0.4742
     29 C           3.1610   -1.9310   19.4689 C.3     1  UNL1        0.2226
     30 C           4.0482   -1.4576   18.3559 C.3     1  UNL1        0.1200
     31 N           5.5302   -1.3622   18.5672 N.3     1  UNL1       -0.2696
     32 C           6.5320   -2.4433   18.2883 C.3     1  UNL1        0.0722
     33 C           7.8915   -1.9181   18.6432 C.3     1  UNL1        0.0188
     34 C           7.7300   -0.5125   19.1414 C.3     1  UNL1        0.0188
     35 C           6.2706   -0.1690   19.0944 C.3     1  UNL1        0.0722
@<TRIPOS>BOND
     1     1     2    2
     2     2     3    1
     3     3     4    1
     4     4     5    1
     5     5     6    1
     6     6     7   ar
     7     7     8   ar
     8     8     9   ar
     9     9    10   ar
    10    10    11   ar
    11    11    28    1
    12    28    29    1
    13    29    30    1
    14    30    31    1
    15    31    32    1
    16    32    33    1
    17    33    34    1
    18    34    35    1
    19     8    12    1
    20    12    13    1
    21    13    14   ar
    22    14    15   ar
    23    15    16   ar
    24    16    17   ar
    25    17    18   ar
    26    17    19    1
    27    19    20   ar
    28    20    21   ar
    29    21    22   ar
    30    22    23   ar
    31    22    24    1
    32    24    25    1
    33    25    26    1
    34    26     1    1
    35    11     6   ar
    36    35    31    1
    37    18    13   ar
    38    23    19   ar
    39    12    27    1
@<TRIPOS>MOLECULE
*****
 35 39 0 0 0
SMALL
GASTEIGER

@<TRIPOS>ATOM
      1 C          -2.2713    3.6098   23.3574 C.2     1  UNL1        0.0036
      2 C          -2.2843    3.6323   24.8572 C.2     1  UNL1        0.0036
      3 C          -1.9052    3.3219   26.2748 C.3     1  UNL1        0.1686
      4 O          -1.1796    2.7160   27.4395 O.3     1  UNL1       -0.3442
      5 C          -0.1952    1.8877   28.2106 C.3     1  UNL1        0.1721
      6 C           0.9295    0.9368   28.4952 C.ar    1  UNL1        0.0425
      7 C           2.0587   -0.0218   28.2589 C.ar    1  UNL1        0.0158
      8 C           3.0563   -0.8727   27.5303 C.ar    1  UNL1        0.0504
      9 C           3.1789   -0.9649   29.0643 C.ar    1  UNL1        0.0178
     10 C           2.4333   -0.3244   30.1975 C.ar    1  UNL1        0.0379
     11 C           1.3087    0.6264   29.9129 C.ar    1  UNL1        0.1370
     12 N           3.8019   -1.5131   26.3971 N.pl3   1  UNL1       -0.2825
     13 C           4.1614   -1.8311   24.6443 C.ar    1  UNL1        0.2207
     14 N           5.2906   -2.7898   24.4080 N.ar    1  UNL1       -0.2120
     15 C           5.6942   -3.1425   23.0071 C.ar    1  UNL1        0.1034
     16 C           4.9687   -2.5366   21.8424 C.ar    1  UNL1        0.0404
     17 C           3.8395   -1.5780   22.0787 C.ar    1  UNL1        0.0917
     18 N           3.4358   -1.2252   23.4796 N.ar    1  UNL1       -0.2130
     19 C           3.1139   -0.9721   20.9141 C.ar    1  UNL1        0.0470
     20 C           3.1669   -1.0284   19.4161 C.ar    1  UNL1        0.0082
     21 C           2.0960   -0.1251   18.8800 C.ar    1  UNL1        0.0052
     22 C           1.0047    0.8071   19.8583 C.ar    1  UNL1        0.0369
     23 S           2.1294   -0.1438   20.1429 S.2     1  UNL1       -0.0873
     24 C          -0.1245    1.7657   20.0946 C.3     1  UNL1        0.1754
     25 O          -1.1221    2.6167   20.8233 O.3     1  UNL1       -0.3437
     26 C          -1.8677    3.2571   21.9564 C.3     1  UNL1        0.1686
     27 H           4.4661   -2.0724   26.8612 H       1  UNL1        0.1551
     28 O           0.5631    1.2669   31.0461 O.3     1  UNL1       -0.4742
     29 C           1.2040    2.3675   31.8385 C.3     1  UNL1        0.2226
     30 C           2.1197    2.0351   32.9790 C.3     1  UNL1        0.1200
     31 N           2.0721    2.8462   34.2400 N.3     1  UNL1       -0.2696
     32 C           2.7071    2.4798   35.5485 C.3     1  UNL1        0.0722
     33 C           2.4085    3.5733   36.5309 C.3     1  UNL1        0.0188
     34 C           1.5889    4.6156   35.8295 C.3     1  UNL1        0.0188
     35 C           1.3810    4.1662   34.4135 C.3     1  UNL1        0.0722
@<TRIPOS>BOND
     1     1     2    2
     2     2     3    1
     3     3     4    1
     4     4     5    1
     5     5     6    1
     6     6     7   ar
     7     7     8   ar
     8     8     9   ar
     9     9    10   ar
    10    10    11   ar
    11    11    28    1
    12    28    29    1
    13    29    30    1
    14    30    31    1
    15    31    32    1
    16    32    33    1
    17    33    34    1
    18    34    35    1
    19     8    12    1
    20    12    13    1
    21    13    14   ar
    22    14    15   ar
    23    15    16   ar
    24    16    17   ar
    25    17    18   ar
    26    17    19    1
    27    19    20   ar
    28    20    21   ar
    29    21    22   ar
    30    22    23   ar
    31    22    24    1
    32    24    25    1
    33    25    26    1
    34    26     1    1
    35    11     6   ar
    36    35    31    1
    37    18    13   ar
    38    23    19   ar
    39    12    27    1
