@<TRIPOS>MOLECULE
*****
 45 46 0 0 0
SMALL
GASTEIGER

@<TRIPOS>ATOM
      1 C           2.4689    0.9212   27.6823 C.3     1  UNL1        0.1514
      2 C           2.3135    0.4027   26.2833 C.3     1  UNL1        0.0326
      3 C           2.5619    1.3103   25.1152 C.3     1  UNL1        0.0026
      4 C           2.3025    0.8249   23.7199 C.3     1  UNL1        0.0001
      5 C           2.7646   -0.5396   23.3023 C.3     1  UNL1        0.0000
      6 C           4.1962   -0.9404   23.5021 C.3     1  UNL1        0.0000
      7 C           4.5863   -2.3873   23.4355 C.3     1  UNL1        0.0000
      8 C           5.7751   -2.8069   22.6227 C.3     1  UNL1        0.0000
      9 C           5.5982   -3.7395   21.4612 C.3     1  UNL1        0.0000
     10 C           4.2359   -3.9520   20.8706 C.3     1  UNL1        0.0000
     11 C           4.0349   -3.8383   19.3885 C.3     1  UNL1        0.0000
     12 C           5.1730   -3.4154   18.5076 C.3     1  UNL1        0.0000
     13 C           5.1061   -2.1108   17.7704 C.3     1  UNL1        0.0000
     14 C           6.0769   -1.0147   18.0960 C.3     1  UNL1        0.0000
     15 C           6.1708   -0.4878   19.4972 C.3     1  UNL1        0.0000
     16 C           4.9227   -0.1388   20.2524 C.3     1  UNL1        0.0000
     17 C           4.1951    1.1375   19.9498 C.3     1  UNL1        0.0003
     18 C           3.2407    1.2009   18.7943 C.3     1  UNL1        0.0088
     19 C           2.2287    0.1114   18.5967 C.3     1  UNL1        0.1033
     20 C           1.1851   -0.1418   19.6440 C.3     1  UNL1        0.3978
     21 F           0.1415   -0.3951   20.6913 F       1  UNL1       -0.1700
     22 F           1.9063   -1.3892   20.0610 F       1  UNL1       -0.1700
     23 F           0.4640    1.1056   19.2269 F       1  UNL1       -0.1700
     24 O           1.2600    1.3379   28.4663 O.3     1  UNL1       -0.2926
     25 P           0.2474    0.3133   28.8846 P.3     1  UNL1        0.3697
     26 O           1.3454   -0.5461   29.4376 O.2     1  UNL1       -0.2553
     27 O          -0.7652   -0.7112   29.3028 O.3     1  UNL1       -0.3218
     28 H          -0.3140   -1.4561   29.7301 H       1  UNL1        0.2198
     29 C          -0.8506    1.1727   28.3316 C.3     1  UNL1        0.2579
     30 O          -0.8404    1.5630   26.8833 O.3     1  UNL1       -0.3426
     31 C          -0.5962    4.0862   27.4523 C.3     1  UNL1        0.0342
     32 C          -0.9936    3.0033   26.4935 C.3     1  UNL1        0.1387
     33 C          -1.5443    3.3608   25.1447 C.3     1  UNL1        0.1384
     34 N          -3.0234    3.5275   24.9587 N.ar    1  UNL1       -0.2918
     35 C          -4.0393    3.6689   26.0532 C.ar    1  UNL1        0.1798
     36 N          -5.3899    3.8108   25.4163 N.ar    1  UNL1       -0.2195
     37 C          -5.2088    3.7572   23.9283 C.ar    1  UNL1        0.1481
     38 C          -6.1867    3.8451   22.7943 C.ar    1  UNL1        0.1480
     39 N          -7.6494    4.0203   23.0772 N.pl3   1  UNL1       -0.3413
     40 N          -5.7020    3.7580   21.3775 N.ar    1  UNL1       -0.2078
     41 C          -4.2394    3.5829   21.0946 C.ar    1  UNL1        0.2015
     42 N          -3.2614    3.4949   22.2286 N.ar    1  UNL1       -0.2048
     43 C          -3.7462    3.5820   23.6454 C.ar    1  UNL1        0.1674
     44 H          -7.9675    4.0775   24.0071 H       1  UNL1        0.1438
     45 H          -8.2912    4.0780   22.3329 H       1  UNL1        0.1438
@<TRIPOS>BOND
     1    32    31    1
     2    32    33    1
     3    33    34    1
     4    34    35   ar
     5    35    36   ar
     6    36    37   ar
     7    37    38   ar
     8    38    39    1
     9    38    40   ar
    10    40    41   ar
    11    41    42   ar
    12    42    43   ar
    13    32    30    1
    14    30    29    1
    15    29    25    1
    16    25    26    2
    17    25    27    1
    18    25    24    1
    19    24     1    1
    20     1     2    1
    21     2     3    1
    22     3     4    1
    23     4     5    1
    24     5     6    1
    25     6     7    1
    26     7     8    1
    27     8     9    1
    28     9    10    1
    29    10    11    1
    30    11    12    1
    31    12    13    1
    32    13    14    1
    33    14    15    1
    34    15    16    1
    35    16    17    1
    36    17    18    1
    37    18    19    1
    38    19    20    1
    39    20    21    1
    40    20    22    1
    41    20    23    1
    42    43    34   ar
    43    43    37   ar
    44    39    44    1
    45    39    45    1
    46    27    28    1
@<TRIPOS>MOLECULE
*****
 45 46 0 0 0
SMALL
GASTEIGER

@<TRIPOS>ATOM
      1 C           6.9155   -4.3231   28.7265 C.3     1  UNL1        0.1514
      2 C           7.4084   -3.5507   27.5389 C.3     1  UNL1        0.0326
      3 C           6.5642   -3.4563   26.3027 C.3     1  UNL1        0.0026
      4 C           7.1269   -2.8420   25.0553 C.3     1  UNL1        0.0001
      5 C           7.3868   -3.6961   23.8500 C.3     1  UNL1        0.0000
      6 C           6.5976   -3.4795   22.5929 C.3     1  UNL1        0.0000
      7 C           5.1485   -3.8637   22.5414 C.3     1  UNL1        0.0000
      8 C           4.1060   -2.8224   22.2605 C.3     1  UNL1        0.0000
      9 C           4.2655   -1.4348   22.8072 C.3     1  UNL1        0.0000
     10 C           3.9438   -0.2484   21.9476 C.3     1  UNL1        0.0000
     11 C           2.5150    0.0903   21.6412 C.3     1  UNL1        0.0000
     12 C           1.7737   -0.6720   20.5833 C.3     1  UNL1        0.0000
     13 C           1.7420   -0.1607   19.1735 C.3     1  UNL1        0.0000
     14 C           2.9667    0.4653   18.5750 C.3     1  UNL1        0.0000
     15 C           3.7338   -0.2583   17.5082 C.3     1  UNL1        0.0000
     16 C           5.1692   -0.6287   17.7371 C.3     1  UNL1        0.0000
     17 C           5.5668   -1.3508   18.9902 C.3     1  UNL1        0.0003
     18 C           5.7302   -2.8418   18.9770 C.3     1  UNL1        0.0088
     19 C           4.7080   -3.7023   18.2952 C.3     1  UNL1        0.1033
     20 C           3.8959   -4.6781   19.0941 C.3     1  UNL1        0.3978
     21 F           3.0839   -5.6540   19.8931 F       1  UNL1       -0.1700
     22 F           2.8750   -3.6116   19.3591 F       1  UNL1       -0.1700
     23 F           4.9169   -5.7447   18.8291 F       1  UNL1       -0.1700
     24 O           7.5454   -4.1135   30.0716 O.3     1  UNL1       -0.2926
     25 P           7.0003   -4.8253   31.2742 P.3     1  UNL1        0.3697
     26 O           6.8951   -6.0916   30.4771 O.2     1  UNL1       -0.2553
     27 O           6.4552   -5.5370   32.4768 O.3     1  UNL1       -0.3218
     28 H           6.2736   -6.4625   32.2500 H       1  UNL1        0.2198
     29 C           7.1055   -3.5590   32.0713 C.3     1  UNL1        0.2579
     30 O           5.8632   -2.8235   32.4784 O.3     1  UNL1       -0.3426
     31 C           6.2513   -1.0160   30.6530 C.3     1  UNL1        0.0342
     32 C           5.3418   -1.7037   31.6276 C.3     1  UNL1        0.1387
     33 C           3.9107   -1.2714   31.7513 C.3     1  UNL1        0.1384
     34 N           3.5568   -0.0812   32.5929 N.ar    1  UNL1       -0.2918
     35 C           4.1844    0.2896   33.9039 C.ar    1  UNL1        0.1798
     36 N           3.5287    1.5471   34.3924 N.ar    1  UNL1       -0.2195
     37 C           2.4959    1.9535   33.3834 C.ar    1  UNL1        0.1481
     38 C           1.5418    3.1099   33.3337 C.ar    1  UNL1        0.1480
     39 N           1.5244    4.1163   34.4459 N.pl3   1  UNL1       -0.3413
     40 N           0.6052    3.2599   32.1718 N.ar    1  UNL1       -0.2078
     41 C           0.6226    2.2536   31.0596 C.ar    1  UNL1        0.2015
     42 N           1.5766    1.0972   31.1093 N.ar    1  UNL1       -0.2048
     43 C           2.5132    0.9472   32.2712 C.ar    1  UNL1        0.1674
     44 H           2.1392    4.0178   35.2085 H       1  UNL1        0.1438
     45 H           0.8983    4.8752   34.4132 H       1  UNL1        0.1438
@<TRIPOS>BOND
     1    32    31    1
     2    32    33    1
     3    33    34    1
     4    34    35   ar
     5    35    36   ar
     6    36    37   ar
     7    37    38   ar
     8    38    39    1
     9    38    40   ar
    10    40    41   ar
    11    41    42   ar
    12    42    43   ar
    13    32    30    1
    14    30    29    1
    15    29    25    1
    16    25    26    2
    17    25    27    1
    18    25    24    1
    19    24     1    1
    20     1     2    1
    21     2     3    1
    22     3     4    1
    23     4     5    1
    24     5     6    1
    25     6     7    1
    26     7     8    1
    27     8     9    1
    28     9    10    1
    29    10    11    1
    30    11    12    1
    31    12    13    1
    32    13    14    1
    33    14    15    1
    34    15    16    1
    35    16    17    1
    36    17    18    1
    37    18    19    1
    38    19    20    1
    39    20    21    1
    40    20    22    1
    41    20    23    1
    42    43    34   ar
    43    43    37   ar
    44    39    44    1
    45    39    45    1
    46    27    28    1
@<TRIPOS>MOLECULE
*****
 45 46 0 0 0
SMALL
GASTEIGER

@<TRIPOS>ATOM
      1 C           6.5155   -4.5143   28.5637 C.3     1  UNL1        0.1514
      2 C           7.0640   -4.7243   27.1835 C.3     1  UNL1        0.0326
      3 C           7.7934   -3.6126   26.4891 C.3     1  UNL1        0.0026
      4 C           7.7702   -3.5205   24.9922 C.3     1  UNL1        0.0001
      5 C           7.6027   -4.7617   24.1668 C.3     1  UNL1        0.0000
      6 C           7.0368   -4.6701   22.7807 C.3     1  UNL1        0.0000
      7 C           6.4433   -3.3802   22.2966 C.3     1  UNL1        0.0000
      8 C           4.9763   -3.1186   22.4682 C.3     1  UNL1        0.0000
      9 C           4.5100   -2.0585   23.4214 C.3     1  UNL1        0.0000
     10 C           3.4352   -1.0976   23.0071 C.3     1  UNL1        0.0000
     11 C           2.7973   -1.2230   21.6554 C.3     1  UNL1        0.0000
     12 C           2.9984   -0.1483   20.6285 C.3     1  UNL1        0.0000
     13 C           2.1186   -0.0965   19.4148 C.3     1  UNL1        0.0000
     14 C           2.6680    0.4015   18.1109 C.3     1  UNL1        0.0000
     15 C           3.5492   -0.4844   17.2810 C.3     1  UNL1        0.0000
     16 C           5.0362   -0.2886   17.2954 C.3     1  UNL1        0.0000
     17 C           5.9256   -1.3413   17.8876 C.3     1  UNL1        0.0003
     18 C           5.3647   -2.3379   18.8582 C.3     1  UNL1        0.0088
     19 C           5.1286   -3.7548   18.4260 C.3     1  UNL1        0.1033
     20 C           4.0022   -4.5438   19.0249 C.3     1  UNL1        0.3978
     21 F           2.8758   -5.3328   19.6238 F       1  UNL1       -0.1700
     22 F           3.2243   -3.2777   19.2298 F       1  UNL1       -0.1700
     23 F           4.7802   -5.8099   18.8200 F       1  UNL1       -0.1700
     24 O           7.4441   -4.4684   29.7409 O.3     1  UNL1       -0.2926
     25 P           7.0700   -5.1593   31.0186 P.3     1  UNL1        0.3697
     26 O           7.3829   -6.4861   30.3928 O.2     1  UNL1       -0.2553
     27 O           6.6960   -5.8501   32.2964 O.3     1  UNL1       -0.3218
     28 H           6.8061   -6.8080   32.1903 H       1  UNL1        0.2198
     29 C           6.7571   -3.8324   31.6445 C.3     1  UNL1        0.2579
     30 O           7.8711   -2.9199   32.0644 O.3     1  UNL1       -0.3426
     31 C           7.4519   -0.8140   33.5271 C.3     1  UNL1        0.0342
     32 C           7.6293   -1.4439   32.1774 C.3     1  UNL1        0.1387
     33 C           7.5649   -0.5975   30.9405 C.3     1  UNL1        0.1384
     34 N           6.3614   -0.6647   30.0476 N.ar    1  UNL1       -0.2918
     35 C           6.3643   -1.0140   28.5889 C.ar    1  UNL1        0.1798
     36 N           4.9484   -0.9596   28.0965 N.ar    1  UNL1       -0.2195
     37 C           4.0706   -0.5766   29.2509 C.ar    1  UNL1        0.1481
     38 C           2.5889   -0.3702   29.3599 C.ar    1  UNL1        0.1480
     39 N           1.7156   -0.5525   28.1540 N.pl3   1  UNL1       -0.3413
     40 N           1.9804    0.0183   30.6747 N.ar    1  UNL1       -0.2078
     41 C           2.8537    0.2006   31.8806 C.ar    1  UNL1        0.2015
     42 N           4.3354   -0.0058   31.7716 N.ar    1  UNL1       -0.2048
     43 C           4.9439   -0.3943   30.4568 C.ar    1  UNL1        0.1674
     44 H           2.1149   -0.8075   27.2910 H       1  UNL1        0.1438
     45 H           0.7430   -0.4170   28.2255 H       1  UNL1        0.1438
@<TRIPOS>BOND
     1    32    31    1
     2    32    33    1
     3    33    34    1
     4    34    35   ar
     5    35    36   ar
     6    36    37   ar
     7    37    38   ar
     8    38    39    1
     9    38    40   ar
    10    40    41   ar
    11    41    42   ar
    12    42    43   ar
    13    32    30    1
    14    30    29    1
    15    29    25    1
    16    25    26    2
    17    25    27    1
    18    25    24    1
    19    24     1    1
    20     1     2    1
    21     2     3    1
    22     3     4    1
    23     4     5    1
    24     5     6    1
    25     6     7    1
    26     7     8    1
    27     8     9    1
    28     9    10    1
    29    10    11    1
    30    11    12    1
    31    12    13    1
    32    13    14    1
    33    14    15    1
    34    15    16    1
    35    16    17    1
    36    17    18    1
    37    18    19    1
    38    19    20    1
    39    20    21    1
    40    20    22    1
    41    20    23    1
    42    43    34   ar
    43    43    37   ar
    44    39    44    1
    45    39    45    1
    46    27    28    1
@<TRIPOS>MOLECULE
*****
 45 46 0 0 0
SMALL
GASTEIGER

@<TRIPOS>ATOM
      1 C           7.7158   -4.3450   25.6118 C.3     1  UNL1        0.1514
      2 C           7.5246   -4.1511   24.1368 C.3     1  UNL1        0.0326
      3 C           6.1950   -3.7047   23.6051 C.3     1  UNL1        0.0026
      4 C           5.8578   -3.9120   22.1583 C.3     1  UNL1        0.0001
      5 C           6.9436   -3.8847   21.1238 C.3     1  UNL1        0.0000
      6 C           7.3645   -2.5812   20.5123 C.3     1  UNL1        0.0000
      7 C           8.1209   -1.5779   21.3317 C.3     1  UNL1        0.0000
      8 C           7.4943   -0.2565   21.6652 C.3     1  UNL1        0.0000
      9 C           6.2795   -0.2028   22.5435 C.3     1  UNL1        0.0000
     10 C           4.9110   -0.1749   21.9300 C.3     1  UNL1        0.0000
     11 C           3.7999   -0.9781   22.5384 C.3     1  UNL1        0.0000
     12 C           2.4984   -0.3170   22.8833 C.3     1  UNL1        0.0000
     13 C           1.8836    0.6692   21.9349 C.3     1  UNL1        0.0000
     14 C           0.8623    0.2125   20.9358 C.3     1  UNL1        0.0000
     15 C           1.2938   -0.2153   19.5643 C.3     1  UNL1        0.0000
     16 C           2.6266    0.2167   19.0287 C.3     1  UNL1        0.0000
     17 C           3.4283   -0.7165   18.1706 C.3     1  UNL1        0.0003
     18 C           4.2264   -1.8180   18.8029 C.3     1  UNL1        0.0088
     19 C           3.5535   -3.0978   19.2021 C.3     1  UNL1        0.1033
     20 C           4.1847   -4.4151   18.8610 C.3     1  UNL1        0.3978
     21 F           4.8159   -5.7324   18.5200 F       1  UNL1       -0.1700
     22 F           5.2542   -3.7024   18.0876 F       1  UNL1       -0.1700
     23 F           3.1151   -5.1278   19.6345 F       1  UNL1       -0.1700
     24 O           6.6166   -4.9439   26.4383 O.3     1  UNL1       -0.2926
     25 P           6.9506   -5.7835   27.6355 P.3     1  UNL1        0.3697
     26 O           7.2978   -6.9310   26.7340 O.2     1  UNL1       -0.2553
     27 O           7.2847   -6.6231   28.8328 O.3     1  UNL1       -0.3218
     28 H           7.5684   -7.5037   28.5412 H       1  UNL1        0.2198
     29 C           6.6035   -4.6360   28.5371 C.3     1  UNL1        0.2579
     30 O           7.5216   -4.2623   29.6628 O.3     1  UNL1       -0.3426
     31 C           6.7148   -4.0527   32.1235 C.3     1  UNL1        0.0342
     32 C           7.0145   -3.4210   30.7964 C.3     1  UNL1        0.1387
     33 C           6.8071   -1.9480   30.6030 C.3     1  UNL1        0.1384
     34 N           5.4566   -1.4258   30.2112 N.ar    1  UNL1       -0.2918
     35 C           4.3614   -1.0196   31.1522 C.ar    1  UNL1        0.1798
     36 N           3.1922   -0.5609   30.3321 N.ar    1  UNL1       -0.2195
     37 C           3.5648   -0.6836   28.8843 C.ar    1  UNL1        0.1481
     38 C           2.8106   -0.3776   27.6244 C.ar    1  UNL1        0.1480
     39 N           1.4111    0.1569   27.6991 N.pl3   1  UNL1       -0.3413
     40 N           3.4559   -0.6062   26.2897 N.ar    1  UNL1       -0.2078
     41 C           4.8554   -1.1408   26.2150 C.ar    1  UNL1        0.2015
     42 N           5.6096   -1.4467   27.4749 N.ar    1  UNL1       -0.2048
     43 C           4.9644   -1.2181   28.8096 C.ar    1  UNL1        0.1674
     44 H           0.9875    0.3070   28.5751 H       1  UNL1        0.1438
     45 H           0.9160    0.3577   26.8721 H       1  UNL1        0.1438
@<TRIPOS>BOND
     1    32    31    1
     2    32    33    1
     3    33    34    1
     4    34    35   ar
     5    35    36   ar
     6    36    37   ar
     7    37    38   ar
     8    38    39    1
     9    38    40   ar
    10    40    41   ar
    11    41    42   ar
    12    42    43   ar
    13    32    30    1
    14    30    29    1
    15    29    25    1
    16    25    26    2
    17    25    27    1
    18    25    24    1
    19    24     1    1
    20     1     2    1
    21     2     3    1
    22     3     4    1
    23     4     5    1
    24     5     6    1
    25     6     7    1
    26     7     8    1
    27     8     9    1
    28     9    10    1
    29    10    11    1
    30    11    12    1
    31    12    13    1
    32    13    14    1
    33    14    15    1
    34    15    16    1
    35    16    17    1
    36    17    18    1
    37    18    19    1
    38    19    20    1
    39    20    21    1
    40    20    22    1
    41    20    23    1
    42    43    34   ar
    43    43    37   ar
    44    39    44    1
    45    39    45    1
    46    27    28    1
@<TRIPOS>MOLECULE
*****
 45 46 0 0 0
SMALL
GASTEIGER

@<TRIPOS>ATOM
      1 C           2.4987   -0.1514   28.0968 C.3     1  UNL1        0.1514
      2 C           3.7068    0.1833   27.2732 C.3     1  UNL1        0.0326
      3 C           3.5471    0.8935   25.9617 C.3     1  UNL1        0.0026
      4 C           3.9287    0.2053   24.6847 C.3     1  UNL1        0.0001
      5 C           3.9538   -1.2930   24.6187 C.3     1  UNL1        0.0000
      6 C           4.1734   -1.9824   23.3048 C.3     1  UNL1        0.0000
      7 C           4.0646   -1.2084   22.0243 C.3     1  UNL1        0.0000
      8 C           2.7711   -1.1927   21.2651 C.3     1  UNL1        0.0000
      9 C           1.7380   -0.1474   21.5650 C.3     1  UNL1        0.0000
     10 C           0.5540    0.0187   20.6591 C.3     1  UNL1        0.0000
     11 C           0.6168    0.9833   19.5121 C.3     1  UNL1        0.0000
     12 C           1.2943    0.5859   18.2342 C.3     1  UNL1        0.0000
     13 C           2.7876    0.6692   18.1197 C.3     1  UNL1        0.0000
     14 C           3.5772   -0.5395   17.7131 C.3     1  UNL1        0.0000
     15 C           5.0642   -0.4413   17.5422 C.3     1  UNL1        0.0000
     16 C           5.9439   -0.2247   18.7377 C.3     1  UNL1        0.0000
     17 C           6.6377   -1.3896   19.3793 C.3     1  UNL1        0.0003
     18 C           6.2960   -2.7891   18.9614 C.3     1  UNL1        0.0088
     19 C           5.5109   -3.6761   19.8818 C.3     1  UNL1        0.1033
     20 C           4.1607   -4.1805   19.4663 C.3     1  UNL1        0.3978
     21 F           2.8105   -4.6849   19.0509 F       1  UNL1       -0.1700
     22 F           3.9111   -4.6637   20.8642 F       1  UNL1       -0.1700
     23 F           4.4104   -3.6973   18.0683 F       1  UNL1       -0.1700
     24 O           1.4082    0.8629   28.2755 O.3     1  UNL1       -0.2926
     25 P           0.1375    0.4826   28.9759 P.3     1  UNL1        0.3697
     26 O           0.9111    0.2107   30.2319 O.2     1  UNL1       -0.2553
     27 O          -1.1333    0.1023   29.6762 O.3     1  UNL1       -0.3218
     28 H          -0.9355   -0.1455   30.5930 H       1  UNL1        0.2198
     29 C          -0.6362    0.7545   27.7199 C.3     1  UNL1        0.2579
     30 O          -0.5510    2.1003   27.0630 O.3     1  UNL1       -0.3426
     31 C           0.1617    1.0165   24.8119 C.3     1  UNL1        0.0342
     32 C          -0.3482    2.1996   25.5801 C.3     1  UNL1        0.1387
     33 C          -0.6554    3.4822   24.8653 C.3     1  UNL1        0.1384
     34 N          -1.8261    3.5581   23.9306 N.ar    1  UNL1       -0.2918
     35 C          -1.7798    3.3739   22.4427 C.ar    1  UNL1        0.1798
     36 N          -3.1738    3.5335   21.9123 N.ar    1  UNL1       -0.2195
     37 C          -4.0816    3.8164   23.0724 C.ar    1  UNL1        0.1481
     38 C          -5.5591    4.0621   23.1540 C.ar    1  UNL1        0.1480
     39 N          -6.3920    4.0468   21.9066 N.pl3   1  UNL1       -0.3413
     40 N          -6.2036    4.3230   24.4831 N.ar    1  UNL1       -0.2078
     41 C          -5.3707    4.3382   25.7305 C.ar    1  UNL1        0.2015
     42 N          -3.8933    4.0925   25.6489 N.ar    1  UNL1       -0.2048
     43 C          -3.2487    3.8316   24.3198 C.ar    1  UNL1        0.1674
     44 H          -5.9689    3.8756   21.0343 H       1  UNL1        0.1438
     45 H          -7.3617    4.2081   21.9602 H       1  UNL1        0.1438
@<TRIPOS>BOND
     1    32    31    1
     2    32    33    1
     3    33    34    1
     4    34    35   ar
     5    35    36   ar
     6    36    37   ar
     7    37    38   ar
     8    38    39    1
     9    38    40   ar
    10    40    41   ar
    11    41    42   ar
    12    42    43   ar
    13    32    30    1
    14    30    29    1
    15    29    25    1
    16    25    26    2
    17    25    27    1
    18    25    24    1
    19    24     1    1
    20     1     2    1
    21     2     3    1
    22     3     4    1
    23     4     5    1
    24     5     6    1
    25     6     7    1
    26     7     8    1
    27     8     9    1
    28     9    10    1
    29    10    11    1
    30    11    12    1
    31    12    13    1
    32    13    14    1
    33    14    15    1
    34    15    16    1
    35    16    17    1
    36    17    18    1
    37    18    19    1
    38    19    20    1
    39    20    21    1
    40    20    22    1
    41    20    23    1
    42    43    34   ar
    43    43    37   ar
    44    39    44    1
    45    39    45    1
    46    27    28    1
@<TRIPOS>MOLECULE
*****
 45 46 0 0 0
SMALL
GASTEIGER

@<TRIPOS>ATOM
      1 C           6.5480   -4.3368   28.5834 C.3     1  UNL1        0.1514
      2 C           6.4836   -5.4075   27.5349 C.3     1  UNL1        0.0326
      3 C           6.8841   -5.0993   26.1226 C.3     1  UNL1        0.0026
      4 C           8.1397   -4.3249   25.8512 C.3     1  UNL1        0.0001
      5 C           8.0723   -2.8448   25.6172 C.3     1  UNL1        0.0000
      6 C           7.3496   -2.3072   24.4177 C.3     1  UNL1        0.0000
      7 C           5.9731   -1.7304   24.5677 C.3     1  UNL1        0.0000
      8 C           4.8010   -2.4095   23.9234 C.3     1  UNL1        0.0000
      9 C           5.0182   -3.5991   23.0359 C.3     1  UNL1        0.0000
     10 C           5.1802   -3.4115   21.5566 C.3     1  UNL1        0.0000
     11 C           4.2643   -4.1234   20.6056 C.3     1  UNL1        0.0000
     12 C           4.6695   -4.3124   19.1738 C.3     1  UNL1        0.0000
     13 C           4.6180   -3.1553   18.2207 C.3     1  UNL1        0.0000
     14 C           5.3379   -1.8809   18.5487 C.3     1  UNL1        0.0000
     15 C           4.9957   -0.6167   17.8174 C.3     1  UNL1        0.0000
     16 C           3.5655   -0.3018   17.4926 C.3     1  UNL1        0.0000
     17 C           2.8596    0.8083   18.2131 C.3     1  UNL1        0.0003
     18 C           1.3917    0.7007   18.5024 C.3     1  UNL1        0.0088
     19 C           0.9145   -0.1187   19.6648 C.3     1  UNL1        0.1033
     20 C           1.8818   -0.5461   20.7286 C.3     1  UNL1        0.3978
     21 F           2.8491   -0.9734   21.7924 F       1  UNL1       -0.1700
     22 F           2.1073   -1.8398   20.0037 F       1  UNL1       -0.1700
     23 F           1.6562    0.7477   21.4534 F       1  UNL1       -0.1700
     24 O           7.4805   -4.4836   29.7490 O.3     1  UNL1       -0.2926
     25 P           6.9311   -4.7307   31.1227 P.3     1  UNL1        0.3697
     26 O           7.2525   -6.1897   30.9888 O.2     1  UNL1       -0.2553
     27 O           6.3817   -4.9778   32.4964 O.3     1  UNL1       -0.3218
     28 H           6.4592   -5.9206   32.7109 H       1  UNL1        0.2198
     29 C           6.6097   -3.2717   31.2567 C.3     1  UNL1        0.2579
     30 O           5.4399   -2.8345   32.0875 O.3     1  UNL1       -0.3426
     31 C           5.2080   -0.9631   33.8747 C.3     1  UNL1        0.0342
     32 C           5.2676   -1.3859   32.4368 C.3     1  UNL1        0.1387
     33 C           5.1548   -0.3602   31.3480 C.3     1  UNL1        0.1384
     34 N           4.0589   -0.4653   30.3292 N.ar    1  UNL1       -0.2918
     35 C           4.1222   -1.2333   29.0423 C.ar    1  UNL1        0.1798
     36 N           2.8097   -1.0634   28.3362 N.ar    1  UNL1       -0.2195
     37 C           1.9353   -0.1904   29.1867 C.ar    1  UNL1        0.1481
     38 C           0.5359    0.3156   28.9986 C.ar    1  UNL1        0.1480
     39 N          -0.2362   -0.0541   27.7669 N.pl3   1  UNL1       -0.3413
     40 N          -0.0915    1.1913   30.0424 N.ar    1  UNL1       -0.2078
     41 C           0.6805    1.5610   31.2742 C.ar    1  UNL1        0.2015
     42 N           2.0800    1.0550   31.4622 N.ar    1  UNL1       -0.2048
     43 C           2.7074    0.1793   30.4185 C.ar    1  UNL1        0.1674
     44 H           0.1756   -0.6288   27.0818 H       1  UNL1        0.1438
     45 H          -1.1547    0.2781   27.6435 H       1  UNL1        0.1438
@<TRIPOS>BOND
     1    32    31    1
     2    32    33    1
     3    33    34    1
     4    34    35   ar
     5    35    36   ar
     6    36    37   ar
     7    37    38   ar
     8    38    39    1
     9    38    40   ar
    10    40    41   ar
    11    41    42   ar
    12    42    43   ar
    13    32    30    1
    14    30    29    1
    15    29    25    1
    16    25    26    2
    17    25    27    1
    18    25    24    1
    19    24     1    1
    20     1     2    1
    21     2     3    1
    22     3     4    1
    23     4     5    1
    24     5     6    1
    25     6     7    1
    26     7     8    1
    27     8     9    1
    28     9    10    1
    29    10    11    1
    30    11    12    1
    31    12    13    1
    32    13    14    1
    33    14    15    1
    34    15    16    1
    35    16    17    1
    36    17    18    1
    37    18    19    1
    38    19    20    1
    39    20    21    1
    40    20    22    1
    41    20    23    1
    42    43    34   ar
    43    43    37   ar
    44    39    44    1
    45    39    45    1
    46    27    28    1
@<TRIPOS>MOLECULE
*****
 45 46 0 0 0
SMALL
GASTEIGER

@<TRIPOS>ATOM
      1 C           3.4417   -0.0486   27.9564 C.3     1  UNL1        0.1514
      2 C           2.9253    0.0952   26.5554 C.3     1  UNL1        0.0326
      3 C           3.8497   -0.1052   25.3912 C.3     1  UNL1        0.0026
      4 C           4.0511   -1.4779   24.8212 C.3     1  UNL1        0.0001
      5 C           4.7884   -1.6517   23.5265 C.3     1  UNL1        0.0000
      6 C           4.0267   -1.8746   22.2537 C.3     1  UNL1        0.0000
      7 C           2.8152   -1.0440   21.9493 C.3     1  UNL1        0.0000
      8 C           2.9366    0.4470   21.8389 C.3     1  UNL1        0.0000
      9 C           2.3649    1.1600   20.6495 C.3     1  UNL1        0.0000
     10 C           1.8647    0.3749   19.4733 C.3     1  UNL1        0.0000
     11 C           2.4609    0.5971   18.1150 C.3     1  UNL1        0.0000
     12 C           3.4373   -0.3934   17.5534 C.3     1  UNL1        0.0000
     13 C           4.8583    0.0149   17.3005 C.3     1  UNL1        0.0000
     14 C           5.6017    0.8184   18.3260 C.3     1  UNL1        0.0000
     15 C           5.8240    0.2590   19.7000 C.3     1  UNL1        0.0000
     16 C           7.0110   -0.6175   19.9698 C.3     1  UNL1        0.0000
     17 C           7.1319   -1.9476   19.2871 C.3     1  UNL1        0.0003
     18 C           6.1512   -3.0403   19.5942 C.3     1  UNL1        0.0088
     19 C           5.2047   -3.5186   18.5334 C.3     1  UNL1        0.1033
     20 C           4.0011   -4.3296   18.9124 C.3     1  UNL1        0.3978
     21 F           2.7976   -5.1406   19.2915 F       1  UNL1       -0.1700
     22 F           4.6758   -5.5688   18.4035 F       1  UNL1       -0.1700
     23 F           3.3264   -3.0903   19.4215 F       1  UNL1       -0.1700
     24 O           2.7307   -0.9412   28.9299 O.3     1  UNL1       -0.2926
     25 P           2.4620   -0.4644   30.3265 P.3     1  UNL1        0.3697
     26 O           1.0441   -0.1545   29.9479 O.2     1  UNL1       -0.2553
     27 O           2.1934    0.0123   31.7231 O.3     1  UNL1       -0.3218
     28 H           1.2709    0.3040   31.7933 H       1  UNL1        0.2198
     29 C           3.8800   -0.7743   30.7051 C.3     1  UNL1        0.2579
     30 O           4.4854   -0.1448   31.9245 O.3     1  UNL1       -0.3426
     31 C           5.3013   -1.1426   34.1803 C.3     1  UNL1        0.0342
     32 C           5.5185   -0.8884   32.7181 C.3     1  UNL1        0.1387
     33 C           6.7689   -1.3780   32.0493 C.3     1  UNL1        0.1384
     34 N           6.7727   -2.7010   31.3426 N.ar    1  UNL1       -0.2918
     35 C           6.8475   -4.0493   31.9957 C.ar    1  UNL1        0.1798
     36 N           6.8234   -5.0896   30.9154 N.ar    1  UNL1       -0.2195
     37 C           6.7336   -4.3843   29.5946 C.ar    1  UNL1        0.1481
     38 C           6.6764   -4.8956   28.1856 C.ar    1  UNL1        0.1480
     39 N           6.7078   -6.3719   27.9216 N.pl3   1  UNL1       -0.3413
     40 N           6.5878   -3.9307   27.0407 N.ar    1  UNL1       -0.2078
     41 C           6.5565   -2.4545   27.3047 C.ar    1  UNL1        0.2015
     42 N           6.6137   -1.9431   28.7136 N.ar    1  UNL1       -0.2048
     43 C           6.7023   -2.9081   29.8586 C.ar    1  UNL1        0.1674
     44 H           6.7659   -7.0052   28.6731 H       1  UNL1        0.1438
     45 H           6.6702   -6.7075   26.9968 H       1  UNL1        0.1438
@<TRIPOS>BOND
     1    32    31    1
     2    32    33    1
     3    33    34    1
     4    34    35   ar
     5    35    36   ar
     6    36    37   ar
     7    37    38   ar
     8    38    39    1
     9    38    40   ar
    10    40    41   ar
    11    41    42   ar
    12    42    43   ar
    13    32    30    1
    14    30    29    1
    15    29    25    1
    16    25    26    2
    17    25    27    1
    18    25    24    1
    19    24     1    1
    20     1     2    1
    21     2     3    1
    22     3     4    1
    23     4     5    1
    24     5     6    1
    25     6     7    1
    26     7     8    1
    27     8     9    1
    28     9    10    1
    29    10    11    1
    30    11    12    1
    31    12    13    1
    32    13    14    1
    33    14    15    1
    34    15    16    1
    35    16    17    1
    36    17    18    1
    37    18    19    1
    38    19    20    1
    39    20    21    1
    40    20    22    1
    41    20    23    1
    42    43    34   ar
    43    43    37   ar
    44    39    44    1
    45    39    45    1
    46    27    28    1
@<TRIPOS>MOLECULE
*****
 45 46 0 0 0
SMALL
GASTEIGER

@<TRIPOS>ATOM
      1 C           6.6132   -4.4605   28.5718 C.3     1  UNL1        0.1514
      2 C           7.3171   -4.2562   27.2631 C.3     1  UNL1        0.0326
      3 C           6.8855   -5.0271   26.0509 C.3     1  UNL1        0.0026
      4 C           7.2169   -4.5165   24.6800 C.3     1  UNL1        0.0001
      5 C           6.1684   -3.8177   23.8662 C.3     1  UNL1        0.0000
      6 C           6.2906   -3.7644   22.3722 C.3     1  UNL1        0.0000
      7 C           7.5390   -4.2589   21.7036 C.3     1  UNL1        0.0000
      8 C           8.0844   -3.5385   20.5063 C.3     1  UNL1        0.0000
      9 C           7.3551   -2.3526   19.9480 C.3     1  UNL1        0.0000
     10 C           6.9796   -2.3182   18.4962 C.3     1  UNL1        0.0000
     11 C           5.5878   -2.6833   18.0726 C.3     1  UNL1        0.0000
     12 C           4.9027   -3.8671   18.6883 C.3     1  UNL1        0.0000
     13 C           3.8159   -3.6616   19.7015 C.3     1  UNL1        0.0000
     14 C           3.2019   -2.3044   19.8780 C.3     1  UNL1        0.0000
     15 C           3.4495   -1.5271   21.1367 C.3     1  UNL1        0.0000
     16 C           4.6244   -0.5989   21.2260 C.3     1  UNL1        0.0000
     17 C           5.3653   -0.4493   22.5217 C.3     1  UNL1        0.0003
     18 C           6.2850    0.7173   22.7294 C.3     1  UNL1        0.0088
     19 C           7.5489    0.5447   23.5186 C.3     1  UNL1        0.1033
     20 C           8.3939   -0.6791   23.3233 C.3     1  UNL1        0.3978
     21 F           9.2389   -1.9030   23.1279 F       1  UNL1       -0.1700
     22 F           8.7776   -0.1960   21.9560 F       1  UNL1       -0.1700
     23 F           8.0101   -1.1623   24.6905 F       1  UNL1       -0.1700
     24 O           7.3279   -4.1780   29.8600 O.3     1  UNL1       -0.2926
     25 P           6.9568   -4.9294   31.1040 P.3     1  UNL1        0.3697
     26 O           7.1453   -6.2274   30.3763 O.2     1  UNL1       -0.2553
     27 O           6.5857   -5.6808   32.3481 O.3     1  UNL1       -0.3218
     28 H           6.6206   -6.6341   32.1725 H       1  UNL1        0.2198
     29 C           6.7682   -3.6314   31.8317 C.3     1  UNL1        0.2579
     30 O           5.8717   -2.5739   31.2593 O.3     1  UNL1       -0.3426
     31 C           4.4616   -2.5363   33.4410 C.3     1  UNL1        0.0342
     32 C           4.8328   -1.9229   32.1235 C.3     1  UNL1        0.1387
     33 C           4.1653   -0.6583   31.6703 C.3     1  UNL1        0.1384
     34 N           3.5424   -0.5858   30.3076 N.ar    1  UNL1       -0.2918
     35 C           2.0725   -0.5510   30.0108 C.ar    1  UNL1        0.1798
     36 N           1.9018   -0.4791   28.5223 N.ar    1  UNL1       -0.2195
     37 C           3.2662   -0.4696   27.8992 C.ar    1  UNL1        0.1481
     38 C           3.7163   -0.4093   26.4696 C.ar    1  UNL1        0.1480
     39 N           2.7024   -0.3434   25.3662 N.pl3   1  UNL1       -0.3413
     40 N           5.1804   -0.4150   26.1434 N.ar    1  UNL1       -0.2078
     41 C           6.1944   -0.4810   27.2468 C.ar    1  UNL1        0.2015
     42 N           5.7443   -0.5412   28.6764 N.ar    1  UNL1       -0.2048
     43 C           4.2802   -0.5355   29.0026 C.ar    1  UNL1        0.1674
     44 H           1.7414   -0.3396   25.5803 H       1  UNL1        0.1438
     45 H           2.9978   -0.3038   24.4279 H       1  UNL1        0.1438
@<TRIPOS>BOND
     1    32    31    1
     2    32    33    1
     3    33    34    1
     4    34    35   ar
     5    35    36   ar
     6    36    37   ar
     7    37    38   ar
     8    38    39    1
     9    38    40   ar
    10    40    41   ar
    11    41    42   ar
    12    42    43   ar
    13    32    30    1
    14    30    29    1
    15    29    25    1
    16    25    26    2
    17    25    27    1
    18    25    24    1
    19    24     1    1
    20     1     2    1
    21     2     3    1
    22     3     4    1
    23     4     5    1
    24     5     6    1
    25     6     7    1
    26     7     8    1
    27     8     9    1
    28     9    10    1
    29    10    11    1
    30    11    12    1
    31    12    13    1
    32    13    14    1
    33    14    15    1
    34    15    16    1
    35    16    17    1
    36    17    18    1
    37    18    19    1
    38    19    20    1
    39    20    21    1
    40    20    22    1
    41    20    23    1
    42    43    34   ar
    43    43    37   ar
    44    39    44    1
    45    39    45    1
    46    27    28    1
@<TRIPOS>MOLECULE
*****
 45 46 0 0 0
SMALL
GASTEIGER

@<TRIPOS>ATOM
      1 C         -10.5708   -2.6653   18.6358 C.3     1  UNL1        0.1514
      2 C         -11.7121   -1.7467   18.9579 C.3     1  UNL1        0.0326
      3 C         -12.9878   -2.3032   19.5171 C.3     1  UNL1        0.0026
      4 C         -14.2947   -1.6310   19.2164 C.3     1  UNL1        0.0001
      5 C         -14.3875   -0.6397   18.0946 C.3     1  UNL1        0.0000
      6 C         -14.2784    0.8288   18.3803 C.3     1  UNL1        0.0000
      7 C         -15.2815    1.7821   17.8012 C.3     1  UNL1        0.0000
      8 C         -16.1005    1.3777   16.6114 C.3     1  UNL1        0.0000
      9 C         -17.5981    1.3798   16.6961 C.3     1  UNL1        0.0000
     10 C         -18.2769    1.0278   17.9865 C.3     1  UNL1        0.0000
     11 C         -18.1611   -0.3615   18.5402 C.3     1  UNL1        0.0000
     12 C         -17.9202   -0.5668   20.0064 C.3     1  UNL1        0.0000
     13 C         -16.9207    0.2867   20.7291 C.3     1  UNL1        0.0000
     14 C         -17.3737    1.5136   21.4635 C.3     1  UNL1        0.0000
     15 C         -16.8780    2.8653   21.0429 C.3     1  UNL1        0.0000
     16 C         -16.3524    3.8243   22.0697 C.3     1  UNL1        0.0000
     17 C         -16.6715    3.6187   23.5208 C.3     1  UNL1        0.0003
     18 C         -16.3602    4.6959   24.5172 C.3     1  UNL1        0.0088
     19 C         -15.1338    5.5429   24.3475 C.3     1  UNL1        0.1033
     20 C         -13.7747    4.9088   24.3756 C.3     1  UNL1        0.3978
     21 F         -12.4156    4.2748   24.4037 F       1  UNL1       -0.1700
     22 F         -13.4850    5.4695   23.0148 F       1  UNL1       -0.1700
     23 F         -14.0645    4.3482   25.7364 F       1  UNL1       -0.1700
     24 O         -10.8177   -3.9246   17.8593 O.3     1  UNL1       -0.2926
     25 P         -10.5364   -5.2587   18.4845 P.3     1  UNL1        0.3697
     26 O          -9.4792   -4.6325   19.3449 O.2     1  UNL1       -0.2553
     27 O         -10.2550   -6.5928   19.1098 O.3     1  UNL1       -0.3218
     28 H          -9.5498   -6.4986   19.7691 H       1  UNL1        0.2198
     29 C         -11.5936   -5.8849   17.6242 C.3     1  UNL1        0.2579
     30 O         -12.6953   -5.0406   17.0558 O.3     1  UNL1       -0.3426
     31 C         -15.2190   -4.4340   16.9405 C.3     1  UNL1        0.0342
     32 C         -14.0816   -5.1370   17.6205 C.3     1  UNL1        0.1387
     33 C         -14.3306   -5.9363   18.8652 C.3     1  UNL1        0.1384
     34 N         -14.8144   -7.3525   18.7628 N.ar    1  UNL1       -0.2918
     35 C         -14.0274   -8.5174   18.2397 C.ar    1  UNL1        0.1798
     36 N         -14.8968   -9.7372   18.3192 N.ar    1  UNL1       -0.2195
     37 C         -16.2211   -9.3261   18.8913 C.ar    1  UNL1        0.1481
     38 C         -17.4667  -10.1035   19.1980 C.ar    1  UNL1        0.1480
     39 N         -17.5176  -11.5773   18.9238 N.pl3   1  UNL1       -0.3413
     40 N         -18.6614   -9.4069   19.7789 N.ar    1  UNL1       -0.2078
     41 C         -18.6105   -7.9331   20.0530 C.ar    1  UNL1        0.2015
     42 N         -17.3649   -7.1558   19.7463 N.ar    1  UNL1       -0.2048
     43 C         -16.1702   -7.8523   19.1654 C.ar    1  UNL1        0.1674
     44 H         -16.7335  -12.0345   18.5426 H       1  UNL1        0.1438
     45 H         -18.3352  -12.0875   19.1252 H       1  UNL1        0.1438
@<TRIPOS>BOND
     1    32    31    1
     2    32    33    1
     3    33    34    1
     4    34    35   ar
     5    35    36   ar
     6    36    37   ar
     7    37    38   ar
     8    38    39    1
     9    38    40   ar
    10    40    41   ar
    11    41    42   ar
    12    42    43   ar
    13    32    30    1
    14    30    29    1
    15    29    25    1
    16    25    26    2
    17    25    27    1
    18    25    24    1
    19    24     1    1
    20     1     2    1
    21     2     3    1
    22     3     4    1
    23     4     5    1
    24     5     6    1
    25     6     7    1
    26     7     8    1
    27     8     9    1
    28     9    10    1
    29    10    11    1
    30    11    12    1
    31    12    13    1
    32    13    14    1
    33    14    15    1
    34    15    16    1
    35    16    17    1
    36    17    18    1
    37    18    19    1
    38    19    20    1
    39    20    21    1
    40    20    22    1
    41    20    23    1
    42    43    34   ar
    43    43    37   ar
    44    39    44    1
    45    39    45    1
    46    27    28    1
