@<TRIPOS>MOLECULE
*****
 31 33 0 0 0
SMALL
GASTEIGER

@<TRIPOS>ATOM
      1 C         -10.4813  -19.6539   20.7441 C.3     1  UNL1        0.1020
      2 C          -9.0180  -19.3873   20.5494 C.3     1  UNL1        0.1697
      3 O          -8.4713  -19.1768   19.1685 O.3     1  UNL1       -0.3793
      4 H          -9.1911  -19.2451   18.5219 H       1  UNL1        0.2106
      5 C          -8.1015  -19.3311   21.7355 C.3     1  UNL1        0.2358
      6 O          -6.9404  -20.2759   21.8314 O.3     1  UNL1       -0.4728
      7 C          -5.5710  -19.8258   21.4165 C.ar    1  UNL1        0.1388
      8 C          -5.0503  -20.1682   20.0521 C.ar    1  UNL1        0.0382
      9 C          -3.6809  -19.7182   19.6371 C.ar    1  UNL1        0.0215
     10 C          -2.8322  -18.9257   20.5866 C.ar    1  UNL1        0.1059
     11 C          -3.3528  -18.5833   21.9511 C.ar    1  UNL1        0.0215
     12 C          -4.7222  -19.0333   22.3660 C.ar    1  UNL1        0.0382
     13 S          -1.4627  -18.4756   20.1717 S.O2    1  UNL1        0.0105
     14 C          -0.0934  -18.0256   19.7568 C.3     1  UNL1        0.1816
     15 O          -1.0124  -18.5275   21.6016 O.2     1  UNL1       -0.1686
     16 O          -1.9130  -18.4238   18.7419 O.2     1  UNL1       -0.1686
     17 N         -11.4543  -18.5127   20.7717 N.3     1  UNL1       -0.2971
     18 H         -11.4230  -18.0766   19.8502 H       1  UNL1        0.1233
     19 C         -11.1464  -16.4166   20.6646 C.3     1  UNL1        0.0162
     20 C         -11.2909  -17.4118   21.7775 C.3     1  UNL1        0.0476
     21 C         -11.4355  -18.4071   22.8904 C.3     1  UNL1        0.0162
     22 C         -11.1275  -16.3110   22.7832 C.3     1  UNL1        0.0602
     23 C          -9.8062  -16.1062   23.4630 C.2     1  UNL1        0.0599
     24 C          -9.5846  -15.9862   24.9416 C.2     1  UNL1        0.0159
     25 C          -8.1159  -15.7913   25.1760 C.2     1  UNL1        0.0150
     26 C          -7.3147  -15.6142   26.4316 C.2     1  UNL1        0.0009
     27 C          -5.8273  -15.4366   26.3534 C.2     1  UNL1       -0.0041
     28 C          -5.1412  -15.4360   25.0195 C.2     1  UNL1       -0.0198
     29 C          -5.9424  -15.6132   23.7639 C.3     1  UNL1        0.0717
     30 C          -7.4297  -15.7908   23.8421 C.2     1  UNL1        0.0630
     31 N          -8.4744  -15.9854   22.7834 N.2     1  UNL1       -0.2536
@<TRIPOS>BOND
     1    19    20    1
     2    20    21    1
     3    20    22    1
     4    22    23    1
     5    23    24    2
     6    24    25    1
     7    25    26    2
     8    26    27    1
     9    27    28    2
    10    28    29    1
    11    29    30    1
    12    30    31    2
    13    20    17    1
    14    17     1    1
    15     1     2    1
    16     2     3    1
    17     2     5    1
    18     5     6    1
    19     6     7    1
    20     7     8   ar
    21     8     9   ar
    22     9    10   ar
    23    10    13    1
    24    13    14    1
    25    13    15    2
    26    13    16    2
    27    10    11   ar
    28    11    12   ar
    29    31    23    1
    30    12     7   ar
    31    30    25    1
    32    17    18    1
    33     3     4    1
@<TRIPOS>MOLECULE
*****
 31 33 0 0 0
SMALL
GASTEIGER

@<TRIPOS>ATOM
      1 C          -2.8302  -19.4489   20.7555 C.3     1  UNL1        0.1020
      2 C          -4.2295  -19.3558   20.2232 C.3     1  UNL1        0.1697
      3 O          -4.5859  -18.2862   19.2338 O.3     1  UNL1       -0.3793
      4 H          -3.8031  -17.7447   19.0470 H       1  UNL1        0.2106
      5 C          -5.2724  -20.3323   20.6802 C.3     1  UNL1        0.2358
      6 O          -6.5384  -20.5004   19.8936 O.3     1  UNL1       -0.4728
      7 C          -7.7435  -19.6713   20.2259 C.ar    1  UNL1        0.1388
      8 C          -7.7279  -18.7731   21.4272 C.ar    1  UNL1        0.0382
      9 C          -8.9330  -17.9441   21.7595 C.ar    1  UNL1        0.0215
     10 C         -10.1536  -18.0132   20.8905 C.ar    1  UNL1        0.1059
     11 C         -10.1693  -18.9113   19.6893 C.ar    1  UNL1        0.0215
     12 C          -8.9642  -19.7404   19.3569 C.ar    1  UNL1        0.0382
     13 S         -11.3588  -17.1841   21.2228 S.O2    1  UNL1        0.0105
     14 C         -12.5638  -16.3550   21.5552 C.3     1  UNL1        0.1816
     15 O         -11.8305  -17.3009   19.8038 O.2     1  UNL1       -0.1686
     16 O         -10.8871  -17.0673   22.6419 O.2     1  UNL1       -0.1686
     17 N          -2.4915  -18.8419   22.0847 N.3     1  UNL1       -0.2971
     18 H          -2.8491  -19.4771   22.7982 H       1  UNL1        0.1233
     19 C          -2.0399  -16.8706   21.4443 C.3     1  UNL1        0.0162
     20 C          -2.9937  -17.4721   22.4336 C.3     1  UNL1        0.0476
     21 C          -3.9474  -18.0736   23.4228 C.3     1  UNL1        0.0162
     22 C          -3.4958  -16.1024   22.7823 C.3     1  UNL1        0.0602
     23 C          -4.6739  -15.9459   23.6974 C.2     1  UNL1        0.0599
     24 C          -4.6190  -15.8113   25.1904 C.2     1  UNL1        0.0159
     25 C          -6.0250  -15.6788   25.6959 C.2     1  UNL1        0.0150
     26 C          -6.5833  -15.5169   27.0787 C.2     1  UNL1        0.0009
     27 C          -8.0656  -15.4078   27.2809 C.2     1  UNL1       -0.0041
     28 C          -8.9895  -15.4606   26.1004 C.2     1  UNL1       -0.0198
     29 C          -8.4312  -15.6224   24.7177 C.3     1  UNL1        0.0717
     30 C          -6.9489  -15.7315   24.5154 C.2     1  UNL1        0.0630
     31 N          -6.1139  -15.8966   23.2803 N.2     1  UNL1       -0.2536
@<TRIPOS>BOND
     1    19    20    1
     2    20    21    1
     3    20    22    1
     4    22    23    1
     5    23    24    2
     6    24    25    1
     7    25    26    2
     8    26    27    1
     9    27    28    2
    10    28    29    1
    11    29    30    1
    12    30    31    2
    13    20    17    1
    14    17     1    1
    15     1     2    1
    16     2     3    1
    17     2     5    1
    18     5     6    1
    19     6     7    1
    20     7     8   ar
    21     8     9   ar
    22     9    10   ar
    23    10    13    1
    24    13    14    1
    25    13    15    2
    26    13    16    2
    27    10    11   ar
    28    11    12   ar
    29    31    23    1
    30    12     7   ar
    31    30    25    1
    32    17    18    1
    33     3     4    1
@<TRIPOS>MOLECULE
*****
 31 33 0 0 0
SMALL
GASTEIGER

@<TRIPOS>ATOM
      1 C          -8.1776  -14.9997   25.0469 C.3     1  UNL1        0.1020
      2 C          -8.4608  -15.5807   26.4005 C.3     1  UNL1        0.1697
      3 O          -8.5037  -14.6885   27.6056 O.3     1  UNL1       -0.3793
      4 H          -8.3287  -13.7731   27.3365 H       1  UNL1        0.2106
      5 C          -8.7011  -17.0538   26.5491 C.3     1  UNL1        0.2358
      6 O          -9.8284  -17.7084   25.8072 O.3     1  UNL1       -0.4728
      7 C          -9.6439  -18.1248   24.3779 C.ar    1  UNL1        0.1388
      8 C         -10.0351  -17.1935   23.2690 C.ar    1  UNL1        0.0382
      9 C          -9.8506  -17.6098   21.8398 C.ar    1  UNL1        0.0215
     10 C          -9.2750  -18.9574   21.5196 C.ar    1  UNL1        0.1059
     11 C          -8.8839  -19.8887   22.6285 C.ar    1  UNL1        0.0215
     12 C          -9.0683  -19.4724   24.0577 C.ar    1  UNL1        0.0382
     13 S          -9.0906  -19.3738   20.0903 S.O2    1  UNL1        0.0105
     14 C          -8.9061  -19.7901   18.6611 C.3     1  UNL1        0.1816
     15 O         -10.4992  -19.8883   20.0583 O.2     1  UNL1       -0.1686
     16 O          -7.6820  -18.8592   20.1223 O.2     1  UNL1       -0.1686
     17 N          -6.7655  -14.6977   24.6409 N.3     1  UNL1       -0.2971
     18 H          -6.8082  -14.2938   23.7052 H       1  UNL1        0.1233
     19 C          -5.0215  -15.1787   25.7485 C.3     1  UNL1        0.0162
     20 C          -5.7475  -15.7983   24.5914 C.3     1  UNL1        0.0476
     21 C          -6.4736  -16.4179   23.4343 C.3     1  UNL1        0.0162
     22 C          -4.7296  -16.8989   24.5420 C.3     1  UNL1        0.0602
     23 C          -4.0549  -17.2389   23.2462 C.2     1  UNL1        0.0599
     24 C          -2.8080  -16.6023   22.7078 C.2     1  UNL1        0.0159
     25 C          -2.4911  -17.2451   21.3900 C.2     1  UNL1        0.0150
     26 C          -1.3812  -17.0226   20.4059 C.2     1  UNL1        0.0009
     27 C          -1.3225  -17.8340   19.1457 C.2     1  UNL1       -0.0041
     28 C          -2.3737  -18.8679   18.8696 C.2     1  UNL1       -0.0198
     29 C          -3.4835  -19.0904   19.8538 C.3     1  UNL1        0.0717
     30 C          -3.5422  -18.2790   21.1140 C.2     1  UNL1        0.0630
     31 N          -4.5087  -18.2751   22.2612 N.2     1  UNL1       -0.2536
@<TRIPOS>BOND
     1    19    20    1
     2    20    21    1
     3    20    22    1
     4    22    23    1
     5    23    24    2
     6    24    25    1
     7    25    26    2
     8    26    27    1
     9    27    28    2
    10    28    29    1
    11    29    30    1
    12    30    31    2
    13    20    17    1
    14    17     1    1
    15     1     2    1
    16     2     3    1
    17     2     5    1
    18     5     6    1
    19     6     7    1
    20     7     8   ar
    21     8     9   ar
    22     9    10   ar
    23    10    13    1
    24    13    14    1
    25    13    15    2
    26    13    16    2
    27    10    11   ar
    28    11    12   ar
    29    31    23    1
    30    12     7   ar
    31    30    25    1
    32    17    18    1
    33     3     4    1
@<TRIPOS>MOLECULE
*****
 31 33 0 0 0
SMALL
GASTEIGER

@<TRIPOS>ATOM
      1 C          -8.5126  -15.9214   25.4627 C.3     1  UNL1        0.1020
      2 C          -8.7495  -16.7641   26.6809 C.3     1  UNL1        0.1697
      3 O          -8.2545  -16.3029   28.0197 O.3     1  UNL1       -0.3793
      4 H          -7.8067  -15.4480   27.9219 H       1  UNL1        0.2106
      5 C          -9.4814  -18.0678   26.5603 C.3     1  UNL1        0.2358
      6 O          -9.4699  -18.8169   25.2609 O.3     1  UNL1       -0.4728
      7 C         -10.0062  -18.1708   24.0179 C.ar    1  UNL1        0.1388
      8 C          -9.0776  -17.8255   22.8916 C.ar    1  UNL1        0.0382
      9 C          -9.6138  -17.1795   21.6486 C.ar    1  UNL1        0.0215
     10 C         -11.0787  -16.8788   21.5319 C.ar    1  UNL1        0.1059
     11 C         -12.0073  -17.2241   22.6582 C.ar    1  UNL1        0.0215
     12 C         -11.4711  -17.8701   23.9011 C.ar    1  UNL1        0.0382
     13 S         -11.6150  -16.2327   20.2889 S.O2    1  UNL1        0.0105
     14 C         -12.1514  -15.5867   19.0460 C.3     1  UNL1        0.1816
     15 O         -10.2960  -15.5517   20.0737 O.2     1  UNL1       -0.1686
     16 O         -12.9340  -16.9137   20.5041 O.2     1  UNL1       -0.1686
     17 N          -7.3539  -14.9698   25.4228 N.3     1  UNL1       -0.2971
     18 H          -7.6696  -14.1425   24.9165 H       1  UNL1        0.1233
     19 C          -5.4684  -15.6033   26.1599 C.3     1  UNL1        0.0162
     20 C          -6.0577  -15.3920   24.7969 C.3     1  UNL1        0.0476
     21 C          -6.6470  -15.1807   23.4338 C.3     1  UNL1        0.0162
     22 C          -4.7616  -15.8143   24.1710 C.3     1  UNL1        0.0602
     23 C          -4.7248  -16.9943   23.2458 C.2     1  UNL1        0.0599
     24 C          -3.4972  -17.5833   22.6164 C.2     1  UNL1        0.0159
     25 C          -3.9229  -18.7456   21.7690 C.2     1  UNL1        0.0150
     26 C          -3.1457  -19.7028   20.9149 C.2     1  UNL1        0.0009
     27 C          -3.8592  -20.7894   20.1665 C.2     1  UNL1       -0.0041
     28 C          -5.3499  -20.9188   20.2722 C.2     1  UNL1       -0.0198
     29 C          -6.1270  -19.9616   21.1264 C.3     1  UNL1        0.0717
     30 C          -5.4135  -18.8749   21.8748 C.2     1  UNL1        0.0630
     31 N          -5.9091  -17.7926   22.7875 N.2     1  UNL1       -0.2536
@<TRIPOS>BOND
     1    19    20    1
     2    20    21    1
     3    20    22    1
     4    22    23    1
     5    23    24    2
     6    24    25    1
     7    25    26    2
     8    26    27    1
     9    27    28    2
    10    28    29    1
    11    29    30    1
    12    30    31    2
    13    20    17    1
    14    17     1    1
    15     1     2    1
    16     2     3    1
    17     2     5    1
    18     5     6    1
    19     6     7    1
    20     7     8   ar
    21     8     9   ar
    22     9    10   ar
    23    10    13    1
    24    13    14    1
    25    13    15    2
    26    13    16    2
    27    10    11   ar
    28    11    12   ar
    29    31    23    1
    30    12     7   ar
    31    30    25    1
    32    17    18    1
    33     3     4    1
@<TRIPOS>MOLECULE
*****
 31 33 0 0 0
SMALL
GASTEIGER

@<TRIPOS>ATOM
      1 C         -17.8500   -6.6064   17.4850 C.3     1  UNL1        0.1020
      2 C         -18.1009   -5.3396   18.2481 C.3     1  UNL1        0.1697
      3 O         -19.0380   -4.3057   17.6977 O.3     1  UNL1       -0.3793
      4 H         -19.3933   -4.6107   16.8482 H       1  UNL1        0.2106
      5 C         -17.4147   -5.1066   19.5614 C.3     1  UNL1        0.2358
      6 O         -15.9620   -5.4453   19.7189 O.3     1  UNL1       -0.4728
      7 C         -14.9124   -4.4998   19.2142 C.ar    1  UNL1        0.1388
      8 C         -14.0121   -3.7922   20.1830 C.ar    1  UNL1        0.0382
      9 C         -12.9626   -2.8468   19.6783 C.ar    1  UNL1        0.0215
     10 C         -12.8134   -2.6091   18.2049 C.ar    1  UNL1        0.1059
     11 C         -13.7137   -3.3167   17.2360 C.ar    1  UNL1        0.0215
     12 C         -14.7632   -4.2621   17.7407 C.ar    1  UNL1        0.0382
     13 S         -11.7638   -1.6636   17.7001 S.O2    1  UNL1        0.0105
     14 C         -10.7144   -0.7183   17.1954 C.3     1  UNL1        0.1816
     15 O         -11.4246   -1.2866   19.1117 O.2     1  UNL1       -0.1686
     16 O         -12.1031   -2.0407   16.2885 O.2     1  UNL1       -0.1686
     17 N         -17.2368   -7.7887   18.1751 N.3     1  UNL1       -0.2971
     18 H         -17.2146   -7.5694   19.1710 H       1  UNL1        0.1233
     19 C         -16.0116   -7.6023   16.4535 C.3     1  UNL1        0.0162
     20 C         -15.8571   -8.2431   17.8009 C.3     1  UNL1        0.0476
     21 C         -15.7026   -8.8839   19.1483 C.3     1  UNL1        0.0162
     22 C         -14.4775   -8.6974   17.4266 C.3     1  UNL1        0.0602
     23 C         -13.3307   -7.7317   17.4756 C.2     1  UNL1        0.0599
     24 C         -12.6351   -7.2511   18.7146 C.2     1  UNL1        0.0159
     25 C         -11.5527   -6.2994   18.2990 C.2     1  UNL1        0.0150
     26 C         -10.5463   -5.5169   19.0894 C.2     1  UNL1        0.0009
     27 C          -9.5665   -4.6268   18.3839 C.2     1  UNL1       -0.0041
     28 C          -9.5932   -4.5193   16.8879 C.2     1  UNL1       -0.0198
     29 C         -10.5996   -5.3018   16.0976 C.3     1  UNL1        0.0717
     30 C         -11.5793   -6.1919   16.8031 C.2     1  UNL1        0.0630
     31 N         -12.6782   -7.0771   16.2942 N.2     1  UNL1       -0.2536
@<TRIPOS>BOND
     1    19    20    1
     2    20    21    1
     3    20    22    1
     4    22    23    1
     5    23    24    2
     6    24    25    1
     7    25    26    2
     8    26    27    1
     9    27    28    2
    10    28    29    1
    11    29    30    1
    12    30    31    2
    13    20    17    1
    14    17     1    1
    15     1     2    1
    16     2     3    1
    17     2     5    1
    18     5     6    1
    19     6     7    1
    20     7     8   ar
    21     8     9   ar
    22     9    10   ar
    23    10    13    1
    24    13    14    1
    25    13    15    2
    26    13    16    2
    27    10    11   ar
    28    11    12   ar
    29    31    23    1
    30    12     7   ar
    31    30    25    1
    32    17    18    1
    33     3     4    1
@<TRIPOS>MOLECULE
*****
 31 33 0 0 0
SMALL
GASTEIGER

@<TRIPOS>ATOM
      1 C         -17.0324   -9.9276   18.8901 C.3     1  UNL1        0.1020
      2 C         -15.7121  -10.2824   18.2727 C.3     1  UNL1        0.1697
      3 O         -15.2728  -11.7154   18.2133 O.3     1  UNL1       -0.3793
      4 H         -15.9529  -12.2789   18.6142 H       1  UNL1        0.2106
      5 C         -14.8312   -9.2042   17.7147 C.3     1  UNL1        0.2358
      6 O         -14.3579   -8.0895   18.5998 O.3     1  UNL1       -0.4728
      7 C         -13.3283   -7.1201   18.0995 C.ar    1  UNL1        0.1388
      8 C         -13.5770   -6.3459   16.8390 C.ar    1  UNL1        0.0382
      9 C         -12.5474   -5.3766   16.3387 C.ar    1  UNL1        0.0215
     10 C         -11.2691   -5.1815   17.0989 C.ar    1  UNL1        0.1059
     11 C         -11.0204   -5.9557   18.3593 C.ar    1  UNL1        0.0215
     12 C         -12.0500   -6.9250   18.8596 C.ar    1  UNL1        0.0382
     13 S         -10.2395   -4.2121   16.5986 S.O2    1  UNL1        0.0105
     14 C          -9.2098   -3.2428   16.0983 C.3     1  UNL1        0.1816
     15 O         -11.3236   -3.3784   15.9825 O.2     1  UNL1       -0.1686
     16 O          -9.1554   -5.0458   17.2146 O.2     1  UNL1       -0.1686
     17 N         -17.9499   -8.9645   18.1968 N.3     1  UNL1       -0.2971
     18 H         -17.6594   -8.9326   17.2196 H       1  UNL1        0.1233
     19 C         -17.9662   -7.0674   17.2479 C.3     1  UNL1        0.0162
     20 C         -18.0406   -7.5434   18.6684 C.3     1  UNL1        0.0476
     21 C         -18.1151   -8.0195   20.0889 C.3     1  UNL1        0.0162
     22 C         -18.1313   -6.1224   19.1398 C.3     1  UNL1        0.0602
     23 C         -16.9160   -5.2436   19.1112 C.2     1  UNL1        0.0599
     24 C         -15.7684   -5.2943   20.0758 C.2     1  UNL1        0.0159
     25 C         -14.7781   -4.2419   19.6737 C.2     1  UNL1        0.0150
     26 C         -13.4579   -3.8314   20.2555 C.2     1  UNL1        0.0009
     27 C         -12.6731   -2.7199   19.6241 C.2     1  UNL1       -0.0041
     28 C         -13.2086   -2.0188   18.4110 C.2     1  UNL1       -0.0198
     29 C         -14.5289   -2.4293   17.8292 C.3     1  UNL1        0.0717
     30 C         -15.3136   -3.5408   18.4606 C.2     1  UNL1        0.0630
     31 N         -16.6349   -4.1599   18.1129 N.2     1  UNL1       -0.2536
@<TRIPOS>BOND
     1    19    20    1
     2    20    21    1
     3    20    22    1
     4    22    23    1
     5    23    24    2
     6    24    25    1
     7    25    26    2
     8    26    27    1
     9    27    28    2
    10    28    29    1
    11    29    30    1
    12    30    31    2
    13    20    17    1
    14    17     1    1
    15     1     2    1
    16     2     3    1
    17     2     5    1
    18     5     6    1
    19     6     7    1
    20     7     8   ar
    21     8     9   ar
    22     9    10   ar
    23    10    13    1
    24    13    14    1
    25    13    15    2
    26    13    16    2
    27    10    11   ar
    28    11    12   ar
    29    31    23    1
    30    12     7   ar
    31    30    25    1
    32    17    18    1
    33     3     4    1
@<TRIPOS>MOLECULE
*****
 31 33 0 0 0
SMALL
GASTEIGER

@<TRIPOS>ATOM
      1 C         -12.6289   -7.9260   17.4692 C.3     1  UNL1        0.1020
      2 C         -13.7671   -7.8788   18.4451 C.3     1  UNL1        0.1697
      3 O         -14.3505   -9.1534   18.9790 O.3     1  UNL1       -0.3793
      4 H         -13.8803   -9.9100   18.5950 H       1  UNL1        0.2106
      5 C         -14.3219   -6.5572   18.8870 C.3     1  UNL1        0.2358
      6 O         -13.6445   -5.2839   18.4750 O.3     1  UNL1       -0.4728
      7 C         -14.3601   -3.9733   18.6178 C.ar    1  UNL1        0.1388
      8 C         -14.6545   -3.4244   19.9823 C.ar    1  UNL1        0.0382
      9 C         -15.3702   -2.1139   20.1252 C.ar    1  UNL1        0.0215
     10 C         -15.7914   -1.3524   18.9035 C.ar    1  UNL1        0.1059
     11 C         -15.4970   -1.9013   17.5390 C.ar    1  UNL1        0.0215
     12 C         -14.7813   -3.2118   17.3961 C.ar    1  UNL1        0.0382
     13 S         -16.5070   -0.0418   19.0463 S.O2    1  UNL1        0.0105
     14 C         -17.2226    1.2687   19.1891 C.3     1  UNL1        0.1816
     15 O         -17.2847   -0.5926   20.2047 O.2     1  UNL1       -0.1686
     16 O         -15.7294    0.5090   17.8880 O.2     1  UNL1       -0.1686
     17 N         -11.2137   -7.9130   17.9664 N.3     1  UNL1       -0.2971
     18 H         -11.2556   -8.0417   18.9773 H       1  UNL1        0.1233
     19 C         -11.0911   -6.4357   16.4490 C.3     1  UNL1        0.0162
     20 C         -10.3423   -6.7176   17.7178 C.3     1  UNL1        0.0476
     21 C          -9.5936   -6.9995   18.9865 C.3     1  UNL1        0.0162
     22 C          -9.4710   -5.5222   17.4692 C.3     1  UNL1        0.0602
     23 C         -10.0659   -4.1453   17.4794 C.2     1  UNL1        0.0599
     24 C         -10.8198   -3.5190   18.6149 C.2     1  UNL1        0.0159
     25 C         -11.2313   -2.1395   18.1932 C.2     1  UNL1        0.0150
     26 C         -11.9962   -1.0602   18.9002 C.2     1  UNL1        0.0009
     27 C         -12.2617    0.2454   18.2110 C.2     1  UNL1       -0.0041
     28 C         -11.7621    0.4716   16.8148 C.2     1  UNL1       -0.0198
     29 C         -10.9972   -0.6077   16.1079 C.3     1  UNL1        0.0717
     30 C         -10.7317   -1.9133   16.7971 C.2     1  UNL1        0.0630
     31 N         -10.0115   -3.1529   16.3559 N.2     1  UNL1       -0.2536
@<TRIPOS>BOND
     1    19    20    1
     2    20    21    1
     3    20    22    1
     4    22    23    1
     5    23    24    2
     6    24    25    1
     7    25    26    2
     8    26    27    1
     9    27    28    2
    10    28    29    1
    11    29    30    1
    12    30    31    2
    13    20    17    1
    14    17     1    1
    15     1     2    1
    16     2     3    1
    17     2     5    1
    18     5     6    1
    19     6     7    1
    20     7     8   ar
    21     8     9   ar
    22     9    10   ar
    23    10    13    1
    24    13    14    1
    25    13    15    2
    26    13    16    2
    27    10    11   ar
    28    11    12   ar
    29    31    23    1
    30    12     7   ar
    31    30    25    1
    32    17    18    1
    33     3     4    1
@<TRIPOS>MOLECULE
*****
 31 33 0 0 0
SMALL
GASTEIGER

@<TRIPOS>ATOM
      1 C         -11.5456   -7.6626   16.8222 C.3     1  UNL1        0.1020
      2 C         -12.8495   -7.5692   17.5580 C.3     1  UNL1        0.1697
      3 O         -12.9438   -8.0390   18.9794 O.3     1  UNL1       -0.3793
      4 H         -12.0795   -8.3715   19.2681 H       1  UNL1        0.2106
      5 C         -14.0589   -7.0059   16.8725 C.3     1  UNL1        0.2358
      6 O         -14.2720   -5.5219   16.8269 O.3     1  UNL1       -0.4728
      7 C         -15.3955   -4.9013   17.6033 C.ar    1  UNL1        0.1388
      8 C         -15.7606   -5.4401   18.9547 C.ar    1  UNL1        0.0382
      9 C         -16.8841   -4.8196   19.7311 C.ar    1  UNL1        0.0215
     10 C         -17.6425   -3.6603   19.1559 C.ar    1  UNL1        0.1059
     11 C         -17.2774   -3.1215   17.8045 C.ar    1  UNL1        0.0215
     12 C         -16.1540   -3.7420   17.0281 C.ar    1  UNL1        0.0382
     13 S         -18.7660   -3.0397   19.9323 S.O2    1  UNL1        0.0105
     14 C         -19.8895   -2.4192   20.7086 C.3     1  UNL1        0.1816
     15 O         -18.1402   -1.6878   19.7575 O.2     1  UNL1       -0.1686
     16 O         -19.3919   -4.3916   20.1071 O.2     1  UNL1       -0.1686
     17 N         -10.2596   -7.3639   17.5341 N.3     1  UNL1       -0.2971
     18 H         -10.2313   -7.9667   18.3564 H       1  UNL1        0.1233
     19 C         -10.3538   -5.4326   16.6617 C.3     1  UNL1        0.0162
     20 C          -9.9712   -5.9704   18.0086 C.3     1  UNL1        0.0476
     21 C          -9.5885   -6.5082   19.3555 C.3     1  UNL1        0.0162
     22 C          -9.6827   -4.5770   18.4830 C.3     1  UNL1        0.0602
     23 C         -10.7978   -3.5814   18.6083 C.2     1  UNL1        0.0599
     24 C         -12.0873   -3.7900   19.3455 C.2     1  UNL1        0.0159
     25 C         -12.9056   -2.5401   19.2112 C.2     1  UNL1        0.0150
     26 C         -14.2631   -2.1685   19.7298 C.2     1  UNL1        0.0009
     27 C         -14.8368   -0.8158   19.4281 C.2     1  UNL1       -0.0041
     28 C         -14.0529    0.1653   18.6078 C.2     1  UNL1       -0.0198
     29 C         -12.6954   -0.2062   18.0891 C.3     1  UNL1        0.0717
     30 C         -12.1217   -1.5589   18.3908 C.2     1  UNL1        0.0630
     31 N         -10.8191   -2.2025   18.0182 N.2     1  UNL1       -0.2536
@<TRIPOS>BOND
     1    19    20    1
     2    20    21    1
     3    20    22    1
     4    22    23    1
     5    23    24    2
     6    24    25    1
     7    25    26    2
     8    26    27    1
     9    27    28    2
    10    28    29    1
    11    29    30    1
    12    30    31    2
    13    20    17    1
    14    17     1    1
    15     1     2    1
    16     2     3    1
    17     2     5    1
    18     5     6    1
    19     6     7    1
    20     7     8   ar
    21     8     9   ar
    22     9    10   ar
    23    10    13    1
    24    13    14    1
    25    13    15    2
    26    13    16    2
    27    10    11   ar
    28    11    12   ar
    29    31    23    1
    30    12     7   ar
    31    30    25    1
    32    17    18    1
    33     3     4    1
@<TRIPOS>MOLECULE
*****
 31 33 0 0 0
SMALL
GASTEIGER

@<TRIPOS>ATOM
      1 C           5.8008   -3.7090   22.2783 C.3     1  UNL1        0.1020
      2 C           5.1701   -2.8207   23.3094 C.3     1  UNL1        0.1697
      3 O           5.3995   -3.0845   24.7681 O.3     1  UNL1       -0.3793
      4 H           5.9737   -3.8596   24.8701 H       1  UNL1        0.2106
      5 C           4.3100   -1.6686   22.8818 C.3     1  UNL1        0.2358
      6 O           3.1779   -1.8929   21.9237 O.3     1  UNL1       -0.4728
      7 C           2.3577   -0.7311   21.4466 C.ar    1  UNL1        0.1388
      8 C           2.3783    0.5631   22.2047 C.ar    1  UNL1        0.0382
      9 C           1.5581    1.7248   21.7277 C.ar    1  UNL1        0.0215
     10 C           0.7174    1.5924   20.4925 C.ar    1  UNL1        0.1059
     11 C           0.6968    0.2982   19.7344 C.ar    1  UNL1        0.0215
     12 C           1.5170   -0.8635   20.2115 C.ar    1  UNL1        0.0382
     13 S          -0.1028    2.7542   20.0154 S.O2    1  UNL1        0.0105
     14 C          -0.9230    3.9159   19.5384 C.3     1  UNL1        0.1816
     15 O           1.0327    3.1969   19.1410 O.2     1  UNL1       -0.1686
     16 O          -1.2383    2.3116   20.8898 O.2     1  UNL1       -0.1686
     17 N           4.9692   -4.2737   21.1650 N.3     1  UNL1       -0.2971
     18 H           5.1192   -5.2826   21.1680 H       1  UNL1        0.1233
     19 C           3.7584   -4.1294   19.4292 C.3     1  UNL1        0.0162
     20 C           5.1866   -3.8078   19.7558 C.3     1  UNL1        0.0476
     21 C           6.6148   -3.4861   20.0824 C.3     1  UNL1        0.0162
     22 C           5.4039   -3.3419   18.3467 C.3     1  UNL1        0.0602
     23 C           5.5329   -1.8767   18.0526 C.2     1  UNL1        0.0599
     24 C           4.6815   -0.7837   18.6275 C.2     1  UNL1        0.0159
     25 C           5.1584    0.5213   18.0622 C.2     1  UNL1        0.0150
     26 C           4.6970    1.9334   18.2697 C.2     1  UNL1        0.0009
     27 C           5.3818    3.0591   17.5529 C.2     1  UNL1       -0.0041
     28 C           6.5280    2.7727   16.6287 C.2     1  UNL1       -0.0198
     29 C           6.9894    1.3606   16.4212 C.3     1  UNL1        0.0717
     30 C           6.3046    0.2349   17.1380 C.2     1  UNL1        0.0630
     31 N           6.5360   -1.2471   17.1320 N.2     1  UNL1       -0.2536
@<TRIPOS>BOND
     1    19    20    1
     2    20    21    1
     3    20    22    1
     4    22    23    1
     5    23    24    2
     6    24    25    1
     7    25    26    2
     8    26    27    1
     9    27    28    2
    10    28    29    1
    11    29    30    1
    12    30    31    2
    13    20    17    1
    14    17     1    1
    15     1     2    1
    16     2     3    1
    17     2     5    1
    18     5     6    1
    19     6     7    1
    20     7     8   ar
    21     8     9   ar
    22     9    10   ar
    23    10    13    1
    24    13    14    1
    25    13    15    2
    26    13    16    2
    27    10    11   ar
    28    11    12   ar
    29    31    23    1
    30    12     7   ar
    31    30    25    1
    32    17    18    1
    33     3     4    1
