@<TRIPOS>MOLECULE
*****
 31 34 0 0 0
SMALL
GASTEIGER

@<TRIPOS>ATOM
      1 C          -2.6875  -19.0497   19.3728 C.3     1  UNL1        0.0488
      2 C          -4.1808  -19.0092   19.5093 C.3     1  UNL1        0.0212
      3 C          -4.8984  -20.1130   20.2281 C.3     1  UNL1        0.0722
      4 C          -9.1771  -19.5567   21.5059 C.3     1  UNL1        0.0087
      5 C          -8.1218  -19.8561   22.5289 C.3     1  UNL1        0.0178
      6 C          -6.6956  -20.0416   22.1030 C.3     1  UNL1        0.0721
      7 N          -6.3247  -19.9275   20.6540 N.3     1  UNL1       -0.2727
      8 C          -7.3800  -19.6281   19.6310 C.3     1  UNL1        0.0721
      9 C          -8.8062  -19.4426   20.0570 C.3     1  UNL1        0.0178
     10 C         -10.6035  -19.3712   21.9318 C.3     1  UNL1        0.0475
     11 C         -12.6539  -16.1559   22.6548 C.ar    1  UNL1        0.1747
     12 N         -12.5602  -17.6466   22.5162 N.ar    1  UNL1       -0.2285
     13 C         -11.1435  -17.9912   22.1641 C.ar    1  UNL1        0.0776
     14 C         -10.3615  -16.7136   22.0850 C.ar    1  UNL1        0.0885
     15 N         -11.2950  -15.5793   22.3882 N.ar    1  UNL1       -0.3340
     16 H         -11.0575  -14.6241   22.4087 H       1  UNL1        0.1675
     17 C          -1.8557  -19.7160   20.4283 C.3     1  UNL1        0.2054
     18 O          -1.5083  -18.9773   21.6867 O.3     1  UNL1       -0.4755
     19 C          -2.4741  -17.9861   22.2655 C.ar    1  UNL1        0.1385
     20 C          -3.5728  -18.4522   23.1741 C.ar    1  UNL1        0.0366
     21 C          -4.5386  -17.4612   23.7529 C.ar    1  UNL1        0.0002
     22 C          -4.4057  -16.0040   23.4230 C.ar    1  UNL1       -0.0059
     23 C          -3.3070  -15.5379   22.5143 C.ar    1  UNL1        0.0002
     24 C          -2.3412  -16.5289   21.9356 C.ar    1  UNL1        0.0366
     25 C          -5.3715  -15.0128   24.0018 C.3     1  UNL1        0.0991
     26 N          -6.3700  -15.4520   25.0314 N.3     1  UNL1       -0.2690
     27 C          -5.9978  -15.4528   26.4846 C.3     1  UNL1        0.0724
     28 C          -6.9963  -15.8920   27.5142 C.3     1  UNL1        0.0174
     29 C          -8.3669  -16.3304   27.0907 C.3     1  UNL1        0.0029
     30 C          -8.7390  -16.3295   25.6376 C.3     1  UNL1        0.0174
     31 C          -7.7405  -15.8904   24.6080 C.3     1  UNL1        0.0724
@<TRIPOS>BOND
     1    11    12   ar
     2    12    13   ar
     3    13    10    1
     4    10     4    1
     5     4     5    1
     6     5     6    1
     7     6     7    1
     8     7     3    1
     9     3     2    1
    10     2     1    1
    11     1    17    1
    12    17    18    1
    13    18    19    1
    14    19    20   ar
    15    20    21   ar
    16    21    22   ar
    17    22    25    1
    18    25    26    1
    19    26    27    1
    20    27    28    1
    21    28    29    1
    22    29    30    1
    23    30    31    1
    24    22    23   ar
    25    23    24   ar
    26     7     8    1
    27     8     9    1
    28    13    14   ar
    29    14    15   ar
    30    15    11   ar
    31     9     4    1
    32    24    19   ar
    33    31    26    1
    34    15    16    1
@<TRIPOS>MOLECULE
*****
 31 34 0 0 0
SMALL
GASTEIGER

@<TRIPOS>ATOM
      1 C          -4.0861  -20.1367   19.7989 C.3     1  UNL1        0.0488
      2 C          -5.3537  -20.7190   20.3507 C.3     1  UNL1        0.0212
      3 C          -6.6495  -20.5214   19.6215 C.3     1  UNL1        0.0722
      4 C          -9.8642  -17.9288   21.4085 C.3     1  UNL1        0.0087
      5 C          -8.5288  -18.0391   22.0824 C.3     1  UNL1        0.0178
      6 C          -7.4572  -18.9033   21.4868 C.3     1  UNL1        0.0721
      7 N          -7.7211  -19.6572   20.2171 N.3     1  UNL1       -0.2727
      8 C          -9.0566  -19.5469   19.5432 C.3     1  UNL1        0.0721
      9 C         -10.1282  -18.6827   20.1388 C.3     1  UNL1        0.0178
     10 C         -10.9359  -17.0646   22.0041 C.3     1  UNL1        0.0475
     11 C         -13.8460  -18.1388   24.3370 C.ar    1  UNL1        0.1747
     12 N         -13.3335  -17.3975   23.1379 N.ar    1  UNL1       -0.2285
     13 C         -11.8529  -17.6222   23.0521 C.ar    1  UNL1        0.0776
     14 C         -11.4503  -18.5023   24.1981 C.ar    1  UNL1        0.0885
     15 N         -12.6821  -18.8216   24.9923 N.ar    1  UNL1       -0.3340
     16 H         -12.7200  -19.3810   25.8015 H       1  UNL1        0.1675
     17 C          -2.7587  -20.5948   20.3260 C.3     1  UNL1        0.2054
     18 O          -2.1059  -19.8571   21.4572 O.3     1  UNL1       -0.4755
     19 C          -2.7716  -18.6498   22.0486 C.ar    1  UNL1        0.1385
     20 C          -2.3132  -17.2752   21.6608 C.ar    1  UNL1        0.0366
     21 C          -2.9788  -16.0681   22.2521 C.ar    1  UNL1        0.0002
     22 C          -4.1028  -16.2355   23.2311 C.ar    1  UNL1       -0.0059
     23 C          -4.5612  -17.6101   23.6189 C.ar    1  UNL1        0.0002
     24 C          -3.8956  -18.8173   23.0276 C.ar    1  UNL1        0.0366
     25 C          -4.7684  -15.0283   23.8225 C.3     1  UNL1        0.0991
     26 N          -5.9267  -15.1947   24.7609 N.3     1  UNL1       -0.2690
     27 C          -7.3241  -15.2722   24.2211 C.3     1  UNL1        0.0724
     28 C          -8.4824  -15.4386   25.1596 C.3     1  UNL1        0.0174
     29 C          -8.2433  -15.5276   26.6378 C.3     1  UNL1        0.0029
     30 C          -6.8459  -15.4502   27.1774 C.3     1  UNL1        0.0174
     31 C          -5.6876  -15.2837   26.2390 C.3     1  UNL1        0.0724
@<TRIPOS>BOND
     1    11    12   ar
     2    12    13   ar
     3    13    10    1
     4    10     4    1
     5     4     5    1
     6     5     6    1
     7     6     7    1
     8     7     3    1
     9     3     2    1
    10     2     1    1
    11     1    17    1
    12    17    18    1
    13    18    19    1
    14    19    20   ar
    15    20    21   ar
    16    21    22   ar
    17    22    25    1
    18    25    26    1
    19    26    27    1
    20    27    28    1
    21    28    29    1
    22    29    30    1
    23    30    31    1
    24    22    23   ar
    25    23    24   ar
    26     7     8    1
    27     8     9    1
    28    13    14   ar
    29    14    15   ar
    30    15    11   ar
    31     9     4    1
    32    24    19   ar
    33    31    26    1
    34    15    16    1
@<TRIPOS>MOLECULE
*****
 31 34 0 0 0
SMALL
GASTEIGER

@<TRIPOS>ATOM
      1 C         -11.0797  -17.7992   19.7347 C.3     1  UNL1        0.0488
      2 C         -12.2103  -17.1586   20.4840 C.3     1  UNL1        0.0212
      3 C         -12.5569  -17.6297   21.8652 C.3     1  UNL1        0.0722
      4 C          -9.5149  -17.3455   25.1691 C.3     1  UNL1        0.0087
      5 C         -10.3538  -18.5807   25.0263 C.3     1  UNL1        0.0178
      6 C         -11.3678  -18.6754   23.9250 C.3     1  UNL1        0.0721
      7 N         -11.5429  -17.5349   22.9665 N.3     1  UNL1       -0.2727
      8 C         -10.7039  -16.2997   23.1093 C.3     1  UNL1        0.0721
      9 C          -9.6900  -16.2050   24.2106 C.3     1  UNL1        0.0178
     10 C          -8.5009  -17.2507   26.2704 C.3     1  UNL1        0.0475
     11 C          -5.4655  -15.0195   25.3362 C.ar    1  UNL1        0.1747
     12 N          -6.4296  -16.1222   25.0130 N.ar    1  UNL1       -0.2285
     13 C          -7.3739  -16.2660   26.1695 C.ar    1  UNL1        0.0776
     14 C          -6.9934  -15.2521   27.2075 C.ar    1  UNL1        0.0885
     15 N          -5.8139  -14.4817   26.6925 N.ar    1  UNL1       -0.3340
     16 H          -5.3499  -13.7514   27.1622 H       1  UNL1        0.1675
     17 C         -10.7017  -19.2224   20.0204 C.3     1  UNL1        0.2054
     18 O          -9.4329  -19.7892   19.4557 O.3     1  UNL1       -0.4755
     19 C          -8.1424  -19.6304   20.2036 C.ar    1  UNL1        0.1385
     20 C          -6.9411  -20.4360   19.8061 C.ar    1  UNL1        0.0366
     21 C          -5.6506  -20.2773   20.5539 C.ar    1  UNL1        0.0002
     22 C          -5.5613  -19.3130   21.6993 C.ar    1  UNL1       -0.0059
     23 C          -6.7625  -18.5074   22.0969 C.ar    1  UNL1        0.0002
     24 C          -8.0531  -18.6661   21.3490 C.ar    1  UNL1        0.0366
     25 C          -4.2707  -19.1542   22.4472 C.3     1  UNL1        0.0991
     26 N          -3.1440  -18.3713   21.8410 N.3     1  UNL1       -0.2690
     27 C          -2.9106  -16.9488   22.2561 C.3     1  UNL1        0.0724
     28 C          -1.7839  -16.1659   21.6498 C.3     1  UNL1        0.0174
     29 C          -0.8906  -16.8054   20.6285 C.3     1  UNL1        0.0029
     30 C          -1.1240  -18.2278   20.2135 C.3     1  UNL1        0.0174
     31 C          -2.2507  -19.0107   20.8197 C.3     1  UNL1        0.0724
@<TRIPOS>BOND
     1    11    12   ar
     2    12    13   ar
     3    13    10    1
     4    10     4    1
     5     4     5    1
     6     5     6    1
     7     6     7    1
     8     7     3    1
     9     3     2    1
    10     2     1    1
    11     1    17    1
    12    17    18    1
    13    18    19    1
    14    19    20   ar
    15    20    21   ar
    16    21    22   ar
    17    22    25    1
    18    25    26    1
    19    26    27    1
    20    27    28    1
    21    28    29    1
    22    29    30    1
    23    30    31    1
    24    22    23   ar
    25    23    24   ar
    26     7     8    1
    27     8     9    1
    28    13    14   ar
    29    14    15   ar
    30    15    11   ar
    31     9     4    1
    32    24    19   ar
    33    31    26    1
    34    15    16    1
@<TRIPOS>MOLECULE
*****
 31 34 0 0 0
SMALL
GASTEIGER

@<TRIPOS>ATOM
      1 C          -6.5309  -15.8566   27.1523 C.3     1  UNL1        0.0488
      2 C          -5.9060  -15.1409   25.9916 C.3     1  UNL1        0.0212
      3 C          -6.3184  -15.4816   24.5902 C.3     1  UNL1        0.0722
      4 C          -3.8489  -18.3458   22.1514 C.3     1  UNL1        0.0087
      5 C          -3.2066  -17.1387   22.7680 C.3     1  UNL1        0.0178
      6 C          -4.0297  -16.1840   23.5809 C.3     1  UNL1        0.0721
      7 N          -5.4953  -16.4364   23.7773 N.3     1  UNL1       -0.2727
      8 C          -6.1376  -17.6435   23.1606 C.3     1  UNL1        0.0721
      9 C          -5.3145  -18.5982   22.3477 C.3     1  UNL1        0.0178
     10 C          -3.0258  -19.3006   21.3384 C.3     1  UNL1        0.0475
     11 C           0.0963  -18.0389   19.4082 C.ar    1  UNL1        0.1747
     12 N          -0.5450  -18.5804   20.6514 N.ar    1  UNL1       -0.2285
     13 C          -2.0056  -18.7764   20.3718 C.ar    1  UNL1        0.0776
     14 C          -2.2670  -18.3560   18.9558 C.ar    1  UNL1        0.0885
     15 N          -0.9679  -17.9003   18.3602 N.ar    1  UNL1       -0.3340
     16 H          -0.8368  -17.5684   17.4427 H       1  UNL1        0.1675
     17 C          -8.0204  -15.8427   27.3282 C.3     1  UNL1        0.2054
     18 O          -8.8135  -17.0965   27.1068 O.3     1  UNL1       -0.4755
     19 C          -9.3475  -17.4149   25.7417 C.ar    1  UNL1        0.1385
     20 C          -9.8700  -18.7888   25.4425 C.ar    1  UNL1        0.0366
     21 C         -10.4040  -19.1073   24.0775 C.ar    1  UNL1        0.0002
     22 C         -10.4156  -18.0519   23.0117 C.ar    1  UNL1       -0.0059
     23 C          -9.8931  -16.6780   23.3109 C.ar    1  UNL1        0.0002
     24 C          -9.3591  -16.3595   24.6759 C.ar    1  UNL1        0.0366
     25 C         -10.9496  -18.3704   21.6465 C.3     1  UNL1        0.0991
     26 N         -10.0561  -19.0013   20.6201 N.3     1  UNL1       -0.2690
     27 C          -8.5680  -18.9824   20.8078 C.3     1  UNL1        0.0724
     28 C          -7.6745  -19.6132   19.7814 C.3     1  UNL1        0.0174
     29 C          -8.2691  -20.2630   18.5671 C.3     1  UNL1        0.0029
     30 C          -9.7572  -20.2819   18.3794 C.3     1  UNL1        0.0174
     31 C         -10.6507  -19.6510   19.4059 C.3     1  UNL1        0.0724
@<TRIPOS>BOND
     1    11    12   ar
     2    12    13   ar
     3    13    10    1
     4    10     4    1
     5     4     5    1
     6     5     6    1
     7     6     7    1
     8     7     3    1
     9     3     2    1
    10     2     1    1
    11     1    17    1
    12    17    18    1
    13    18    19    1
    14    19    20   ar
    15    20    21   ar
    16    21    22   ar
    17    22    25    1
    18    25    26    1
    19    26    27    1
    20    27    28    1
    21    28    29    1
    22    29    30    1
    23    30    31    1
    24    22    23   ar
    25    23    24   ar
    26     7     8    1
    27     8     9    1
    28    13    14   ar
    29    14    15   ar
    30    15    11   ar
    31     9     4    1
    32    24    19   ar
    33    31    26    1
    34    15    16    1
@<TRIPOS>MOLECULE
*****
 31 34 0 0 0
SMALL
GASTEIGER

@<TRIPOS>ATOM
      1 C          -7.0168  -16.1100   27.5475 C.3     1  UNL1        0.0488
      2 C          -5.9612  -15.1523   27.0798 C.3     1  UNL1        0.0212
      3 C          -5.7880  -14.8844   25.6141 C.3     1  UNL1        0.0722
      4 C          -3.2906  -17.6574   23.0996 C.3     1  UNL1        0.0087
      5 C          -3.8806  -16.4200   22.4910 C.3     1  UNL1        0.0178
      6 C          -4.7131  -15.4956   23.3292 C.3     1  UNL1        0.0721
      7 N          -4.9555  -15.8088   24.7759 N.3     1  UNL1       -0.2727
      8 C          -4.3654  -17.0463   25.3845 C.3     1  UNL1        0.0721
      9 C          -3.5330  -17.9706   24.5464 C.3     1  UNL1        0.0178
     10 C          -2.4581  -18.5819   22.2614 C.3     1  UNL1        0.0475
     11 C          -2.1774  -17.5390   18.5333 C.ar    1  UNL1        0.1747
     12 N          -3.0002  -17.9023   19.7337 N.ar    1  UNL1       -0.2285
     13 C          -2.0628  -18.1820   20.8708 C.ar    1  UNL1        0.0776
     14 C          -0.6606  -17.9916   20.3731 C.ar    1  UNL1        0.0885
     15 N          -0.7314  -17.5942   18.9284 N.ar    1  UNL1       -0.3340
     16 H           0.0363  -17.4032   18.3425 H       1  UNL1        0.1675
     17 C          -8.4673  -15.7556   27.4049 C.3     1  UNL1        0.2054
     18 O          -8.9699  -15.1529   26.1266 O.3     1  UNL1       -0.4755
     19 C          -8.9726  -15.9643   24.8650 C.ar    1  UNL1        0.1385
     20 C          -9.5089  -17.3651   24.8753 C.ar    1  UNL1        0.0366
     21 C          -9.5116  -18.1766   23.6138 C.ar    1  UNL1        0.0002
     22 C          -8.9779  -17.5872   22.3419 C.ar    1  UNL1       -0.0059
     23 C          -8.4416  -16.1864   22.3315 C.ar    1  UNL1        0.0002
     24 C          -8.4389  -15.3750   23.5931 C.ar    1  UNL1        0.0366
     25 C          -8.9806  -18.3986   21.0803 C.3     1  UNL1        0.0991
     26 N          -7.8376  -19.3225   20.7804 N.3     1  UNL1       -0.2690
     27 C          -7.9029  -20.2352   19.5917 C.3     1  UNL1        0.0724
     28 C          -6.7599  -21.1591   19.2918 C.3     1  UNL1        0.0174
     29 C          -5.5515  -21.1703   20.1806 C.3     1  UNL1        0.0029
     30 C          -5.4862  -20.2576   21.3692 C.3     1  UNL1        0.0174
     31 C          -6.6292  -19.3338   21.6690 C.3     1  UNL1        0.0724
@<TRIPOS>BOND
     1    11    12   ar
     2    12    13   ar
     3    13    10    1
     4    10     4    1
     5     4     5    1
     6     5     6    1
     7     6     7    1
     8     7     3    1
     9     3     2    1
    10     2     1    1
    11     1    17    1
    12    17    18    1
    13    18    19    1
    14    19    20   ar
    15    20    21   ar
    16    21    22   ar
    17    22    25    1
    18    25    26    1
    19    26    27    1
    20    27    28    1
    21    28    29    1
    22    29    30    1
    23    30    31    1
    24    22    23   ar
    25    23    24   ar
    26     7     8    1
    27     8     9    1
    28    13    14   ar
    29    14    15   ar
    30    15    11   ar
    31     9     4    1
    32    24    19   ar
    33    31    26    1
    34    15    16    1
@<TRIPOS>MOLECULE
*****
 31 34 0 0 0
SMALL
GASTEIGER

@<TRIPOS>ATOM
      1 C           3.2932   -0.2831   28.8690 C.3     1  UNL1        0.0488
      2 C           3.1750   -1.0885   27.6090 C.3     1  UNL1        0.0212
      3 C           4.2698   -1.0436   26.5847 C.3     1  UNL1        0.0722
      4 C           3.2622   -1.2531   22.2039 C.3     1  UNL1        0.0087
      5 C           4.2375   -2.2265   22.7965 C.3     1  UNL1        0.0178
      6 C           4.5734   -2.1566   24.2567 C.3     1  UNL1        0.0721
      7 N           3.9339   -1.1134   25.1244 N.3     1  UNL1       -0.2727
      8 C           2.9585   -0.1400   24.5318 C.3     1  UNL1        0.0721
      9 C           2.6227   -0.2099   23.0715 C.3     1  UNL1        0.0178
     10 C           2.9263   -1.3229   20.7436 C.3     1  UNL1        0.0475
     11 C           5.6494   -2.8132   18.4137 C.ar    1  UNL1        0.1747
     12 N           5.1527   -1.7266   19.3206 N.ar    1  UNL1       -0.2285
     13 C           3.7912   -2.1196   19.8124 C.ar    1  UNL1        0.0776
     14 C           3.4464   -3.4490   19.2093 C.ar    1  UNL1        0.0885
     15 N           4.5948   -3.8778   18.3449 N.ar    1  UNL1       -0.3340
     16 H           4.6472   -4.7115   17.8239 H       1  UNL1        0.1675
     17 C           2.3737   -0.5555   30.0223 C.3     1  UNL1        0.2054
     18 O           1.2420    0.3837   30.3172 O.3     1  UNL1       -0.4755
     19 C           0.6893    1.2570   29.2300 C.ar    1  UNL1        0.1385
     20 C          -0.1809    0.6643   28.1615 C.ar    1  UNL1        0.0366
     21 C          -0.7336    1.5374   27.0743 C.ar    1  UNL1        0.0002
     22 C          -0.4161    3.0033   27.0556 C.ar    1  UNL1       -0.0059
     23 C           0.4540    3.5960   28.1240 C.ar    1  UNL1        0.0002
     24 C           1.0067    2.7228   29.2112 C.ar    1  UNL1        0.0366
     25 C          -0.9688    3.8765   25.9683 C.3     1  UNL1        0.0991
     26 N          -2.4454    3.9032   25.7056 N.3     1  UNL1       -0.2690
     27 C          -3.3841    4.4258   26.7525 C.3     1  UNL1        0.0724
     28 C          -4.8607    4.4525   26.4898 C.3     1  UNL1        0.0174
     29 C          -5.3986    3.9566   25.1803 C.3     1  UNL1        0.0029
     30 C          -4.4599    3.4340   24.1335 C.3     1  UNL1        0.0174
     31 C          -2.9833    3.4073   24.3962 C.3     1  UNL1        0.0724
@<TRIPOS>BOND
     1    11    12   ar
     2    12    13   ar
     3    13    10    1
     4    10     4    1
     5     4     5    1
     6     5     6    1
     7     6     7    1
     8     7     3    1
     9     3     2    1
    10     2     1    1
    11     1    17    1
    12    17    18    1
    13    18    19    1
    14    19    20   ar
    15    20    21   ar
    16    21    22   ar
    17    22    25    1
    18    25    26    1
    19    26    27    1
    20    27    28    1
    21    28    29    1
    22    29    30    1
    23    30    31    1
    24    22    23   ar
    25    23    24   ar
    26     7     8    1
    27     8     9    1
    28    13    14   ar
    29    14    15   ar
    30    15    11   ar
    31     9     4    1
    32    24    19   ar
    33    31    26    1
    34    15    16    1
@<TRIPOS>MOLECULE
*****
 31 34 0 0 0
SMALL
GASTEIGER

@<TRIPOS>ATOM
      1 C           3.6452   -0.9156   17.3909 C.3     1  UNL1        0.0488
      2 C           3.5534    0.4698   17.9585 C.3     1  UNL1        0.0212
      3 C           4.5158    0.9101   19.0214 C.3     1  UNL1        0.0722
      4 C           4.0477   -0.5853   23.2398 C.3     1  UNL1        0.0087
      5 C           2.9187   -0.7306   22.2629 C.3     1  UNL1        0.0178
      6 C           3.0748   -0.2322   20.8568 C.3     1  UNL1        0.0721
      7 N           4.3598    0.4116   20.4276 N.3     1  UNL1       -0.2727
      8 C           5.4888    0.5569   21.4045 C.3     1  UNL1        0.0721
      9 C           5.3327    0.0585   22.8105 C.3     1  UNL1        0.0178
     10 C           3.8916   -1.0838   24.6459 C.3     1  UNL1        0.0475
     11 C           1.8249    1.4848   26.6943 C.ar    1  UNL1        0.1747
     12 N           2.3077    0.9392   25.3832 N.ar    1  UNL1       -0.2285
     13 C           3.1932   -0.2374   25.6686 C.ar    1  UNL1        0.0776
     14 C           3.2577   -0.4190   27.1562 C.ar    1  UNL1        0.0885
     15 N           2.4121    0.6454   27.7902 N.ar    1  UNL1       -0.3340
     16 H           2.2677    0.7710   28.7559 H       1  UNL1        0.1675
     17 C           4.8055   -1.7969   17.7474 C.3     1  UNL1        0.2054
     18 O           4.5787   -3.0538   18.5338 O.3     1  UNL1       -0.4755
     19 C           5.1747   -3.2000   19.9026 C.ar    1  UNL1        0.1385
     20 C           4.3630   -3.7960   21.0143 C.ar    1  UNL1        0.0366
     21 C           4.9590   -3.9422   22.3830 C.ar    1  UNL1        0.0002
     22 C           6.3667   -3.4924   22.6400 C.ar    1  UNL1       -0.0059
     23 C           7.1784   -2.8964   21.5282 C.ar    1  UNL1        0.0002
     24 C           6.5824   -2.7502   20.1596 C.ar    1  UNL1        0.0366
     25 C           6.9628   -3.6386   24.0087 C.3     1  UNL1        0.0991
     26 N           7.2869   -5.0019   24.5439 N.3     1  UNL1       -0.2690
     27 C           8.0260   -5.9874   23.6880 C.3     1  UNL1        0.0724
     28 C           8.3501   -7.3507   24.2232 C.3     1  UNL1        0.0174
     29 C           7.9350   -7.7285   25.6143 C.3     1  UNL1        0.0029
     30 C           7.1959   -6.7430   26.4701 C.3     1  UNL1        0.0174
     31 C           6.8718   -5.3797   25.9349 C.3     1  UNL1        0.0724
@<TRIPOS>BOND
     1    11    12   ar
     2    12    13   ar
     3    13    10    1
     4    10     4    1
     5     4     5    1
     6     5     6    1
     7     6     7    1
     8     7     3    1
     9     3     2    1
    10     2     1    1
    11     1    17    1
    12    17    18    1
    13    18    19    1
    14    19    20   ar
    15    20    21   ar
    16    21    22   ar
    17    22    25    1
    18    25    26    1
    19    26    27    1
    20    27    28    1
    21    28    29    1
    22    29    30    1
    23    30    31    1
    24    22    23   ar
    25    23    24   ar
    26     7     8    1
    27     8     9    1
    28    13    14   ar
    29    14    15   ar
    30    15    11   ar
    31     9     4    1
    32    24    19   ar
    33    31    26    1
    34    15    16    1
@<TRIPOS>MOLECULE
*****
 31 34 0 0 0
SMALL
GASTEIGER

@<TRIPOS>ATOM
      1 C           8.8993   -4.9007   22.3117 C.3     1  UNL1        0.0488
      2 C           9.1713   -3.7441   23.2274 C.3     1  UNL1        0.0212
      3 C           8.0914   -3.2373   24.1366 C.3     1  UNL1        0.0722
      4 C           4.4146   -1.3053   22.4049 C.3     1  UNL1        0.0087
      5 C           4.2933   -2.5739   23.1960 C.3     1  UNL1        0.0178
      6 C           5.5189   -3.2179   23.7732 C.3     1  UNL1        0.0721
      7 N           6.8658   -2.5932   23.5594 N.3     1  UNL1       -0.2727
      8 C           6.9871   -1.3246   22.7682 C.3     1  UNL1        0.0721
      9 C           5.7615   -0.6807   22.1910 C.3     1  UNL1        0.0178
     10 C           3.1890   -0.6613   21.8276 C.3     1  UNL1        0.0475
     11 C           0.5391    1.6697   23.4428 C.ar    1  UNL1        0.1747
     12 N           1.1601    1.0301   22.2365 N.ar    1  UNL1       -0.2285
     13 C           2.2928    0.1641   22.7024 C.ar    1  UNL1        0.0776
     14 C           2.3718    0.2685   24.1967 C.ar    1  UNL1        0.0885
     15 N           1.2880    1.1990   24.6543 N.ar    1  UNL1       -0.3340
     16 H           1.1010    1.4557   25.5862 H       1  UNL1        0.1675
     17 C           8.2415   -4.6675   20.9840 C.3     1  UNL1        0.2054
     18 O           6.7473   -4.7281   20.8664 O.3     1  UNL1       -0.4755
     19 C           6.0247   -3.7564   19.9811 C.ar    1  UNL1        0.1385
     20 C           4.5419   -3.8767   19.7887 C.ar    1  UNL1        0.0366
     21 C           3.8192   -2.9051   18.9035 C.ar    1  UNL1        0.0002
     22 C           4.5793   -1.8132   18.2107 C.ar    1  UNL1       -0.0059
     23 C           6.0620   -1.6929   18.4031 C.ar    1  UNL1        0.0002
     24 C           6.7847   -2.6645   19.2883 C.ar    1  UNL1        0.0366
     25 C           3.8566   -0.8415   17.3254 C.3     1  UNL1        0.0991
     26 N           3.2144    0.3779   17.9174 N.3     1  UNL1       -0.2690
     27 C           4.0512    1.5746   18.2605 C.3     1  UNL1        0.0724
     28 C           3.4090    2.7941   18.8525 C.3     1  UNL1        0.0174
     29 C           1.9299    2.8169   19.1014 C.3     1  UNL1        0.0029
     30 C           1.0931    1.6202   18.7583 C.3     1  UNL1        0.0174
     31 C           1.7354    0.4007   18.1663 C.3     1  UNL1        0.0724
@<TRIPOS>BOND
     1    11    12   ar
     2    12    13   ar
     3    13    10    1
     4    10     4    1
     5     4     5    1
     6     5     6    1
     7     6     7    1
     8     7     3    1
     9     3     2    1
    10     2     1    1
    11     1    17    1
    12    17    18    1
    13    18    19    1
    14    19    20   ar
    15    20    21   ar
    16    21    22   ar
    17    22    25    1
    18    25    26    1
    19    26    27    1
    20    27    28    1
    21    28    29    1
    22    29    30    1
    23    30    31    1
    24    22    23   ar
    25    23    24   ar
    26     7     8    1
    27     8     9    1
    28    13    14   ar
    29    14    15   ar
    30    15    11   ar
    31     9     4    1
    32    24    19   ar
    33    31    26    1
    34    15    16    1
@<TRIPOS>MOLECULE
*****
 31 34 0 0 0
SMALL
GASTEIGER

@<TRIPOS>ATOM
      1 C          -5.1932  -15.0729   26.3449 C.3     1  UNL1        0.0488
      2 C          -5.0480  -16.2664   25.4479 C.3     1  UNL1        0.0212
      3 C          -5.1731  -16.1073   23.9617 C.3     1  UNL1        0.0722
      4 C          -5.7799  -19.7247   21.3547 C.3     1  UNL1        0.0087
      5 C          -6.9555  -18.8844   21.7570 C.3     1  UNL1        0.0178
      6 C          -6.7532  -17.6787   22.6259 C.3     1  UNL1        0.0721
      7 N          -5.3753  -17.3132   23.0926 N.3     1  UNL1       -0.2727
      8 C          -4.1997  -18.1535   22.6904 C.3     1  UNL1        0.0721
      9 C          -4.4021  -19.3592   21.8214 C.3     1  UNL1        0.0178
     10 C          -5.9822  -20.9306   20.4857 C.3     1  UNL1        0.0475
     11 C          -8.6936  -21.7362   17.8278 C.ar    1  UNL1        0.1747
     12 N          -7.4851  -22.1260   18.6264 N.ar    1  UNL1       -0.2285
     13 C          -7.1267  -20.9735   19.5170 C.ar    1  UNL1        0.0776
     14 C          -8.1136  -19.8715   19.2689 C.ar    1  UNL1        0.0885
     15 N          -9.0821  -20.3428   18.2250 N.ar    1  UNL1       -0.3340
     16 H          -9.8396  -19.8281   17.8638 H       1  UNL1        0.1675
     17 C          -6.5379  -14.7145   26.9045 C.3     1  UNL1        0.2054
     18 O          -7.4779  -15.7958   27.3484 O.3     1  UNL1       -0.4755
     19 C          -8.4043  -16.4374   26.3583 C.ar    1  UNL1        0.1385
     20 C          -8.9773  -17.7951   26.6380 C.ar    1  UNL1        0.0366
     21 C          -9.9036  -18.4368   25.6480 C.ar    1  UNL1        0.0002
     22 C         -10.2569  -17.7207   24.3782 C.ar    1  UNL1       -0.0059
     23 C          -9.6838  -16.3630   24.0985 C.ar    1  UNL1        0.0002
     24 C          -8.7575  -15.7214   25.0885 C.ar    1  UNL1        0.0366
     25 C         -11.1832  -18.3623   23.3881 C.3     1  UNL1        0.0991
     26 N         -11.4478  -17.6984   22.0692 N.3     1  UNL1       -0.2690
     27 C         -12.4419  -16.5787   21.9793 C.3     1  UNL1        0.0724
     28 C         -12.7065  -15.9148   20.6605 C.3     1  UNL1        0.0174
     29 C         -11.9771  -16.3707   19.4316 C.3     1  UNL1        0.0029
     30 C         -10.9831  -17.4904   19.5216 C.3     1  UNL1        0.0174
     31 C         -10.7184  -18.1543   20.8404 C.3     1  UNL1        0.0724
@<TRIPOS>BOND
     1    11    12   ar
     2    12    13   ar
     3    13    10    1
     4    10     4    1
     5     4     5    1
     6     5     6    1
     7     6     7    1
     8     7     3    1
     9     3     2    1
    10     2     1    1
    11     1    17    1
    12    17    18    1
    13    18    19    1
    14    19    20   ar
    15    20    21   ar
    16    21    22   ar
    17    22    25    1
    18    25    26    1
    19    26    27    1
    20    27    28    1
    21    28    29    1
    22    29    30    1
    23    30    31    1
    24    22    23   ar
    25    23    24   ar
    26     7     8    1
    27     8     9    1
    28    13    14   ar
    29    14    15   ar
    30    15    11   ar
    31     9     4    1
    32    24    19   ar
    33    31    26    1
    34    15    16    1
