@<TRIPOS>MOLECULE
*****
 30 34 0 0 0
SMALL
GASTEIGER

@<TRIPOS>ATOM
      1 N         -12.8831   -4.7624   17.8986 N.ar    1  UNL1       -0.2954
      2 C         -12.4290   -3.5256   18.6155 C.ar    1  UNL1        0.2014
      3 N         -11.0682   -3.7943   19.1867 N.ar    1  UNL1       -0.2136
      4 C         -10.6814   -5.1971   18.8227 C.ar    1  UNL1        0.0999
      5 C          -9.4528   -6.0070   19.1134 C.ar    1  UNL1        0.0207
      6 C          -9.3458   -7.4152   18.6079 C.ar    1  UNL1        0.0016
      7 C         -10.4675   -8.0135   17.8118 C.ar    1  UNL1        0.0016
      8 C         -11.6962   -7.2037   17.5212 C.ar    1  UNL1        0.0188
      9 C         -11.8031   -5.7955   18.0266 C.ar    1  UNL1        0.0801
     10 N         -13.2001   -2.2450   18.7395 N.pl3   1  UNL1       -0.2794
     11 C         -12.6176   -0.9652   18.2174 C.3     1  UNL1        0.0955
     12 C         -13.3887    0.3154   18.3414 C.3     1  UNL1        0.0459
     13 C         -14.7424    0.3162   18.9876 C.3     1  UNL1        0.1086
     14 C         -15.3249   -0.9636   19.5097 C.3     1  UNL1        0.0459
     15 C         -14.5538   -2.2442   19.3857 C.3     1  UNL1        0.0955
     16 N         -15.5135    1.5968   19.1116 N.ar    1  UNL1       -0.2516
     17 C         -17.0038    1.7209   19.2288 C.ar    1  UNL1        0.0923
     18 C         -17.3411    3.1789   19.3298 C.ar    1  UNL1        0.0177
     19 C         -18.7184    3.7582   19.4623 C.3     1  UNL1        0.0343
     20 C         -16.0593    3.9561   19.2751 C.ar    1  UNL1        0.1174
     21 N         -14.9298    2.9783   19.1402 N.ar    1  UNL1       -0.1681
     22 C         -14.1882   -4.9358   17.1798 C.3     1  UNL1        0.1354
     23 C         -16.9262   -8.3349   18.2751 C.ar    1  UNL1        0.1387
     24 C         -16.4452   -7.3881   19.3345 C.ar    1  UNL1        0.0366
     25 C         -15.5325   -6.2551   18.9693 C.ar    1  UNL1        0.0007
     26 C         -15.1009   -6.0688   17.5448 C.ar    1  UNL1        0.0007
     27 C         -15.5820   -7.0156   16.4855 C.ar    1  UNL1        0.0007
     28 C         -16.4946   -8.1486   16.8507 C.ar    1  UNL1        0.0366
     29 C         -17.3540  -10.8838   18.5396 C.3     1  UNL1        0.2525
     30 O         -17.8389   -9.4679   18.6402 O.3     1  UNL1       -0.4714
@<TRIPOS>BOND
     1    29    30    1
     2    30    23    1
     3    23    24   ar
     4    24    25   ar
     5    25    26   ar
     6    26    22    1
     7    22     1    1
     8     1     2   ar
     9     2    10    1
    10    10    11    1
    11    11    12    1
    12    12    13    1
    13    13    16    1
    14    16    17   ar
    15    17    18   ar
    16    18    19    1
    17    18    20   ar
    18    20    21   ar
    19    13    14    1
    20    14    15    1
    21     2     3   ar
    22     3     4   ar
    23     4     5   ar
    24     5     6   ar
    25     6     7   ar
    26     7     8   ar
    27     8     9   ar
    28    26    27   ar
    29    27    28   ar
    30    28    23   ar
    31     9     1   ar
    32    15    10    1
    33     9     4   ar
    34    21    16   ar
@<TRIPOS>MOLECULE
*****
 30 34 0 0 0
SMALL
GASTEIGER

@<TRIPOS>ATOM
      1 N           6.1713   -2.2695   30.1871 N.ar    1  UNL1       -0.2954
      2 C           6.3014   -2.7421   31.6047 C.ar    1  UNL1        0.2014
      3 N           6.7397   -4.1764   31.5766 N.ar    1  UNL1       -0.2136
      4 C           6.8804   -4.5902   30.1417 C.ar    1  UNL1        0.0999
      5 C           7.2829   -5.8878   29.5062 C.ar    1  UNL1        0.0207
      6 C           7.3342   -6.0069   28.0118 C.ar    1  UNL1        0.0016
      7 C           6.9830   -4.8284   27.1530 C.ar    1  UNL1        0.0016
      8 C           6.5804   -3.5307   27.7885 C.ar    1  UNL1        0.0188
      9 C           6.5291   -3.4116   29.2829 C.ar    1  UNL1        0.0801
     10 N           6.0394   -1.9241   32.8344 N.pl3   1  UNL1       -0.2794
     11 C           4.7164   -2.0245   33.5341 C.3     1  UNL1        0.0955
     12 C           4.4544   -1.2065   34.7638 C.3     1  UNL1        0.0459
     13 C           5.5153   -0.2881   35.2938 C.3     1  UNL1        0.1086
     14 C           6.8382   -0.1877   34.5941 C.3     1  UNL1        0.0459
     15 C           7.1003   -1.0057   33.3644 C.3     1  UNL1        0.0955
     16 N           5.2532    0.5299   36.5236 N.ar    1  UNL1       -0.2516
     17 C           6.2569    1.3743   37.2513 C.ar    1  UNL1        0.0923
     18 C           5.5655    2.0134   38.4189 C.ar    1  UNL1        0.0177
     19 C           6.1946    2.9393   39.4173 C.3     1  UNL1        0.0343
     20 C           4.1344    1.5639   38.4129 C.ar    1  UNL1        0.1174
     21 N           3.9414    0.6471   37.2415 N.ar    1  UNL1       -0.1681
     22 C           5.7562   -0.8958   29.7502 C.3     1  UNL1        0.1354
     23 C           1.4006    0.2345   29.7162 C.ar    1  UNL1        0.1387
     24 C           2.2584    0.5896   30.8944 C.ar    1  UNL1        0.0366
     25 C           3.7103    0.2128   30.9057 C.ar    1  UNL1        0.0007
     26 C           4.3044   -0.5191   29.7389 C.ar    1  UNL1        0.0007
     27 C           3.4466   -0.8741   28.5607 C.ar    1  UNL1        0.0007
     28 C           1.9947   -0.4974   28.5494 C.ar    1  UNL1        0.0366
     29 C          -1.0225   -0.1706   28.8709 C.3     1  UNL1        0.2525
     30 O          -0.0512    0.6112   29.7049 O.3     1  UNL1       -0.4714
@<TRIPOS>BOND
     1    29    30    1
     2    30    23    1
     3    23    24   ar
     4    24    25   ar
     5    25    26   ar
     6    26    22    1
     7    22     1    1
     8     1     2   ar
     9     2    10    1
    10    10    11    1
    11    11    12    1
    12    12    13    1
    13    13    16    1
    14    16    17   ar
    15    17    18   ar
    16    18    19    1
    17    18    20   ar
    18    20    21   ar
    19    13    14    1
    20    14    15    1
    21     2     3   ar
    22     3     4   ar
    23     4     5   ar
    24     5     6   ar
    25     6     7   ar
    26     7     8   ar
    27     8     9   ar
    28    26    27   ar
    29    27    28   ar
    30    28    23   ar
    31     9     1   ar
    32    15    10    1
    33     9     4   ar
    34    21    16   ar
@<TRIPOS>MOLECULE
*****
 30 34 0 0 0
SMALL
GASTEIGER

@<TRIPOS>ATOM
      1 N         -15.2703   -0.2980   18.6288 N.ar    1  UNL1       -0.2954
      2 C         -16.0239   -1.3296   19.4150 C.ar    1  UNL1        0.2014
      3 N         -16.8481   -0.6161   20.4454 N.ar    1  UNL1       -0.2136
      4 C         -16.6039    0.8563   20.2961 C.ar    1  UNL1        0.0999
      5 C         -17.1435    2.0434   21.0374 C.ar    1  UNL1        0.0207
      6 C         -16.7080    3.4272   20.6559 C.ar    1  UNL1        0.0016
      7 C         -15.7329    3.6238   19.5332 C.ar    1  UNL1        0.0016
      8 C         -15.1933    2.4367   18.7919 C.ar    1  UNL1        0.0188
      9 C         -15.6288    1.0529   19.1733 C.ar    1  UNL1        0.0801
     10 N         -15.9638   -2.8139   19.2072 N.pl3   1  UNL1       -0.2794
     11 C         -15.0342   -3.6501   20.0358 C.3     1  UNL1        0.0955
     12 C         -14.9741   -5.1345   19.8280 C.3     1  UNL1        0.0459
     13 C         -15.8436   -5.7825   18.7917 C.3     1  UNL1        0.1086
     14 C         -16.7731   -4.9463   17.9632 C.3     1  UNL1        0.0459
     15 C         -16.8332   -3.4620   18.1709 C.3     1  UNL1        0.0955
     16 N         -15.7834   -7.2669   18.5840 N.ar    1  UNL1       -0.2516
     17 C         -16.9240   -8.2271   18.7484 C.ar    1  UNL1        0.0923
     18 C         -16.4177   -9.6053   18.4414 C.ar    1  UNL1        0.0177
     19 C         -17.2235  -10.8698   18.4815 C.3     1  UNL1        0.0343
     20 C         -14.9642   -9.4968   18.0871 C.ar    1  UNL1        0.1174
     21 N         -14.5722   -8.0516   18.1753 N.ar    1  UNL1       -0.1681
     22 C         -14.3244   -0.5696   17.4968 C.3     1  UNL1        0.1354
     23 C         -10.8210   -3.3277   18.1046 C.ar    1  UNL1        0.1387
     24 C         -10.8733   -2.0121   18.8233 C.ar    1  UNL1        0.0366
     25 C         -12.0411   -1.0928   18.6207 C.ar    1  UNL1        0.0007
     26 C         -13.1567   -1.4890   17.6994 C.ar    1  UNL1        0.0007
     27 C         -13.1043   -2.8046   16.9808 C.ar    1  UNL1        0.0007
     28 C         -11.9365   -3.7239   17.1834 C.ar    1  UNL1        0.0366
     29 C          -9.8293   -5.5262   19.0707 C.3     1  UNL1        0.2525
     30 O          -9.6532   -4.2470   18.3072 O.3     1  UNL1       -0.4714
@<TRIPOS>BOND
     1    29    30    1
     2    30    23    1
     3    23    24   ar
     4    24    25   ar
     5    25    26   ar
     6    26    22    1
     7    22     1    1
     8     1     2   ar
     9     2    10    1
    10    10    11    1
    11    11    12    1
    12    12    13    1
    13    13    16    1
    14    16    17   ar
    15    17    18   ar
    16    18    19    1
    17    18    20   ar
    18    20    21   ar
    19    13    14    1
    20    14    15    1
    21     2     3   ar
    22     3     4   ar
    23     4     5   ar
    24     5     6   ar
    25     6     7   ar
    26     7     8   ar
    27     8     9   ar
    28    26    27   ar
    29    27    28   ar
    30    28    23   ar
    31     9     1   ar
    32    15    10    1
    33     9     4   ar
    34    21    16   ar
@<TRIPOS>MOLECULE
*****
 30 34 0 0 0
SMALL
GASTEIGER

@<TRIPOS>ATOM
      1 N          -2.0215    3.5990   22.3890 N.ar    1  UNL1       -0.2954
      2 C          -1.9451    2.9826   21.0237 C.ar    1  UNL1        0.2014
      3 N          -3.3331    2.9389   20.4566 N.ar    1  UNL1       -0.2136
      4 C          -4.2673    3.5283   21.4715 C.ar    1  UNL1        0.0999
      5 C          -5.7513    3.7462   21.4623 C.ar    1  UNL1        0.0207
      6 C          -6.4247    4.3721   22.6476 C.ar    1  UNL1        0.0016
      7 C          -5.6140    4.7800   23.8419 C.ar    1  UNL1        0.0016
      8 C          -4.1300    4.5621   23.8510 C.ar    1  UNL1        0.0188
      9 C          -3.4566    3.9363   22.6658 C.ar    1  UNL1        0.0801
     10 N          -0.6995    2.4955   20.3446 N.pl3   1  UNL1       -0.2794
     11 C          -0.1003    3.2862   19.2196 C.3     1  UNL1        0.0955
     12 C           1.1453    2.7991   18.5406 C.3     1  UNL1        0.0459
     13 C           1.7918    1.5211   18.9865 C.3     1  UNL1        0.1086
     14 C           1.1926    0.7304   20.1115 C.3     1  UNL1        0.0459
     15 C          -0.0530    1.2175   20.7906 C.3     1  UNL1        0.0955
     16 N           3.0374    1.0340   18.3075 N.ar    1  UNL1       -0.2516
     17 C           4.3511    1.7558   18.2519 C.ar    1  UNL1        0.0923
     18 C           5.3137    0.9074   17.4748 C.ar    1  UNL1        0.0177
     19 C           6.7439    1.2458   17.1751 C.3     1  UNL1        0.0343
     20 C           4.5948   -0.3388   17.0502 C.ar    1  UNL1        0.1174
     21 N           3.1880   -0.2605   17.5648 N.ar    1  UNL1       -0.1681
     22 C          -0.8656    3.8365   23.3151 C.3     1  UNL1        0.1354
     23 C          -0.3702    1.2926   26.9938 C.ar    1  UNL1        0.1387
     24 C          -1.2572    2.5017   27.0320 C.ar    1  UNL1        0.0366
     25 C          -1.4223    3.3496   25.8057 C.ar    1  UNL1        0.0007
     26 C          -0.7005    2.9885   24.5413 C.ar    1  UNL1        0.0007
     27 C           0.1865    1.7794   24.5032 C.ar    1  UNL1        0.0007
     28 C           0.3516    0.9315   25.7295 C.ar    1  UNL1        0.0366
     29 C          -1.3278   -0.4385   28.6780 C.3     1  UNL1        0.2525
     30 O          -0.2051    0.4446   28.2201 O.3     1  UNL1       -0.4714
@<TRIPOS>BOND
     1    29    30    1
     2    30    23    1
     3    23    24   ar
     4    24    25   ar
     5    25    26   ar
     6    26    22    1
     7    22     1    1
     8     1     2   ar
     9     2    10    1
    10    10    11    1
    11    11    12    1
    12    12    13    1
    13    13    16    1
    14    16    17   ar
    15    17    18   ar
    16    18    19    1
    17    18    20   ar
    18    20    21   ar
    19    13    14    1
    20    14    15    1
    21     2     3   ar
    22     3     4   ar
    23     4     5   ar
    24     5     6   ar
    25     6     7   ar
    26     7     8   ar
    27     8     9   ar
    28    26    27   ar
    29    27    28   ar
    30    28    23   ar
    31     9     1   ar
    32    15    10    1
    33     9     4   ar
    34    21    16   ar
@<TRIPOS>MOLECULE
*****
 30 34 0 0 0
SMALL
GASTEIGER

@<TRIPOS>ATOM
      1 N         -15.5057   -5.9725   19.1924 N.ar    1  UNL1       -0.2954
      2 C         -16.1447   -4.9577   18.2914 C.ar    1  UNL1        0.2014
      3 N         -17.3618   -5.5839   17.6777 N.ar    1  UNL1       -0.2136
      4 C         -17.4750   -6.9857   18.1994 C.ar    1  UNL1        0.0999
      5 C         -18.4744   -8.0744   17.9430 C.ar    1  UNL1        0.0207
      6 C         -18.3267   -9.4034   18.6227 C.ar    1  UNL1        0.0016
      7 C         -17.1795   -9.6436   19.5588 C.ar    1  UNL1        0.0016
      8 C         -16.1801   -8.5548   19.8152 C.ar    1  UNL1        0.0188
      9 C         -16.3279   -7.2259   19.1355 C.ar    1  UNL1        0.0801
     10 N         -15.6530   -3.5618   18.0470 N.pl3   1  UNL1       -0.2794
     11 C         -15.8597   -2.5010   19.0871 C.3     1  UNL1        0.0955
     12 C         -15.3680   -1.1051   18.8428 C.3     1  UNL1        0.0459
     13 C         -14.6696   -0.7701   17.5583 C.3     1  UNL1        0.1086
     14 C         -14.4629   -1.8309   16.5182 C.3     1  UNL1        0.0459
     15 C         -14.9546   -3.2268   16.7626 C.3     1  UNL1        0.0955
     16 N         -14.1779    0.6258   17.3139 N.ar    1  UNL1       -0.2516
     17 C         -14.9249    1.8900   17.6201 C.ar    1  UNL1        0.0923
     18 C         -14.0615    3.0481   17.2159 C.ar    1  UNL1        0.0177
     19 C         -14.4165    4.4998   17.3450 C.3     1  UNL1        0.0343
     20 C         -12.7809    2.4997   16.6598 C.ar    1  UNL1        0.1174
     21 N         -12.8528    1.0026   16.7204 N.ar    1  UNL1       -0.1681
     22 C         -14.2628   -5.7697   20.0072 C.3     1  UNL1        0.1354
     23 C         -10.3241   -5.0354   17.9585 C.ar    1  UNL1        0.1387
     24 C         -10.9118   -6.4153   17.9813 C.ar    1  UNL1        0.0366
     25 C         -12.2247   -6.6600   18.6642 C.ar    1  UNL1        0.0007
     26 C         -12.9499   -5.5249   19.3243 C.ar    1  UNL1        0.0007
     27 C         -12.3621   -4.1451   19.3015 C.ar    1  UNL1        0.0007
     28 C         -11.0492   -3.9003   18.6185 C.ar    1  UNL1        0.0366
     29 C          -8.9201   -3.7899   16.1618 C.3     1  UNL1        0.2525
     30 O          -9.0112   -4.7907   17.2756 O.3     1  UNL1       -0.4714
@<TRIPOS>BOND
     1    29    30    1
     2    30    23    1
     3    23    24   ar
     4    24    25   ar
     5    25    26   ar
     6    26    22    1
     7    22     1    1
     8     1     2   ar
     9     2    10    1
    10    10    11    1
    11    11    12    1
    12    12    13    1
    13    13    16    1
    14    16    17   ar
    15    17    18   ar
    16    18    19    1
    17    18    20   ar
    18    20    21   ar
    19    13    14    1
    20    14    15    1
    21     2     3   ar
    22     3     4   ar
    23     4     5   ar
    24     5     6   ar
    25     6     7   ar
    26     7     8   ar
    27     8     9   ar
    28    26    27   ar
    29    27    28   ar
    30    28    23   ar
    31     9     1   ar
    32    15    10    1
    33     9     4   ar
    34    21    16   ar
@<TRIPOS>MOLECULE
*****
 30 34 0 0 0
SMALL
GASTEIGER

@<TRIPOS>ATOM
      1 N           5.2142   -1.7029   20.4409 N.ar    1  UNL1       -0.2954
      2 C           6.5037   -1.9711   21.1587 C.ar    1  UNL1        0.2014
      3 N           7.6143   -1.3507   20.3639 N.ar    1  UNL1       -0.2136
      4 C           7.0112   -0.6990   19.1549 C.ar    1  UNL1        0.0999
      5 C           7.6211    0.0644   18.0169 C.ar    1  UNL1        0.0207
      6 C           6.7476    0.6102   16.9264 C.ar    1  UNL1        0.0016
      7 C           5.2642    0.3925   16.9740 C.ar    1  UNL1        0.0016
      8 C           4.6543   -0.3710   18.1121 C.ar    1  UNL1        0.0188
      9 C           5.5278   -0.9167   19.2025 C.ar    1  UNL1        0.0801
     10 N           6.6559   -2.7269   22.4453 N.pl3   1  UNL1       -0.2794
     11 C           6.2076   -2.1083   23.7362 C.3     1  UNL1        0.0955
     12 C           6.3598   -2.8642   25.0228 C.3     1  UNL1        0.0459
     13 C           6.9603   -4.2387   25.0187 C.3     1  UNL1        0.1086
     14 C           7.4087   -4.8573   23.7278 C.3     1  UNL1        0.0459
     15 C           7.2565   -4.1014   22.4412 C.3     1  UNL1        0.0955
     16 N           7.1125   -4.9946   26.3053 N.ar    1  UNL1       -0.2516
     17 C           6.7232   -4.5032   27.6680 C.ar    1  UNL1        0.0923
     18 C           7.0508   -5.5795   28.6601 C.ar    1  UNL1        0.0177
     19 C           6.8260   -5.5111   30.1415 C.3     1  UNL1        0.0343
     20 C           7.6427   -6.7361   27.9105 C.ar    1  UNL1        0.1174
     21 N           7.6809   -6.3746   26.4552 N.ar    1  UNL1       -0.1681
     22 C           3.8505   -2.1435   20.8837 C.3     1  UNL1        0.1354
     23 C           0.5913    0.8985   21.4954 C.ar    1  UNL1        0.1387
     24 C           1.7102    0.7882   22.4883 C.ar    1  UNL1        0.0366
     25 C           2.7966   -0.2258   22.2844 C.ar    1  UNL1        0.0007
     26 C           2.7641   -1.1295   21.0876 C.ar    1  UNL1        0.0007
     27 C           1.6452   -1.0192   20.0947 C.ar    1  UNL1        0.0007
     28 C           0.5588   -0.0052   20.2987 C.ar    1  UNL1        0.0366
     29 C          -0.9341    2.7812   20.5579 C.3     1  UNL1        0.2525
     30 O          -0.4951    1.9124   21.6993 O.3     1  UNL1       -0.4714
@<TRIPOS>BOND
     1    29    30    1
     2    30    23    1
     3    23    24   ar
     4    24    25   ar
     5    25    26   ar
     6    26    22    1
     7    22     1    1
     8     1     2   ar
     9     2    10    1
    10    10    11    1
    11    11    12    1
    12    12    13    1
    13    13    16    1
    14    16    17   ar
    15    17    18   ar
    16    18    19    1
    17    18    20   ar
    18    20    21   ar
    19    13    14    1
    20    14    15    1
    21     2     3   ar
    22     3     4   ar
    23     4     5   ar
    24     5     6   ar
    25     6     7   ar
    26     7     8   ar
    27     8     9   ar
    28    26    27   ar
    29    27    28   ar
    30    28    23   ar
    31     9     1   ar
    32    15    10    1
    33     9     4   ar
    34    21    16   ar
@<TRIPOS>MOLECULE
*****
 30 34 0 0 0
SMALL
GASTEIGER

@<TRIPOS>ATOM
      1 N           2.5506    1.1400   19.1532 N.ar    1  UNL1       -0.2954
      2 C           1.9680    2.4853   19.4707 C.ar    1  UNL1        0.2014
      3 N           2.8821    3.5315   18.9050 N.ar    1  UNL1       -0.2136
      4 C           4.0296    2.8328   18.2379 C.ar    1  UNL1        0.0999
      5 C           5.2346    3.3515   17.5106 C.ar    1  UNL1        0.0207
      6 C           6.2347    2.3921   16.9368 C.ar    1  UNL1        0.0016
      7 C           6.0299    0.9141   17.0902 C.ar    1  UNL1        0.0016
      8 C           4.8249    0.3954   17.8175 C.ar    1  UNL1        0.0188
      9 C           3.8248    1.3548   18.3913 C.ar    1  UNL1        0.0801
     10 N           0.6948    2.7397   20.2219 N.pl3   1  UNL1       -0.2794
     11 C           0.6944    2.7305   21.7218 C.3     1  UNL1        0.0955
     12 C          -0.5787    2.9849   22.4731 C.3     1  UNL1        0.0459
     13 C          -1.8515    3.2486   21.7244 C.3     1  UNL1        0.1086
     14 C          -1.8510    3.2578   20.2244 C.3     1  UNL1        0.0459
     15 C          -0.5779    3.0034   19.4732 C.3     1  UNL1        0.0955
     16 N          -3.1246    3.5030   22.4756 N.ar    1  UNL1       -0.2516
     17 C          -4.4744    3.7434   21.8671 C.ar    1  UNL1        0.0923
     18 C          -5.4555    3.9507   22.9827 C.ar    1  UNL1        0.0177
     19 C          -6.9225    4.2225   22.8275 C.3     1  UNL1        0.0343
     20 C          -4.7121    3.8384   24.2806 C.ar    1  UNL1        0.1174
     21 N          -3.2715    3.5617   23.9672 N.ar    1  UNL1       -0.1681
     22 C           1.9624   -0.1870   19.5313 C.3     1  UNL1        0.1354
     23 C           4.4836   -3.2379   21.6727 C.ar    1  UNL1        0.1387
     24 C           4.1252   -3.4403   20.2302 C.ar    1  UNL1        0.0366
     25 C           3.2848   -2.4233   19.5165 C.ar    1  UNL1        0.0007
     26 C           2.8028   -1.2039   20.2451 C.ar    1  UNL1        0.0007
     27 C           3.1612   -1.0016   21.6875 C.ar    1  UNL1        0.0007
     28 C           4.0016   -2.0186   22.4013 C.ar    1  UNL1        0.0366
     29 C           6.1998   -3.8351   23.5296 C.3     1  UNL1        0.2525
     30 O           5.3239   -4.2549   22.3865 O.3     1  UNL1       -0.4714
@<TRIPOS>BOND
     1    29    30    1
     2    30    23    1
     3    23    24   ar
     4    24    25   ar
     5    25    26   ar
     6    26    22    1
     7    22     1    1
     8     1     2   ar
     9     2    10    1
    10    10    11    1
    11    11    12    1
    12    12    13    1
    13    13    16    1
    14    16    17   ar
    15    17    18   ar
    16    18    19    1
    17    18    20   ar
    18    20    21   ar
    19    13    14    1
    20    14    15    1
    21     2     3   ar
    22     3     4   ar
    23     4     5   ar
    24     5     6   ar
    25     6     7   ar
    26     7     8   ar
    27     8     9   ar
    28    26    27   ar
    29    27    28   ar
    30    28    23   ar
    31     9     1   ar
    32    15    10    1
    33     9     4   ar
    34    21    16   ar
@<TRIPOS>MOLECULE
*****
 30 34 0 0 0
SMALL
GASTEIGER

@<TRIPOS>ATOM
      1 N          -0.1939    2.5524   20.2139 N.ar    1  UNL1       -0.2954
      2 C          -0.0996    3.3059   21.5074 C.ar    1  UNL1        0.2014
      3 N          -0.1442    4.7721   21.1940 N.ar    1  UNL1       -0.2136
      4 C          -0.2662    4.9247   19.7068 C.ar    1  UNL1        0.0999
      5 C          -0.3533    6.1356   18.8259 C.ar    1  UNL1        0.0207
      6 C          -0.4711    5.9747   17.3392 C.ar    1  UNL1        0.0016
      7 C          -0.5018    4.6028   16.7335 C.ar    1  UNL1        0.0016
      8 C          -0.4147    3.3918   17.6144 C.ar    1  UNL1        0.0188
      9 C          -0.2969    3.5528   19.1010 C.ar    1  UNL1        0.0801
     10 N           0.0187    2.6997   22.8744 N.pl3   1  UNL1       -0.2794
     11 C           1.1013    1.7019   23.1612 C.3     1  UNL1        0.0955
     12 C           1.2196    1.0957   24.5281 C.3     1  UNL1        0.0459
     13 C           0.2553    1.4873   25.6083 C.3     1  UNL1        0.1086
     14 C          -0.8272    2.4851   25.3215 C.3     1  UNL1        0.0459
     15 C          -0.9455    3.0913   23.9545 C.3     1  UNL1        0.0955
     16 N           0.3736    0.8811   26.9752 N.ar    1  UNL1       -0.2516
     17 C           1.6528    0.5742   27.6959 C.ar    1  UNL1        0.0923
     18 C           1.3033   -0.0213   29.0276 C.ar    1  UNL1        0.0177
     19 C           2.2779   -0.4758   30.0733 C.3     1  UNL1        0.0343
     20 C          -0.1920   -0.0823   29.1299 C.ar    1  UNL1        0.1174
     21 N          -0.7665    0.4753   27.8615 N.ar    1  UNL1       -0.1681
     22 C          -0.1866    1.0603   20.0602 C.3     1  UNL1        0.1354
     23 C           3.5672   -1.0487   18.7520 C.ar    1  UNL1        0.1387
     24 C           2.8428   -1.5024   19.9847 C.ar    1  UNL1        0.0366
     25 C           1.5916   -0.7993   20.4208 C.ar    1  UNL1        0.0007
     26 C           1.0646    0.3573   19.6241 C.ar    1  UNL1        0.0007
     27 C           1.7890    0.8109   18.3915 C.ar    1  UNL1        0.0007
     28 C           3.0403    0.1079   17.9554 C.ar    1  UNL1        0.0366
     29 C           4.9789   -3.2219   18.5668 C.3     1  UNL1        0.2525
     30 O           4.8185   -1.7517   18.3160 O.3     1  UNL1       -0.4714
@<TRIPOS>BOND
     1    29    30    1
     2    30    23    1
     3    23    24   ar
     4    24    25   ar
     5    25    26   ar
     6    26    22    1
     7    22     1    1
     8     1     2   ar
     9     2    10    1
    10    10    11    1
    11    11    12    1
    12    12    13    1
    13    13    16    1
    14    16    17   ar
    15    17    18   ar
    16    18    19    1
    17    18    20   ar
    18    20    21   ar
    19    13    14    1
    20    14    15    1
    21     2     3   ar
    22     3     4   ar
    23     4     5   ar
    24     5     6   ar
    25     6     7   ar
    26     7     8   ar
    27     8     9   ar
    28    26    27   ar
    29    27    28   ar
    30    28    23   ar
    31     9     1   ar
    32    15    10    1
    33     9     4   ar
    34    21    16   ar
@<TRIPOS>MOLECULE
*****
 30 34 0 0 0
SMALL
GASTEIGER

@<TRIPOS>ATOM
      1 N         -15.7420   -6.4967   18.9070 N.ar    1  UNL1       -0.2954
      2 C         -16.6578   -5.4263   18.3917 C.ar    1  UNL1        0.2014
      3 N         -17.8896   -6.0905   17.8518 N.ar    1  UNL1       -0.2136
      4 C         -17.7352   -7.5714   18.0335 C.ar    1  UNL1        0.0999
      5 C         -18.6316   -8.7238   17.6894 C.ar    1  UNL1        0.0207
      6 C         -18.2008  -10.1271   17.9975 C.ar    1  UNL1        0.0016
      7 C         -16.8735  -10.3782   18.6496 C.ar    1  UNL1        0.0016
      8 C         -15.9771   -9.2259   18.9937 C.ar    1  UNL1        0.0188
      9 C         -16.4079   -7.8225   18.6857 C.ar    1  UNL1        0.0801
     10 N         -16.3889   -3.9507   18.4125 N.pl3   1  UNL1       -0.2794
     11 C         -16.6833   -3.1521   19.6476 C.3     1  UNL1        0.0955
     12 C         -16.4144   -1.6765   19.6684 C.3     1  UNL1        0.0459
     13 C         -15.8512   -0.9996   18.4542 C.3     1  UNL1        0.1086
     14 C         -15.5568   -1.7982   17.2191 C.3     1  UNL1        0.0459
     15 C         -15.8257   -3.2738   17.1982 C.3     1  UNL1        0.0955
     16 N         -15.5824    0.4760   18.4750 N.ar    1  UNL1       -0.2516
     17 C         -15.9297    1.4199   19.5878 C.ar    1  UNL1        0.0923
     18 C         -15.4810    2.7940   19.1873 C.ar    1  UNL1        0.0177
     19 C         -15.6307    4.0433   20.0038 C.3     1  UNL1        0.0343
     20 C         -14.8563    2.6993   17.8269 C.ar    1  UNL1        0.1174
     21 N         -14.9189    1.2668   17.3867 N.ar    1  UNL1       -0.1681
     22 C         -14.3966   -6.2795   19.5337 C.3     1  UNL1        0.1354
     23 C         -11.5104   -3.3493   17.7079 C.ar    1  UNL1        0.1387
     24 C         -12.1249   -3.0622   19.0458 C.ar    1  UNL1        0.0366
     25 C         -13.0870   -4.0389   19.6543 C.ar    1  UNL1        0.0007
     26 C         -13.4346   -5.3029   18.9251 C.ar    1  UNL1        0.0007
     27 C         -12.8200   -5.5899   17.5872 C.ar    1  UNL1        0.0007
     28 C         -11.8580   -4.6132   16.9786 C.ar    1  UNL1        0.0366
     29 C         -10.7319   -0.9006   17.3229 C.3     1  UNL1        0.2525
     30 O         -10.5484   -2.3726   17.0993 O.3     1  UNL1       -0.4714
@<TRIPOS>BOND
     1    29    30    1
     2    30    23    1
     3    23    24   ar
     4    24    25   ar
     5    25    26   ar
     6    26    22    1
     7    22     1    1
     8     1     2   ar
     9     2    10    1
    10    10    11    1
    11    11    12    1
    12    12    13    1
    13    13    16    1
    14    16    17   ar
    15    17    18   ar
    16    18    19    1
    17    18    20   ar
    18    20    21   ar
    19    13    14    1
    20    14    15    1
    21     2     3   ar
    22     3     4   ar
    23     4     5   ar
    24     5     6   ar
    25     6     7   ar
    26     7     8   ar
    27     8     9   ar
    28    26    27   ar
    29    27    28   ar
    30    28    23   ar
    31     9     1   ar
    32    15    10    1
    33     9     4   ar
    34    21    16   ar
