@<TRIPOS>MOLECULE
*****
 50 53 0 0 0
SMALL
GASTEIGER

@<TRIPOS>ATOM
      1 C           2.5921    0.5725   24.3680 C.3     1  UNL1        0.0942
      2 C           1.2587    1.3482   26.4585 C.2     1  UNL1        0.2404
      3 O           2.4249    2.1865   26.8912 O.2     1  UNL1       -0.2733
      4 N           1.3423    0.5411   25.1969 N.am    1  UNL1       -0.3027
      5 H           0.5769   -0.0091   24.9128 H       1  UNL1        0.1495
      6 C           0.0089    1.3169   27.2874 C.3     1  UNL1        0.1496
      7 N          -2.2135    4.5989   27.0886 N.am    1  UNL1       -0.2567
      8 C          -2.1632    6.0309   27.5323 C.3     1  UNL1        0.1168
      9 C          -1.0772    3.6739   27.4098 C.2     1  UNL1        0.3046
     10 O           0.1094    4.1809   28.1747 O.2     1  UNL1       -0.2526
     11 N          -1.1274    2.2419   26.9662 N.am    1  UNL1       -0.2824
     12 H          -1.9062    1.9091   26.4642 H       1  UNL1        0.1514
     13 C          -3.4001    4.0919   26.3238 C.3     1  UNL1        0.1413
     14 C          -3.1454    4.0178   22.4515 C.ar    1  UNL1        0.0875
     15 N          -2.7913    3.4612   23.7986 N.ar    1  UNL1       -0.2453
     16 C          -3.4782    4.2945   24.8396 C.ar    1  UNL1        0.0858
     17 C          -4.2568    5.3662   24.1359 C.ar    1  UNL1        0.0530
     18 S          -4.0512    5.1952   22.6599 S.2     1  UNL1       -0.0705
     19 C          -1.2681    2.9961   20.9743 C.3     1  UNL1        0.0069
     20 C          -2.6762    3.4897   21.1282 C.3     1  UNL1        0.0465
     21 C          -3.6151    3.4553   19.9589 C.3     1  UNL1        0.0069
     22 C          -0.1045    0.3607   28.4375 C.3     1  UNL1        0.0270
     23 C          -1.4247   -0.2762   28.7559 C.3     1  UNL1        0.0022
     24 C           1.1023    0.0413   29.2691 C.3     1  UNL1        0.0022
     25 C           2.7144    1.5441   23.2318 C.3     1  UNL1        0.0476
     26 C           2.2845    1.1424   21.8519 C.ar    1  UNL1       -0.0205
     27 C           3.0463    1.6328   20.6565 C.ar    1  UNL1       -0.0042
     28 C           2.6164    1.2312   19.2767 C.ar    1  UNL1       -0.0003
     29 C           1.4247    0.3391   19.0923 C.ar    1  UNL1       -0.0000
     30 C           0.6629   -0.1514   20.2877 C.ar    1  UNL1       -0.0003
     31 C           1.0928    0.2503   21.6675 C.ar    1  UNL1       -0.0042
     32 C           3.7197   -0.3679   24.6753 C.3     1  UNL1        0.0973
     33 N           4.6648   -0.0635   25.7997 N.am    1  UNL1       -0.2703
     34 C           4.4854   -0.7301   27.1315 C.2     1  UNL1        0.4020
     35 O           3.3610   -1.7010   27.3389 O.2     1  UNL1       -0.2264
     36 H           5.4027    0.5738   25.6636 H       1  UNL1        0.1527
     37 O           5.4305   -0.4257   28.2559 O.3     1  UNL1       -0.4291
     38 C           4.8972    0.0363   29.5796 C.3     1  UNL1        0.2447
     39 C           4.8213   -0.9202   30.7326 C.ar    1  UNL1        0.0714
     40 C           3.6675   -1.0699   31.6794 C.ar    1  UNL1        0.1053
     41 N           4.0189   -2.1371   32.6732 N.ar    1  UNL1       -0.2350
     42 C           5.3898   -2.6469   32.3407 C.ar    1  UNL1        0.1343
     43 S           5.8857   -1.8948   31.1413 S.2     1  UNL1       -0.0652
     44 C           3.9022   -1.6125   23.8584 C.3     1  UNL1        0.0477
     45 C           4.3836   -1.5155   22.4411 C.ar    1  UNL1       -0.0205
     46 C           3.6679   -2.2601   21.3532 C.ar    1  UNL1       -0.0042
     47 C           4.1494   -2.1631   19.9359 C.ar    1  UNL1       -0.0003
     48 C           5.3464   -1.3213   19.6064 C.ar    1  UNL1       -0.0000
     49 C           6.0620   -0.5767   20.6942 C.ar    1  UNL1       -0.0003
     50 C           5.5806   -0.6737   22.1116 C.ar    1  UNL1       -0.0042
@<TRIPOS>BOND
     1    19    20    1
     2    20    21    1
     3    20    14    1
     4    14    15   ar
     5    15    16   ar
     6    16    13    1
     7    13     7    1
     8     7     8    1
     9     7     9   am
    10     9    10    2
    11     9    11   am
    12     6    11    1
    13     6     2    1
    14     2     3    2
    15     2     4   am
    16     4     1    1
    17     1    25    1
    18    25    26    1
    19    26    27   ar
    20    27    28   ar
    21    28    29   ar
    22    29    30   ar
    23    30    31   ar
    24     1    32    1
    25    32    44    1
    26    44    45    1
    27    45    46   ar
    28    46    47   ar
    29    47    48   ar
    30    48    49   ar
    31    49    50   ar
    32    32    33    1
    33    33    34   am
    34    34    35    2
    35    34    37    1
    36    37    38    1
    37    38    39    1
    38    39    40   ar
    39    40    41   ar
    40    41    42   ar
    41    42    43   ar
    42     6    22    1
    43    22    23    1
    44    22    24    1
    45    16    17   ar
    46    17    18   ar
    47    18    14   ar
    48    31    26   ar
    49    50    45   ar
    50    43    39   ar
    51    11    12    1
    52     4     5    1
    53    33    36    1
@<TRIPOS>MOLECULE
*****
 50 53 0 0 0
SMALL
GASTEIGER

@<TRIPOS>ATOM
      1 C           5.3251   -1.9868   23.9310 C.3     1  UNL1        0.0942
      2 C           6.6076   -2.8372   26.0244 C.2     1  UNL1        0.2404
      3 O           7.3339   -1.5277   26.1114 O.2     1  UNL1       -0.2733
      4 N           5.6031   -3.0668   24.9342 N.am    1  UNL1       -0.3027
      5 H           5.1264   -3.9263   24.8771 H       1  UNL1        0.1495
      6 C           6.8856   -3.9171   27.0276 C.3     1  UNL1        0.1496
      7 N           7.5149   -2.9046   30.8130 N.am    1  UNL1       -0.2567
      8 C           8.6274   -2.3948   31.6804 C.3     1  UNL1        0.1168
      9 C           7.7565   -3.1559   29.3541 C.2     1  UNL1        0.3046
     10 O           9.1105   -2.8975   28.7626 O.2     1  UNL1       -0.2526
     11 N           6.6440   -3.6657   28.4866 N.am    1  UNL1       -0.2824
     12 H           5.7553   -3.8354   28.8748 H       1  UNL1        0.1514
     13 C           6.1608   -3.1630   31.4045 C.3     1  UNL1        0.1413
     14 C           4.5394   -0.4140   33.6134 C.ar    1  UNL1        0.0875
     15 N           5.4979   -1.5537   33.4331 N.ar    1  UNL1       -0.2453
     16 C           5.3829   -2.0366   32.0177 C.ar    1  UNL1        0.0858
     17 C           4.3534   -1.1955   31.3231 C.ar    1  UNL1        0.0530
     18 S           3.8320   -0.1926   32.3093 S.2     1  UNL1       -0.0705
     19 C           4.8363   -0.1647   36.1824 C.3     1  UNL1        0.0069
     20 C           4.3258    0.3671   34.8760 C.3     1  UNL1        0.0465
     21 C           3.6018    1.6801   34.8322 C.3     1  UNL1        0.0069
     22 C           7.4052   -5.2484   26.5719 C.3     1  UNL1        0.0270
     23 C           8.7066   -5.3318   25.8307 C.3     1  UNL1        0.0022
     24 C           6.6234   -6.4962   26.8575 C.3     1  UNL1        0.0022
     25 C           6.1055   -1.9331   22.6511 C.3     1  UNL1        0.0476
     26 C           5.5655   -2.5899   21.4153 C.ar    1  UNL1       -0.0205
     27 C           5.9278   -2.0543   20.0620 C.ar    1  UNL1       -0.0042
     28 C           5.3879   -2.7111   18.8263 C.ar    1  UNL1       -0.0003
     29 C           4.4856   -3.9035   18.9439 C.ar    1  UNL1       -0.0000
     30 C           4.1232   -4.4392   20.2973 C.ar    1  UNL1       -0.0003
     31 C           4.6632   -3.7824   21.5330 C.ar    1  UNL1       -0.0042
     32 C           4.2667   -0.9605   24.2077 C.3     1  UNL1        0.0973
     33 N           4.4443    0.0156   25.3328 N.am    1  UNL1       -0.2703
     34 C           4.0709   -0.3763   26.7317 C.2     1  UNL1        0.4020
     35 O           3.5199   -1.7443   27.0056 O.2     1  UNL1       -0.2264
     36 H           4.8060    0.9134   25.1530 H       1  UNL1        0.1527
     37 O           4.2486    0.5998   27.8568 O.3     1  UNL1       -0.4291
     38 C           3.1344    1.5358   28.2206 C.3     1  UNL1        0.2447
     39 C           1.7423    1.0087   28.4053 C.ar    1  UNL1        0.0714
     40 C           1.3329   -0.0924   29.3380 C.ar    1  UNL1        0.1053
     41 N          -0.1473   -0.2914   29.1988 N.ar    1  UNL1       -0.2350
     42 C          -0.6528    0.6867   28.1801 C.ar    1  UNL1        0.1343
     43 S           0.5151    1.4902   27.6897 S.2     1  UNL1       -0.0652
     44 C           3.0306   -0.9104   23.3595 C.3     1  UNL1        0.0477
     45 C           3.1027   -0.3759   21.9598 C.ar    1  UNL1       -0.0205
     46 C           2.3266   -1.0411   20.8620 C.ar    1  UNL1       -0.0042
     47 C           2.3988   -0.5066   19.4623 C.ar    1  UNL1       -0.0003
     48 C           3.2470    0.6931   19.1605 C.ar    1  UNL1       -0.0000
     49 C           4.0231    1.3584   20.2582 C.ar    1  UNL1       -0.0003
     50 C           3.9510    0.8239   21.6580 C.ar    1  UNL1       -0.0042
@<TRIPOS>BOND
     1    19    20    1
     2    20    21    1
     3    20    14    1
     4    14    15   ar
     5    15    16   ar
     6    16    13    1
     7    13     7    1
     8     7     8    1
     9     7     9   am
    10     9    10    2
    11     9    11   am
    12     6    11    1
    13     6     2    1
    14     2     3    2
    15     2     4   am
    16     4     1    1
    17     1    25    1
    18    25    26    1
    19    26    27   ar
    20    27    28   ar
    21    28    29   ar
    22    29    30   ar
    23    30    31   ar
    24     1    32    1
    25    32    44    1
    26    44    45    1
    27    45    46   ar
    28    46    47   ar
    29    47    48   ar
    30    48    49   ar
    31    49    50   ar
    32    32    33    1
    33    33    34   am
    34    34    35    2
    35    34    37    1
    36    37    38    1
    37    38    39    1
    38    39    40   ar
    39    40    41   ar
    40    41    42   ar
    41    42    43   ar
    42     6    22    1
    43    22    23    1
    44    22    24    1
    45    16    17   ar
    46    17    18   ar
    47    18    14   ar
    48    31    26   ar
    49    50    45   ar
    50    43    39   ar
    51    11    12    1
    52     4     5    1
    53    33    36    1
@<TRIPOS>MOLECULE
*****
 50 53 0 0 0
SMALL
GASTEIGER

@<TRIPOS>ATOM
      1 C           2.3953    0.0156   20.2772 C.3     1  UNL1        0.0942
      2 C           1.2185    0.7628   22.4697 C.2     1  UNL1        0.2404
      3 O          -0.0996    0.7861   21.7543 O.2     1  UNL1       -0.2733
      4 N           2.4660    0.3776   21.7312 N.am    1  UNL1       -0.3027
      5 H           3.3312    0.3623   22.2007 H       1  UNL1        0.1495
      6 C           1.2893    1.1248   23.9237 C.3     1  UNL1        0.1496
      7 N           4.5546   -0.2024   25.7475 N.am    1  UNL1       -0.2567
      8 C           6.0374    0.0230   25.7240 C.3     1  UNL1        0.1168
      9 C           3.6634    0.5739   24.8239 C.2     1  UNL1        0.3046
     10 O           4.2549    1.5755   23.8768 O.2     1  UNL1       -0.2526
     11 N           2.1806    0.3485   24.8473 N.am    1  UNL1       -0.2824
     12 H           1.7923   -0.3089   25.4689 H       1  UNL1        0.1514
     13 C           3.9631   -1.2040   26.6946 C.3     1  UNL1        0.1413
     14 C           1.4479    0.2237   29.2831 C.ar    1  UNL1        0.0875
     15 N           1.8462   -0.0684   27.8668 N.ar    1  UNL1       -0.2453
     16 C           3.1883   -0.7380   27.8914 C.ar    1  UNL1        0.0858
     17 C           3.6194   -0.8597   29.3229 C.ar    1  UNL1        0.0530
     18 S           2.5439   -0.2654   30.1831 S.2     1  UNL1       -0.0705
     19 C          -1.1353    0.4588   29.1361 C.3     1  UNL1        0.0069
     20 C           0.1769    0.8881   29.7224 C.3     1  UNL1        0.0465
     21 C           0.2181    1.9819   30.7481 C.3     1  UNL1        0.0069
     22 C           0.4688    2.2630   24.4540 C.3     1  UNL1        0.0270
     23 C          -0.4533    2.0449   25.6168 C.3     1  UNL1        0.0022
     24 C           0.5705    3.6193   23.8215 C.3     1  UNL1        0.0022
     25 C           2.2678   -1.4217   19.8675 C.3     1  UNL1        0.0476
     26 C           3.4583   -2.3313   19.9421 C.ar    1  UNL1       -0.0205
     27 C           3.6226   -3.4353   18.9401 C.ar    1  UNL1       -0.0042
     28 C           4.8131   -4.3448   19.0148 C.ar    1  UNL1       -0.0003
     29 C           5.8392   -4.1503   20.0914 C.ar    1  UNL1       -0.0000
     30 C           5.6749   -3.0463   21.0935 C.ar    1  UNL1       -0.0003
     31 C           4.4845   -2.1368   21.0188 C.ar    1  UNL1       -0.0042
     32 C           2.4520    1.0910   19.2330 C.3     1  UNL1        0.0973
     33 N           1.4441    2.2018   19.2449 N.am    1  UNL1       -0.2703
     34 C           1.6745    3.4145   20.0973 C.2     1  UNL1        0.4020
     35 O           2.9127    3.5162   20.9377 O.2     1  UNL1       -0.2264
     36 H           0.6314    2.1350   18.6933 H       1  UNL1        0.1527
     37 O           0.6666    4.5253   20.1093 O.3     1  UNL1       -0.4291
     38 C          -0.4649    4.5220   19.1246 C.3     1  UNL1        0.2447
     39 C          -1.8223    4.0402   19.5435 C.ar    1  UNL1        0.0714
     40 C          -2.1381    3.2692   20.7908 C.ar    1  UNL1        0.1053
     41 N          -3.6131    2.9974   20.8069 N.ar    1  UNL1       -0.2350
     42 C          -4.2091    3.6004   19.5694 C.ar    1  UNL1        0.1343
     43 S          -3.1023    4.2449   18.7887 S.2     1  UNL1       -0.0652
     44 C           3.5166    1.0555   18.1769 C.3     1  UNL1        0.0477
     45 C           4.8863    0.5427   18.5097 C.ar    1  UNL1       -0.0205
     46 C           5.5051   -0.5397   17.6756 C.ar    1  UNL1       -0.0042
     47 C           6.8748   -1.0525   18.0084 C.ar    1  UNL1       -0.0003
     48 C           7.6259   -0.4829   19.1753 C.ar    1  UNL1       -0.0000
     49 C           7.0071    0.5994   20.0093 C.ar    1  UNL1       -0.0003
     50 C           5.6373    1.1122   19.6766 C.ar    1  UNL1       -0.0042
@<TRIPOS>BOND
     1    19    20    1
     2    20    21    1
     3    20    14    1
     4    14    15   ar
     5    15    16   ar
     6    16    13    1
     7    13     7    1
     8     7     8    1
     9     7     9   am
    10     9    10    2
    11     9    11   am
    12     6    11    1
    13     6     2    1
    14     2     3    2
    15     2     4   am
    16     4     1    1
    17     1    25    1
    18    25    26    1
    19    26    27   ar
    20    27    28   ar
    21    28    29   ar
    22    29    30   ar
    23    30    31   ar
    24     1    32    1
    25    32    44    1
    26    44    45    1
    27    45    46   ar
    28    46    47   ar
    29    47    48   ar
    30    48    49   ar
    31    49    50   ar
    32    32    33    1
    33    33    34   am
    34    34    35    2
    35    34    37    1
    36    37    38    1
    37    38    39    1
    38    39    40   ar
    39    40    41   ar
    40    41    42   ar
    41    42    43   ar
    42     6    22    1
    43    22    23    1
    44    22    24    1
    45    16    17   ar
    46    17    18   ar
    47    18    14   ar
    48    31    26   ar
    49    50    45   ar
    50    43    39   ar
    51    11    12    1
    52     4     5    1
    53    33    36    1
@<TRIPOS>MOLECULE
*****
 50 53 0 0 0
SMALL
GASTEIGER

@<TRIPOS>ATOM
      1 C           2.1075    0.1584   21.0472 C.3     1  UNL1        0.0942
      2 C           2.1745    1.5161   23.2613 C.2     1  UNL1        0.2404
      3 O           0.8829    0.8840   23.6880 O.2     1  UNL1       -0.2733
      4 N           2.7869    1.1533   21.9409 N.am    1  UNL1       -0.3027
      5 H           3.6346    1.5682   21.6609 H       1  UNL1        0.1495
      6 C           2.8539    2.5110   24.1550 C.3     1  UNL1        0.1496
      7 N           3.9803    1.4036   27.7958 N.am    1  UNL1       -0.2567
      8 C           3.3910    1.2458   29.1661 C.3     1  UNL1        0.1168
      9 C           3.1225    1.8784   26.6606 C.2     1  UNL1        0.3046
     10 O           1.6753    2.1953   26.8957 O.2     1  UNL1       -0.2526
     11 N           3.7118    2.0362   25.2902 N.am    1  UNL1       -0.2824
     12 H           4.6616    1.8281   25.1359 H       1  UNL1        0.1514
     13 C           5.4275    1.0866   27.5606 C.3     1  UNL1        0.1413
     14 C           6.2380   -1.9241   25.2489 C.ar    1  UNL1        0.0875
     15 N           5.7601   -0.5162   25.4475 N.ar    1  UNL1       -0.2453
     16 C           5.8159   -0.2103   26.9149 C.ar    1  UNL1        0.0858
     17 C           6.3284   -1.4292   27.6233 C.ar    1  UNL1        0.0530
     18 S           6.5892   -2.4883   26.5937 S.2     1  UNL1       -0.0705
     19 C           5.1722   -3.4077   23.4015 C.3     1  UNL1        0.0069
     20 C           6.3459   -2.6417   23.9361 C.3     1  UNL1        0.0465
     21 C           7.6273   -2.5933   23.1580 C.3     1  UNL1        0.0069
     22 C           2.6753    3.9806   23.9136 C.3     1  UNL1        0.0270
     23 C           1.4067    4.6612   24.3348 C.3     1  UNL1        0.0022
     24 C           3.7654    4.7696   23.2509 C.3     1  UNL1        0.0022
     25 C           2.4732   -1.2941   21.1274 C.3     1  UNL1        0.0476
     26 C           3.7436   -1.7836   20.4975 C.ar    1  UNL1       -0.0205
     27 C           3.7539   -3.0762   19.7367 C.ar    1  UNL1       -0.0042
     28 C           5.0242   -3.5657   19.1069 C.ar    1  UNL1       -0.0003
     29 C           6.2842   -2.7624   19.2379 C.ar    1  UNL1       -0.0000
     30 C           6.2739   -1.4698   19.9987 C.ar    1  UNL1       -0.0003
     31 C           5.0036   -0.9804   20.6285 C.ar    1  UNL1       -0.0042
     32 C           1.0625    0.6161   20.0733 C.3     1  UNL1        0.0973
     33 N          -0.2846    1.0520   20.5685 N.am    1  UNL1       -0.2703
     34 C          -0.5114    2.4806   20.9659 C.2     1  UNL1        0.4020
     35 O           0.6089    3.4732   20.8680 O.2     1  UNL1       -0.2264
     36 H          -1.0200    0.4005   20.6328 H       1  UNL1        0.1527
     37 O          -1.8585    2.9165   21.4612 O.3     1  UNL1       -0.4291
     38 C          -2.9651    3.1865   20.4852 C.3     1  UNL1        0.2447
     39 C          -4.3241    3.5811   20.9825 C.ar    1  UNL1        0.0714
     40 C          -5.3950    4.2574   20.1789 C.ar    1  UNL1        0.1053
     41 N          -6.5836    4.4630   21.0705 N.ar    1  UNL1       -0.2350
     42 C          -6.2473    3.9137   22.4252 C.ar    1  UNL1        0.1343
     43 S          -4.8509    3.3687   22.3708 S.2     1  UNL1       -0.0652
     44 C           1.3645    0.6379   18.6042 C.3     1  UNL1        0.0477
     45 C           2.7862    0.7144   18.1319 C.ar    1  UNL1       -0.0205
     46 C           3.6251    1.9114   18.4690 C.ar    1  UNL1       -0.0042
     47 C           5.0467    1.9878   17.9967 C.ar    1  UNL1       -0.0003
     48 C           5.6295    0.8674   17.1874 C.ar    1  UNL1       -0.0000
     49 C           4.7907   -0.3295   16.8504 C.ar    1  UNL1       -0.0003
     50 C           3.3690   -0.4061   17.3226 C.ar    1  UNL1       -0.0042
@<TRIPOS>BOND
     1    19    20    1
     2    20    21    1
     3    20    14    1
     4    14    15   ar
     5    15    16   ar
     6    16    13    1
     7    13     7    1
     8     7     8    1
     9     7     9   am
    10     9    10    2
    11     9    11   am
    12     6    11    1
    13     6     2    1
    14     2     3    2
    15     2     4   am
    16     4     1    1
    17     1    25    1
    18    25    26    1
    19    26    27   ar
    20    27    28   ar
    21    28    29   ar
    22    29    30   ar
    23    30    31   ar
    24     1    32    1
    25    32    44    1
    26    44    45    1
    27    45    46   ar
    28    46    47   ar
    29    47    48   ar
    30    48    49   ar
    31    49    50   ar
    32    32    33    1
    33    33    34   am
    34    34    35    2
    35    34    37    1
    36    37    38    1
    37    38    39    1
    38    39    40   ar
    39    40    41   ar
    40    41    42   ar
    41    42    43   ar
    42     6    22    1
    43    22    23    1
    44    22    24    1
    45    16    17   ar
    46    17    18   ar
    47    18    14   ar
    48    31    26   ar
    49    50    45   ar
    50    43    39   ar
    51    11    12    1
    52     4     5    1
    53    33    36    1
@<TRIPOS>MOLECULE
*****
 50 53 0 0 0
SMALL
GASTEIGER

@<TRIPOS>ATOM
      1 C           2.4965    0.9405   24.3010 C.3     1  UNL1        0.0942
      2 C           2.0478    1.0063   26.8592 C.2     1  UNL1        0.2404
      3 O           3.2484    1.8856   27.0471 O.2     1  UNL1       -0.2733
      4 N           1.6718    0.5337   25.4861 N.am    1  UNL1       -0.3027
      5 H           0.8838   -0.0434   25.3627 H       1  UNL1        0.1495
      6 C           1.2232    0.5995   28.0443 C.3     1  UNL1        0.1496
      7 N           2.7998    0.4938   31.6848 N.am    1  UNL1       -0.2567
      8 C           3.0352    1.4140   32.8457 C.3     1  UNL1        0.1168
      9 C           2.1292    1.0068   30.4450 C.2     1  UNL1        0.3046
     10 O           1.6940    2.4401   30.3661 O.2     1  UNL1       -0.2526
     11 N           1.8938    0.0865   29.2841 N.am    1  UNL1       -0.2824
     12 H           2.1795   -0.8542   29.3359 H       1  UNL1        0.1514
     13 C           3.2351   -0.9396   31.7637 C.3     1  UNL1        0.1413
     14 C           6.7735   -2.5013   31.4381 C.ar    1  UNL1        0.0875
     15 N           5.3674   -2.5397   31.9589 N.ar    1  UNL1       -0.2453
     16 C           4.6608   -1.3073   31.4772 C.ar    1  UNL1        0.0858
     17 C           5.6302   -0.5073   30.6586 C.ar    1  UNL1        0.0530
     18 S           6.9359   -1.2452   30.6344 S.2     1  UNL1       -0.0705
     19 C           9.2026   -3.1200   32.1213 C.3     1  UNL1        0.0069
     20 C           7.8314   -3.5372   31.6786 C.3     1  UNL1        0.0465
     21 C           7.5182   -4.9901   31.4764 C.3     1  UNL1        0.0069
     22 C          -0.2720    0.7058   27.9897 C.3     1  UNL1        0.0270
     23 C          -1.1228   -0.3428   28.6427 C.3     1  UNL1        0.0022
     24 C          -0.9164    1.8608   27.2820 C.3     1  UNL1        0.0022
     25 C           2.4437    2.3533   23.7999 C.3     1  UNL1        0.0476
     26 C           1.5868    2.6985   22.6181 C.ar    1  UNL1       -0.0205
     27 C           2.1402    3.5488   21.5133 C.ar    1  UNL1       -0.0042
     28 C           1.2833    3.8940   20.3315 C.ar    1  UNL1       -0.0003
     29 C          -0.1270    3.3888   20.2546 C.ar    1  UNL1       -0.0000
     30 C          -0.6803    2.5384   21.3594 C.ar    1  UNL1       -0.0003
     31 C           0.1766    2.1933   22.5411 C.ar    1  UNL1       -0.0042
     32 C           3.3739   -0.0657   23.6169 C.3     1  UNL1        0.0973
     33 N           4.7909   -0.2564   24.0704 N.am    1  UNL1       -0.2703
     34 C           5.0801   -1.0324   25.3211 C.2     1  UNL1        0.4020
     35 O           3.9523   -1.6176   26.1183 O.2     1  UNL1       -0.2264
     36 H           5.5311    0.1277   23.5472 H       1  UNL1        0.1527
     37 O           6.4971   -1.2231   25.7746 O.3     1  UNL1       -0.4291
     38 C           7.2251   -2.4929   25.4466 C.3     1  UNL1        0.2447
     39 C           6.9290   -3.7470   26.2144 C.ar    1  UNL1        0.0714
     40 C           6.9582   -5.1434   25.6673 C.ar    1  UNL1        0.1053
     41 N           6.5989   -6.0844   26.7789 N.ar    1  UNL1       -0.2350
     42 C           6.3477   -5.2695   28.0130 C.ar    1  UNL1        0.1343
     43 S           6.5517   -3.8250   27.6641 S.2     1  UNL1       -0.0652
     44 C           2.8343   -0.8810   22.4794 C.3     1  UNL1        0.0477
     45 C           2.6926   -0.2675   21.1179 C.ar    1  UNL1       -0.0205
     46 C           1.4058   -0.4113   20.3606 C.ar    1  UNL1       -0.0042
     47 C           1.2642    0.2021   18.9992 C.ar    1  UNL1       -0.0003
     48 C           2.4094    0.9594   18.3950 C.ar    1  UNL1       -0.0000
     49 C           3.6962    1.1033   19.1522 C.ar    1  UNL1       -0.0003
     50 C           3.8378    0.4898   20.5137 C.ar    1  UNL1       -0.0042
@<TRIPOS>BOND
     1    19    20    1
     2    20    21    1
     3    20    14    1
     4    14    15   ar
     5    15    16   ar
     6    16    13    1
     7    13     7    1
     8     7     8    1
     9     7     9   am
    10     9    10    2
    11     9    11   am
    12     6    11    1
    13     6     2    1
    14     2     3    2
    15     2     4   am
    16     4     1    1
    17     1    25    1
    18    25    26    1
    19    26    27   ar
    20    27    28   ar
    21    28    29   ar
    22    29    30   ar
    23    30    31   ar
    24     1    32    1
    25    32    44    1
    26    44    45    1
    27    45    46   ar
    28    46    47   ar
    29    47    48   ar
    30    48    49   ar
    31    49    50   ar
    32    32    33    1
    33    33    34   am
    34    34    35    2
    35    34    37    1
    36    37    38    1
    37    38    39    1
    38    39    40   ar
    39    40    41   ar
    40    41    42   ar
    41    42    43   ar
    42     6    22    1
    43    22    23    1
    44    22    24    1
    45    16    17   ar
    46    17    18   ar
    47    18    14   ar
    48    31    26   ar
    49    50    45   ar
    50    43    39   ar
    51    11    12    1
    52     4     5    1
    53    33    36    1
@<TRIPOS>MOLECULE
*****
 50 53 0 0 0
SMALL
GASTEIGER

@<TRIPOS>ATOM
      1 C           2.3354    1.4345   20.4225 C.3     1  UNL1        0.0942
      2 C          -0.1317    2.0106   20.9986 C.2     1  UNL1        0.2404
      3 O          -0.5511    0.6326   20.5803 O.2     1  UNL1       -0.2733
      4 N           1.3116    2.4116   20.9197 N.am    1  UNL1       -0.3027
      5 H           1.5870    3.3161   21.1942 H       1  UNL1        0.1495
      6 C          -1.1554    2.9877   21.4957 C.3     1  UNL1        0.1496
      7 N          -3.8741    3.9746   18.7782 N.am    1  UNL1       -0.2567
      8 C          -3.9568    4.7036   17.4698 C.3     1  UNL1        0.1168
      9 C          -2.5562    3.8456   19.4828 C.2     1  UNL1        0.3046
     10 O          -1.3210    4.4456   18.8790 O.2     1  UNL1       -0.2526
     11 N          -2.4734    3.1167   20.7911 N.am    1  UNL1       -0.2824
     12 H          -3.2841    2.7229   21.1874 H       1  UNL1        0.1514
     13 C          -5.1092    3.3747   19.3819 C.3     1  UNL1        0.1413
     14 C          -6.1191    4.5318   22.9465 C.ar    1  UNL1        0.0875
     15 N          -5.2404    3.7366   22.0271 N.ar    1  UNL1       -0.2453
     16 C          -5.7056    3.9740   20.6209 C.ar    1  UNL1        0.0858
     17 C          -6.8718    4.9160   20.6713 C.ar    1  UNL1        0.0530
     18 S          -7.1274    5.2608   22.1085 S.2     1  UNL1       -0.0705
     19 C          -5.0496    3.6844   25.1574 C.3     1  UNL1        0.0069
     20 C          -6.0090    4.5883   24.4414 C.3     1  UNL1        0.0465
     21 C          -6.8582    5.5486   25.2202 C.3     1  UNL1        0.0069
     22 C          -0.8613    3.8358   22.6975 C.3     1  UNL1        0.0270
     23 C          -1.2140    3.3413   24.0690 C.3     1  UNL1        0.0022
     24 C          -0.2144    5.1784   22.5277 C.3     1  UNL1        0.0022
     25 C           2.7872    1.4839   18.9931 C.3     1  UNL1        0.0476
     26 C           4.1917    1.0959   18.6365 C.ar    1  UNL1       -0.0205
     27 C           4.4381    0.0511   17.5889 C.ar    1  UNL1       -0.0042
     28 C           5.8425   -0.3369   17.2324 C.ar    1  UNL1       -0.0003
     29 C           7.0004    0.3199   17.9236 C.ar    1  UNL1       -0.0000
     30 C           6.7540    1.3647   18.9712 C.ar    1  UNL1       -0.0003
     31 C           5.3496    1.7527   19.3277 C.ar    1  UNL1       -0.0042
     32 C           2.9073    0.4080   21.3549 C.3     1  UNL1        0.0973
     33 N           3.7299    0.8400   22.5325 N.am    1  UNL1       -0.2703
     34 C           3.0558    1.2485   23.8088 C.2     1  UNL1        0.4020
     35 O           1.5593    1.2251   23.9074 O.2     1  UNL1       -0.2264
     36 H           4.7121    0.8554   22.4678 H       1  UNL1        0.1527
     37 O           3.8783    1.6805   24.9864 O.3     1  UNL1       -0.4291
     38 C           4.1288    0.7267   26.1167 C.3     1  UNL1        0.2447
     39 C           3.0758    0.5105   27.1628 C.ar    1  UNL1        0.0714
     40 C           1.9059    1.4088   27.4352 C.ar    1  UNL1        0.1053
     41 N           1.1150    0.8114   28.5611 N.ar    1  UNL1       -0.2350
     42 C           1.7960   -0.4562   28.9845 C.ar    1  UNL1        0.1343
     43 S           3.0079   -0.6422   28.1203 S.2     1  UNL1       -0.0652
     44 C           2.6568   -1.0504   21.1096 C.3     1  UNL1        0.0477
     45 C           3.7216   -1.8988   20.4803 C.ar    1  UNL1       -0.0205
     46 C           3.3504   -2.9343   19.4604 C.ar    1  UNL1       -0.0042
     47 C           4.4153   -3.7827   18.8311 C.ar    1  UNL1       -0.0003
     48 C           5.8515   -3.5958   19.2216 C.ar    1  UNL1       -0.0000
     49 C           6.2227   -2.5605   20.2415 C.ar    1  UNL1       -0.0003
     50 C           5.1578   -1.7119   20.8708 C.ar    1  UNL1       -0.0042
@<TRIPOS>BOND
     1    19    20    1
     2    20    21    1
     3    20    14    1
     4    14    15   ar
     5    15    16   ar
     6    16    13    1
     7    13     7    1
     8     7     8    1
     9     7     9   am
    10     9    10    2
    11     9    11   am
    12     6    11    1
    13     6     2    1
    14     2     3    2
    15     2     4   am
    16     4     1    1
    17     1    25    1
    18    25    26    1
    19    26    27   ar
    20    27    28   ar
    21    28    29   ar
    22    29    30   ar
    23    30    31   ar
    24     1    32    1
    25    32    44    1
    26    44    45    1
    27    45    46   ar
    28    46    47   ar
    29    47    48   ar
    30    48    49   ar
    31    49    50   ar
    32    32    33    1
    33    33    34   am
    34    34    35    2
    35    34    37    1
    36    37    38    1
    37    38    39    1
    38    39    40   ar
    39    40    41   ar
    40    41    42   ar
    41    42    43   ar
    42     6    22    1
    43    22    23    1
    44    22    24    1
    45    16    17   ar
    46    17    18   ar
    47    18    14   ar
    48    31    26   ar
    49    50    45   ar
    50    43    39   ar
    51    11    12    1
    52     4     5    1
    53    33    36    1
@<TRIPOS>MOLECULE
*****
 50 53 0 0 0
SMALL
GASTEIGER

@<TRIPOS>ATOM
      1 C           3.0842    0.7768   22.1869 C.3     1  UNL1        0.0942
      2 C           2.2773    2.6506   23.7956 C.2     1  UNL1        0.2404
      3 O           2.9776    3.6753   22.9533 O.2     1  UNL1       -0.2733
      4 N           2.3306    1.2013   23.4124 N.am    1  UNL1       -0.3027
      5 H           1.8709    0.5287   23.9652 H       1  UNL1        0.1495
      6 C           1.5236    3.0751   25.0211 C.3     1  UNL1        0.1496
      7 N           0.9283    0.7493   28.1812 N.am    1  UNL1       -0.2567
      8 C          -0.1250   -0.1641   28.7345 C.3     1  UNL1        0.1168
      9 C           0.6993    1.4555   26.8778 C.2     1  UNL1        0.3046
     10 O          -0.5830    1.2482   26.1277 O.2     1  UNL1       -0.2526
     11 N           1.7527    2.3689   26.3245 N.am    1  UNL1       -0.2824
     12 H           2.5943    2.5050   26.8169 H       1  UNL1        0.1514
     13 C           2.2107    0.9566   28.9314 C.3     1  UNL1        0.1413
     14 C           5.2818   -0.7436   27.2753 C.ar    1  UNL1        0.0875
     15 N           4.0938    0.1694   27.2053 N.ar    1  UNL1       -0.2453
     16 C           3.4353    0.1774   28.5530 C.ar    1  UNL1        0.0858
     17 C           4.2164   -0.7307   29.4559 C.ar    1  UNL1        0.0530
     18 S           5.3576   -1.2999   28.6663 S.2     1  UNL1       -0.0705
     19 C           6.8011    0.0704   25.3312 C.3     1  UNL1        0.0069
     20 C           6.2280   -1.0470   26.1516 C.3     1  UNL1        0.0465
     21 C           6.6010   -2.4679   25.8482 C.3     1  UNL1        0.0069
     22 C           0.5409    4.2057   24.9432 C.3     1  UNL1        0.0270
     23 C          -0.6437    4.1080   24.0283 C.3     1  UNL1        0.0022
     24 C           0.7430    5.4339   25.7801 C.3     1  UNL1        0.0022
     25 C           4.5557    0.4982   22.2704 C.3     1  UNL1        0.0476
     26 C           5.0495   -0.9175   22.3169 C.ar    1  UNL1       -0.0205
     27 C           6.4259   -1.2484   21.8209 C.ar    1  UNL1       -0.0042
     28 C           6.9196   -2.6640   21.8675 C.ar    1  UNL1       -0.0003
     29 C           6.0370   -3.7487   22.4100 C.ar    1  UNL1       -0.0000
     30 C           4.6606   -3.4179   22.9059 C.ar    1  UNL1       -0.0003
     31 C           4.1669   -2.0022   22.8594 C.ar    1  UNL1       -0.0042
     32 C           2.3663    0.6311   20.8779 C.3     1  UNL1        0.0973
     33 N           0.8681    0.6883   20.8338 N.am    1  UNL1       -0.2703
     34 C           0.1740    1.9980   20.6036 C.2     1  UNL1        0.4020
     35 O           0.9782    3.2505   20.4175 O.2     1  UNL1       -0.2264
     36 H           0.3402   -0.1337   20.9559 H       1  UNL1        0.1527
     37 O          -1.3242    2.0553   20.5595 O.3     1  UNL1       -0.4291
     38 C          -2.0172    3.3557   20.2788 C.3     1  UNL1        0.2447
     39 C          -3.2639    3.7185   21.0297 C.ar    1  UNL1        0.0714
     40 C          -4.4599    2.8360   21.2317 C.ar    1  UNL1        0.1053
     41 N          -5.4688    3.5997   22.0373 N.ar    1  UNL1       -0.2350
     42 C          -4.8963    4.9542   22.3332 C.ar    1  UNL1        0.1343
     43 S          -3.5337    5.0276   21.7105 S.2     1  UNL1       -0.0652
     44 C           3.1467    0.4280   19.6131 C.3     1  UNL1        0.0477
     45 C           3.7057   -0.9248   19.2858 C.ar    1  UNL1       -0.0205
     46 C           2.9573   -2.1622   19.6844 C.ar    1  UNL1       -0.0042
     47 C           3.5164   -3.5150   19.3571 C.ar    1  UNL1       -0.0003
     48 C           4.8239   -3.6306   18.6311 C.ar    1  UNL1       -0.0000
     49 C           5.5723   -2.3934   18.2325 C.ar    1  UNL1       -0.0003
     50 C           5.0133   -1.0404   18.5598 C.ar    1  UNL1       -0.0042
@<TRIPOS>BOND
     1    19    20    1
     2    20    21    1
     3    20    14    1
     4    14    15   ar
     5    15    16   ar
     6    16    13    1
     7    13     7    1
     8     7     8    1
     9     7     9   am
    10     9    10    2
    11     9    11   am
    12     6    11    1
    13     6     2    1
    14     2     3    2
    15     2     4   am
    16     4     1    1
    17     1    25    1
    18    25    26    1
    19    26    27   ar
    20    27    28   ar
    21    28    29   ar
    22    29    30   ar
    23    30    31   ar
    24     1    32    1
    25    32    44    1
    26    44    45    1
    27    45    46   ar
    28    46    47   ar
    29    47    48   ar
    30    48    49   ar
    31    49    50   ar
    32    32    33    1
    33    33    34   am
    34    34    35    2
    35    34    37    1
    36    37    38    1
    37    38    39    1
    38    39    40   ar
    39    40    41   ar
    40    41    42   ar
    41    42    43   ar
    42     6    22    1
    43    22    23    1
    44    22    24    1
    45    16    17   ar
    46    17    18   ar
    47    18    14   ar
    48    31    26   ar
    49    50    45   ar
    50    43    39   ar
    51    11    12    1
    52     4     5    1
    53    33    36    1
@<TRIPOS>MOLECULE
*****
 50 53 0 0 0
SMALL
GASTEIGER

@<TRIPOS>ATOM
      1 C           5.1414   -2.2807   23.9635 C.3     1  UNL1        0.0942
      2 C           3.9113   -1.1569   25.9571 C.2     1  UNL1        0.2404
      3 O           4.6520   -2.0434   26.9138 O.2     1  UNL1       -0.2733
      4 N           4.1560   -1.2756   24.4819 N.am    1  UNL1       -0.3027
      5 H           3.6698   -0.6937   23.8539 H       1  UNL1        0.1495
      6 C           2.9259   -0.1518   26.4754 C.3     1  UNL1        0.1496
      7 N           1.0420    2.8254   24.6486 N.am    1  UNL1       -0.2567
      8 C           0.9329    4.3191   24.7321 C.3     1  UNL1        0.1168
      9 C           1.9294    2.0837   25.6037 C.2     1  UNL1        0.3046
     10 O           2.7079    2.8356   26.6423 O.2     1  UNL1       -0.2526
     11 N           2.0384    0.5900   25.5203 N.am    1  UNL1       -0.2824
     12 H           1.5275    0.0964   24.8386 H       1  UNL1        0.1514
     13 C           0.2635    2.0734   23.6100 C.3     1  UNL1        0.1413
     14 C           2.3949    1.8037   20.3775 C.ar    1  UNL1        0.0875
     15 N           2.2574    2.1462   21.8314 N.ar    1  UNL1       -0.2453
     16 C           0.8407    1.8713   22.2404 C.ar    1  UNL1        0.0858
     17 C           0.1026    1.3588   21.0394 C.ar    1  UNL1        0.0530
     18 S           1.0631    1.3170   19.8880 S.2     1  UNL1       -0.0705
     19 C           4.8185    2.6941   20.0887 C.3     1  UNL1        0.0069
     20 C           3.6447    1.9262   19.5572 C.3     1  UNL1        0.0465
     21 C           3.7207    1.2808   18.2052 C.3     1  UNL1        0.0069
     22 C           2.8280    0.1116   27.9488 C.3     1  UNL1        0.0270
     23 C           4.0122    0.6519   28.6945 C.3     1  UNL1        0.0022
     24 C           1.5460   -0.1651   28.6766 C.3     1  UNL1        0.0022
     25 C           4.6668   -3.4391   23.1373 C.3     1  UNL1        0.0476
     26 C           4.3091   -3.2349   21.6948 C.ar    1  UNL1       -0.0205
     27 C           4.7268   -4.2456   20.6682 C.ar    1  UNL1       -0.0042
     28 C           4.3692   -4.0414   19.2259 C.ar    1  UNL1       -0.0003
     29 C           3.5938   -2.8265   18.8102 C.ar    1  UNL1       -0.0000
     30 C           3.1761   -1.8158   19.8368 C.ar    1  UNL1       -0.0003
     31 C           3.5338   -2.0200   21.2791 C.ar    1  UNL1       -0.0042
     32 C           6.6014   -2.1274   24.2715 C.3     1  UNL1        0.0973
     33 N           7.1929   -2.8182   25.4644 N.am    1  UNL1       -0.2703
     34 C           7.6654   -4.2374   25.3514 C.2     1  UNL1        0.4020
     35 O           7.5465   -4.9657   24.0455 O.2     1  UNL1       -0.2264
     36 H           7.2709   -2.3401   26.3215 H       1  UNL1        0.1527
     37 O           8.2568   -4.9281   26.5443 O.3     1  UNL1       -0.4291
     38 C           7.3656   -5.6485   27.5121 C.3     1  UNL1        0.2447
     39 C           7.1160   -5.0716   28.8740 C.ar    1  UNL1        0.0714
     40 C           6.6517   -3.6761   29.1689 C.ar    1  UNL1        0.1053
     41 N           6.5356   -3.5309   30.6573 N.ar    1  UNL1       -0.2350
     42 C           6.9280   -4.8368   31.2824 C.ar    1  UNL1        0.1343
     43 S           7.2867   -5.7889   30.1803 S.2     1  UNL1       -0.0652
     44 C           7.4700   -1.2833   23.3866 C.3     1  UNL1        0.0477
     45 C           7.4009   -1.4416   21.8966 C.ar    1  UNL1       -0.0205
     46 C           6.7079   -0.4043   21.0635 C.ar    1  UNL1       -0.0042
     47 C           6.6388   -0.5625   19.5735 C.ar    1  UNL1       -0.0003
     48 C           7.2625   -1.7581   18.9165 C.ar    1  UNL1       -0.0000
     49 C           7.9554   -2.7953   19.7495 C.ar    1  UNL1       -0.0003
     50 C           8.0246   -2.6371   21.2396 C.ar    1  UNL1       -0.0042
@<TRIPOS>BOND
     1    19    20    1
     2    20    21    1
     3    20    14    1
     4    14    15   ar
     5    15    16   ar
     6    16    13    1
     7    13     7    1
     8     7     8    1
     9     7     9   am
    10     9    10    2
    11     9    11   am
    12     6    11    1
    13     6     2    1
    14     2     3    2
    15     2     4   am
    16     4     1    1
    17     1    25    1
    18    25    26    1
    19    26    27   ar
    20    27    28   ar
    21    28    29   ar
    22    29    30   ar
    23    30    31   ar
    24     1    32    1
    25    32    44    1
    26    44    45    1
    27    45    46   ar
    28    46    47   ar
    29    47    48   ar
    30    48    49   ar
    31    49    50   ar
    32    32    33    1
    33    33    34   am
    34    34    35    2
    35    34    37    1
    36    37    38    1
    37    38    39    1
    38    39    40   ar
    39    40    41   ar
    40    41    42   ar
    41    42    43   ar
    42     6    22    1
    43    22    23    1
    44    22    24    1
    45    16    17   ar
    46    17    18   ar
    47    18    14   ar
    48    31    26   ar
    49    50    45   ar
    50    43    39   ar
    51    11    12    1
    52     4     5    1
    53    33    36    1
@<TRIPOS>MOLECULE
*****
 50 53 0 0 0
SMALL
GASTEIGER

@<TRIPOS>ATOM
      1 C           5.6453   -2.0836   23.7838 C.3     1  UNL1        0.0942
      2 C           5.2957   -0.4916   25.8071 C.2     1  UNL1        0.2404
      3 O           5.8407   -1.5426   26.7282 O.2     1  UNL1       -0.2733
      4 N           5.1980   -0.7621   24.3349 N.am    1  UNL1       -0.3027
      5 H           4.8403   -0.0723   23.7303 H       1  UNL1        0.1495
      6 C           4.8484    0.8298   26.3581 C.3     1  UNL1        0.1496
      7 N           1.4979    2.4887   25.0269 N.am    1  UNL1       -0.2567
      8 C           0.0207    2.4193   25.2779 C.3     1  UNL1        0.1168
      9 C           2.4345    1.6246   25.8180 C.2     1  UNL1        0.3046
     10 O           1.8940    0.6910   26.8603 O.2     1  UNL1       -0.2526
     11 N           3.9117    1.6940   25.5670 N.am    1  UNL1       -0.2824
     12 H           4.2665    2.3068   24.8829 H       1  UNL1        0.1514
     13 C           2.0384    3.4224   23.9846 C.3     1  UNL1        0.1413
     14 C           1.7796    2.3356   20.2675 C.ar    1  UNL1        0.0875
     15 N           1.1547    2.8642   21.5245 N.ar    1  UNL1       -0.2453
     16 C           2.2229    2.9461   22.5743 C.ar    1  UNL1        0.0858
     17 C           3.5081    2.4682   21.9661 C.ar    1  UNL1        0.0530
     18 S           3.2342    2.0909   20.5405 S.2     1  UNL1       -0.0705
     19 C           1.1668    0.7534   18.3000 C.3     1  UNL1        0.0069
     20 C           1.0740    2.0942   18.9660 C.3     1  UNL1        0.0465
     21 C           0.2755    3.1936   18.3306 C.3     1  UNL1        0.0069
     22 C           5.3376    1.2871   27.7003 C.3     1  UNL1        0.0270
     23 C           4.6059    0.8786   28.9444 C.3     1  UNL1        0.0022
     24 C           6.5586    2.1528   27.7984 C.3     1  UNL1        0.0022
     25 C           4.6372   -3.0423   23.2230 C.3     1  UNL1        0.0476
     26 C           4.2875   -2.9952   21.7650 C.ar    1  UNL1       -0.0205
     27 C           4.5121   -4.2002   20.9006 C.ar    1  UNL1       -0.0042
     28 C           4.1623   -4.1531   19.4427 C.ar    1  UNL1       -0.0003
     29 C           3.5881   -2.9008   18.8493 C.ar    1  UNL1       -0.0000
     30 C           3.3635   -1.6958   19.7138 C.ar    1  UNL1       -0.0003
     31 C           3.7133   -1.7429   21.1716 C.ar    1  UNL1       -0.0042
     32 C           7.1008   -2.4463   23.7936 C.3     1  UNL1        0.0973
     33 N           7.6091   -3.4825   24.7517 N.am    1  UNL1       -0.2703
     34 C           7.7211   -4.9141   24.3181 C.2     1  UNL1        0.4020
     35 O           7.3249   -5.3095   22.9264 O.2     1  UNL1       -0.2264
     36 H           7.8692   -3.2230   25.6650 H       1  UNL1        0.1527
     37 O           8.2294   -5.9504   25.2761 O.3     1  UNL1       -0.4291
     38 C           7.2884   -6.6002   26.2468 C.3     1  UNL1        0.2447
     39 C           7.3580   -6.2545   27.7047 C.ar    1  UNL1        0.0714
     40 C           8.3613   -6.7796   28.6884 C.ar    1  UNL1        0.1053
     41 N           8.0600   -6.1727   30.0266 N.ar    1  UNL1       -0.2350
     42 C           6.8705   -5.2725   29.8701 C.ar    1  UNL1        0.1343
     43 S           6.4366   -5.3230   28.4351 S.2     1  UNL1       -0.0652
     44 C           8.0480   -1.7728   22.8453 C.3     1  UNL1        0.0477
     45 C           7.6499   -1.5558   21.4155 C.ar    1  UNL1       -0.0205
     46 C           7.8127   -2.6621   20.4155 C.ar    1  UNL1       -0.0042
     47 C           7.4146   -2.4451   18.9857 C.ar    1  UNL1       -0.0003
     48 C           6.8538   -1.1220   18.5558 C.ar    1  UNL1       -0.0000
     49 C           6.6910   -0.0158   19.5557 C.ar    1  UNL1       -0.0003
     50 C           7.0891   -0.2327   20.9856 C.ar    1  UNL1       -0.0042
@<TRIPOS>BOND
     1    19    20    1
     2    20    21    1
     3    20    14    1
     4    14    15   ar
     5    15    16   ar
     6    16    13    1
     7    13     7    1
     8     7     8    1
     9     7     9   am
    10     9    10    2
    11     9    11   am
    12     6    11    1
    13     6     2    1
    14     2     3    2
    15     2     4   am
    16     4     1    1
    17     1    25    1
    18    25    26    1
    19    26    27   ar
    20    27    28   ar
    21    28    29   ar
    22    29    30   ar
    23    30    31   ar
    24     1    32    1
    25    32    44    1
    26    44    45    1
    27    45    46   ar
    28    46    47   ar
    29    47    48   ar
    30    48    49   ar
    31    49    50   ar
    32    32    33    1
    33    33    34   am
    34    34    35    2
    35    34    37    1
    36    37    38    1
    37    38    39    1
    38    39    40   ar
    39    40    41   ar
    40    41    42   ar
    41    42    43   ar
    42     6    22    1
    43    22    23    1
    44    22    24    1
    45    16    17   ar
    46    17    18   ar
    47    18    14   ar
    48    31    26   ar
    49    50    45   ar
    50    43    39   ar
    51    11    12    1
    52     4     5    1
    53    33    36    1
