@<TRIPOS>MOLECULE
*****
 33 36 0 0 0
SMALL
GASTEIGER

@<TRIPOS>ATOM
      1 C          -8.1936  -17.5952   23.2205 C.3     1  UNL1        0.0982
      2 C          -8.7068  -18.1585   21.9284 C.3     1  UNL1        0.0670
      3 C          -7.8236  -19.1730   21.2645 C.ar    1  UNL1       -0.0171
      4 C          -6.5749  -19.4165   22.0591 C.ar    1  UNL1       -0.0041
      5 C          -5.5535  -20.3993   21.5686 C.ar    1  UNL1       -0.0003
      6 C          -5.7807  -21.1386   20.2834 C.ar    1  UNL1       -0.0002
      7 C          -7.0294  -20.8952   19.4888 C.ar    1  UNL1       -0.0010
      8 C          -8.0508  -19.9124   19.9793 C.ar    1  UNL1        0.0176
      9 C          -9.2173  -19.8199   19.0407 C.3     1  UNL1        0.2317
     10 O         -10.4446  -18.9651   19.1555 O.3     1  UNL1       -0.4710
     11 C         -10.8085  -17.9918   20.2372 C.ar    1  UNL1        0.1355
     12 C         -12.1325  -17.3411   19.9661 C.ar    1  UNL1        0.0389
     13 C         -12.6832  -16.3313   20.9291 C.ar    1  UNL1        0.0327
     14 C         -11.9098  -15.9723   22.1631 C.ar    1  UNL1        0.1400
     15 F         -12.4603  -14.9626   23.1261 F       1  UNL1       -0.2042
     16 C         -10.5858  -16.6231   22.4342 C.ar    1  UNL1        0.0287
     17 C         -10.0351  -17.6328   21.4713 C.ar    1  UNL1        0.0194
     18 O          -7.7477  -15.1389   24.8842 O.2     1  UNL1       -0.2733
     19 C          -6.6112  -15.7353   24.1077 C.2     1  UNL1        0.2426
     20 N          -6.8342  -16.9635   23.2759 N.am    1  UNL1       -0.3023
     21 H          -6.0883  -17.3549   22.7662 H       1  UNL1        0.1495
     22 C          -5.2519  -15.1036   24.1630 C.3     1  UNL1        0.1759
     23 N          -4.2144  -15.4661   23.1422 N.am    1  UNL1       -0.2931
     24 C          -3.6179  -16.8424   23.1350 C.2     1  UNL1        0.2462
     25 O          -4.0589  -17.8562   24.1487 O.2     1  UNL1       -0.2701
     26 H          -3.9249  -14.8007   22.4768 H       1  UNL1        0.1502
     27 C          -2.5804  -17.2049   22.1141 C.ar    1  UNL1        0.0535
     28 C          -2.3876  -18.6385   21.7171 C.ar    1  UNL1        0.0068
     29 C          -1.3501  -19.0010   20.6962 C.ar    1  UNL1        0.0298
     30 C          -0.5054  -17.9298   20.0723 C.ar    1  UNL1        0.1401
     31 F           0.5322  -18.2923   19.0514 F       1  UNL1       -0.2042
     32 C          -0.6982  -16.4963   20.4694 C.ar    1  UNL1        0.0298
     33 C          -1.7357  -16.1337   21.4903 C.ar    1  UNL1        0.0068
@<TRIPOS>BOND
     1    18    19    2
     2    19    22    1
     3    22    23    1
     4    23    24   am
     5    24    25    2
     6    24    27    1
     7    27    28   ar
     8    28    29   ar
     9    29    30   ar
    10    30    31    1
    11    30    32   ar
    12    32    33   ar
    13    19    20   am
    14    20     1    1
    15     1     2    1
    16     2     3    1
    17     3     4   ar
    18     4     5   ar
    19     5     6   ar
    20     6     7   ar
    21     7     8   ar
    22     8     9    1
    23     9    10    1
    24    10    11    1
    25    11    12   ar
    26    12    13   ar
    27    13    14   ar
    28    14    15    1
    29    14    16   ar
    30    16    17   ar
    31    33    27   ar
    32    17     2    1
    33     8     3   ar
    34    17    11   ar
    35    23    26    1
    36    20    21    1
@<TRIPOS>MOLECULE
*****
 33 36 0 0 0
SMALL
GASTEIGER

@<TRIPOS>ATOM
      1 C          -8.3956  -17.4874   23.5359 C.3     1  UNL1        0.0982
      2 C          -8.9776  -17.9813   22.2446 C.3     1  UNL1        0.0670
      3 C         -10.3342  -17.4451   21.8949 C.ar    1  UNL1       -0.0171
      4 C         -10.8366  -16.4986   22.9445 C.ar    1  UNL1       -0.0041
      5 C         -12.1791  -15.8483   22.7873 C.ar    1  UNL1       -0.0003
      6 C         -13.0191  -16.1444   21.5804 C.ar    1  UNL1       -0.0002
      7 C         -12.5167  -17.0908   20.5307 C.ar    1  UNL1       -0.0010
      8 C         -11.1742  -17.7412   20.6880 C.ar    1  UNL1        0.0176
      9 C         -10.8652  -18.6466   19.5327 C.3     1  UNL1        0.2317
     10 O          -9.6398  -19.4796   19.2989 O.3     1  UNL1       -0.4710
     11 C          -8.4208  -19.6128   20.1628 C.ar    1  UNL1        0.1355
     12 C          -7.4214  -20.5543   19.5589 C.ar    1  UNL1        0.0389
     13 C          -6.1272  -20.8289   20.2658 C.ar    1  UNL1        0.0327
     14 C          -5.8325  -20.1621   21.5767 C.ar    1  UNL1        0.1400
     15 F          -4.5384  -20.4368   22.2837 F       1  UNL1       -0.2042
     16 C          -6.8319  -19.2207   22.1807 C.ar    1  UNL1        0.0287
     17 C          -8.1260  -18.9460   21.4738 C.ar    1  UNL1        0.0194
     18 O          -7.7693  -15.1861   25.3557 O.2     1  UNL1       -0.2733
     19 C          -6.6997  -15.7558   24.4716 C.2     1  UNL1        0.2426
     20 N          -7.0129  -16.9064   23.5617 N.am    1  UNL1       -0.3023
     21 H          -6.3109  -17.2804   22.9815 H       1  UNL1        0.1495
     22 C          -5.3170  -15.1749   24.4975 C.3     1  UNL1        0.1759
     23 N          -4.3429  -15.5086   23.4067 N.am    1  UNL1       -0.2931
     24 C          -3.6995  -16.8629   23.3642 C.2     1  UNL1        0.2462
     25 O          -4.0301  -17.8835   24.4125 O.2     1  UNL1       -0.2701
     26 H          -4.1259  -14.8387   22.7186 H       1  UNL1        0.1502
     27 C          -2.7254  -17.1966   22.2734 C.ar    1  UNL1        0.0535
     28 C          -1.9337  -16.1056   21.6154 C.ar    1  UNL1        0.0068
     29 C          -0.9596  -16.4393   20.5246 C.ar    1  UNL1        0.0298
     30 C          -0.7772  -17.8639   20.0918 C.ar    1  UNL1        0.1401
     31 F           0.1969  -18.1976   19.0010 F       1  UNL1       -0.2042
     32 C          -1.5689  -18.9548   20.7498 C.ar    1  UNL1        0.0298
     33 C          -2.5430  -18.6212   21.8406 C.ar    1  UNL1        0.0068
@<TRIPOS>BOND
     1    18    19    2
     2    19    22    1
     3    22    23    1
     4    23    24   am
     5    24    25    2
     6    24    27    1
     7    27    28   ar
     8    28    29   ar
     9    29    30   ar
    10    30    31    1
    11    30    32   ar
    12    32    33   ar
    13    19    20   am
    14    20     1    1
    15     1     2    1
    16     2     3    1
    17     3     4   ar
    18     4     5   ar
    19     5     6   ar
    20     6     7   ar
    21     7     8   ar
    22     8     9    1
    23     9    10    1
    24    10    11    1
    25    11    12   ar
    26    12    13   ar
    27    13    14   ar
    28    14    15    1
    29    14    16   ar
    30    16    17   ar
    31    33    27   ar
    32    17     2    1
    33     8     3   ar
    34    17    11   ar
    35    23    26    1
    36    20    21    1
@<TRIPOS>MOLECULE
*****
 33 36 0 0 0
SMALL
GASTEIGER

@<TRIPOS>ATOM
      1 C          -4.2507  -17.2480   23.0822 C.3     1  UNL1        0.0982
      2 C          -3.9527  -18.0699   21.8633 C.3     1  UNL1        0.0670
      3 C          -2.6716  -17.7425   21.1550 C.ar    1  UNL1       -0.0171
      4 C          -1.9373  -16.6270   21.8380 C.ar    1  UNL1       -0.0041
      5 C          -0.6280  -16.1439   21.2883 C.ar    1  UNL1       -0.0003
      6 C          -0.0529  -16.7762   20.0556 C.ar    1  UNL1       -0.0002
      7 C          -0.7872  -17.8917   19.3726 C.ar    1  UNL1       -0.0010
      8 C          -2.0966  -18.3748   19.9223 C.ar    1  UNL1        0.0176
      9 C          -2.6606  -19.4906   19.0936 C.3     1  UNL1        0.2317
     10 O          -3.9389  -20.2498   19.2928 O.3     1  UNL1       -0.4710
     11 C          -4.9689  -20.0805   20.3700 C.ar    1  UNL1        0.1355
     12 C          -6.1026  -21.0481   20.2011 C.ar    1  UNL1        0.0389
     13 C          -7.2424  -21.0456   21.1763 C.ar    1  UNL1        0.0327
     14 C          -7.2485  -20.0755   22.3202 C.ar    1  UNL1        0.1400
     15 F          -8.3883  -20.0729   23.2954 F       1  UNL1       -0.2042
     16 C          -6.1149  -19.1078   22.4891 C.ar    1  UNL1        0.0287
     17 C          -4.9751  -19.1103   21.5140 C.ar    1  UNL1        0.0194
     18 O          -5.0989  -15.9444   25.6477 O.2     1  UNL1       -0.2733
     19 C          -5.8756  -15.6975   24.3884 C.2     1  UNL1        0.2426
     20 N          -5.4516  -16.3494   23.1057 N.am    1  UNL1       -0.3023
     21 H          -5.9614  -16.1874   22.2792 H       1  UNL1        0.1495
     22 C          -7.0764  -14.7990   24.4118 C.3     1  UNL1        0.1759
     23 N          -8.4544  -15.3897   24.4603 N.am    1  UNL1       -0.2931
     24 C          -9.0083  -16.1008   23.2613 C.2     1  UNL1        0.2462
     25 O          -8.1843  -16.2210   22.0137 O.2     1  UNL1       -0.2701
     26 H          -8.9952  -15.3108   25.2792 H       1  UNL1        0.1502
     27 C         -10.3862  -16.6915   23.3099 C.ar    1  UNL1        0.0535
     28 C         -10.6495  -17.9134   24.1392 C.ar    1  UNL1        0.0068
     29 C         -12.0274  -18.5042   24.1878 C.ar    1  UNL1        0.0298
     30 C         -13.1420  -17.8731   23.4071 C.ar    1  UNL1        0.1401
     31 F         -14.5200  -18.4638   23.4557 F       1  UNL1       -0.2042
     32 C         -12.8786  -16.6512   22.5778 C.ar    1  UNL1        0.0298
     33 C         -11.5008  -16.0604   22.5292 C.ar    1  UNL1        0.0068
@<TRIPOS>BOND
     1    18    19    2
     2    19    22    1
     3    22    23    1
     4    23    24   am
     5    24    25    2
     6    24    27    1
     7    27    28   ar
     8    28    29   ar
     9    29    30   ar
    10    30    31    1
    11    30    32   ar
    12    32    33   ar
    13    19    20   am
    14    20     1    1
    15     1     2    1
    16     2     3    1
    17     3     4   ar
    18     4     5   ar
    19     5     6   ar
    20     6     7   ar
    21     7     8   ar
    22     8     9    1
    23     9    10    1
    24    10    11    1
    25    11    12   ar
    26    12    13   ar
    27    13    14   ar
    28    14    15    1
    29    14    16   ar
    30    16    17   ar
    31    33    27   ar
    32    17     2    1
    33     8     3   ar
    34    17    11   ar
    35    23    26    1
    36    20    21    1
@<TRIPOS>MOLECULE
*****
 33 36 0 0 0
SMALL
GASTEIGER

@<TRIPOS>ATOM
      1 C           9.4272   -7.0002   27.3091 C.3     1  UNL1        0.0982
      2 C           8.4135   -5.8954   27.3524 C.3     1  UNL1        0.0670
      3 C           7.9779   -5.4651   28.7217 C.ar    1  UNL1       -0.0171
      4 C           8.6707   -6.2565   29.7911 C.ar    1  UNL1       -0.0041
      5 C           8.3764   -5.9829   31.2362 C.ar    1  UNL1       -0.0003
      6 C           7.3892   -4.9179   31.6120 C.ar    1  UNL1       -0.0002
      7 C           6.6963   -4.1265   30.5426 C.ar    1  UNL1       -0.0010
      8 C           6.9907   -4.4001   29.0975 C.ar    1  UNL1        0.0176
      9 C           6.1953   -3.5024   28.1966 C.3     1  UNL1        0.2317
     10 O           6.1906   -3.4479   26.6976 O.3     1  UNL1       -0.4710
     11 C           6.9803   -4.2777   25.7292 C.ar    1  UNL1        0.1355
     12 C           6.6771   -3.9000   24.3096 C.ar    1  UNL1        0.0389
     13 C           7.3631   -4.6116   23.1813 C.ar    1  UNL1        0.0327
     14 C           8.3524   -5.7008   23.4726 C.ar    1  UNL1        0.1400
     15 F           9.0385   -6.4124   22.3444 F       1  UNL1       -0.2042
     16 C           8.6556   -6.0785   24.8923 C.ar    1  UNL1        0.0287
     17 C           7.9696   -5.3670   26.0205 C.ar    1  UNL1        0.0194
     18 O           7.1286   -8.5904   26.2190 O.2     1  UNL1       -0.2733
     19 C           7.9501   -9.1372   27.3488 C.2     1  UNL1        0.2426
     20 N           9.0993   -8.3421   27.8938 N.am    1  UNL1       -0.3023
     21 H           9.6385   -8.7010   28.6353 H       1  UNL1        0.1495
     22 C           7.6223  -10.4791   27.9335 C.3     1  UNL1        0.1759
     23 N           6.2106  -10.9853   27.9043 N.am    1  UNL1       -0.2931
     24 C           5.8831  -12.3281   28.4873 C.2     1  UNL1        0.2462
     25 O           6.9673  -13.1646   29.0994 O.2     1  UNL1       -0.2701
     26 H           5.4990  -10.4363   27.5025 H       1  UNL1        0.1502
     27 C           4.4714  -12.8343   28.4581 C.ar    1  UNL1        0.0535
     28 C           4.0781  -13.9034   27.4823 C.ar    1  UNL1        0.0068
     29 C           2.6664  -14.4096   27.4531 C.ar    1  UNL1        0.0298
     30 C           1.6480  -13.8468   28.3998 C.ar    1  UNL1        0.1401
     31 F           0.2363  -14.3530   28.3706 F       1  UNL1       -0.2042
     32 C           2.0414  -12.7777   29.3756 C.ar    1  UNL1        0.0298
     33 C           3.4531  -12.2714   29.4048 C.ar    1  UNL1        0.0068
@<TRIPOS>BOND
     1    18    19    2
     2    19    22    1
     3    22    23    1
     4    23    24   am
     5    24    25    2
     6    24    27    1
     7    27    28   ar
     8    28    29   ar
     9    29    30   ar
    10    30    31    1
    11    30    32   ar
    12    32    33   ar
    13    19    20   am
    14    20     1    1
    15     1     2    1
    16     2     3    1
    17     3     4   ar
    18     4     5   ar
    19     5     6   ar
    20     6     7   ar
    21     7     8   ar
    22     8     9    1
    23     9    10    1
    24    10    11    1
    25    11    12   ar
    26    12    13   ar
    27    13    14   ar
    28    14    15    1
    29    14    16   ar
    30    16    17   ar
    31    33    27   ar
    32    17     2    1
    33     8     3   ar
    34    17    11   ar
    35    23    26    1
    36    20    21    1
@<TRIPOS>MOLECULE
*****
 33 36 0 0 0
SMALL
GASTEIGER

@<TRIPOS>ATOM
      1 C           7.0889   -3.1771   26.2139 C.3     1  UNL1        0.0982
      2 C           7.4339   -4.5117   26.8054 C.3     1  UNL1        0.0670
      3 C           7.9037   -5.5527   25.8329 C.ar    1  UNL1       -0.0171
      4 C           7.9296   -5.0207   24.4307 C.ar    1  UNL1       -0.0041
      5 C           8.3709   -5.9040   23.3015 C.ar    1  UNL1       -0.0003
      6 C           8.7862   -7.3193   23.5746 C.ar    1  UNL1       -0.0002
      7 C           8.7603   -7.8512   24.9769 C.ar    1  UNL1       -0.0010
      8 C           8.3191   -6.9679   26.1060 C.ar    1  UNL1        0.0176
      9 C           8.3671   -7.6917   27.4190 C.3     1  UNL1        0.2317
     10 O           8.0118   -7.1791   28.7832 O.3     1  UNL1       -0.4710
     11 C           7.5205   -5.8159   29.1712 C.ar    1  UNL1        0.1355
     12 C           7.2826   -5.7194   30.6491 C.ar    1  UNL1        0.0389
     13 C           6.7874   -4.4358   31.2468 C.ar    1  UNL1        0.0327
     14 C           6.5303   -3.2487   30.3666 C.ar    1  UNL1        0.1400
     15 F           6.0351   -1.9651   30.9642 F       1  UNL1       -0.2042
     16 C           6.7682   -3.3452   28.8888 C.ar    1  UNL1        0.0287
     17 C           7.2633   -4.6288   28.2911 C.ar    1  UNL1        0.0194
     18 O           5.9087   -0.4248   26.0352 O.2     1  UNL1       -0.2733
     19 C           5.1703   -1.5963   25.4589 C.2     1  UNL1        0.2426
     20 N           5.7604   -2.9725   25.5483 N.am    1  UNL1       -0.3023
     21 H           5.2757   -3.7414   25.1700 H       1  UNL1        0.1495
     22 C           3.8417   -1.3918   24.7932 C.3     1  UNL1        0.1759
     23 N           3.7761   -1.1058   23.3222 N.am    1  UNL1       -0.2931
     24 C           4.0219   -2.2059   22.3325 C.2     1  UNL1        0.2462
     25 O           4.3333   -3.5919   22.8139 O.2     1  UNL1       -0.2701
     26 H           3.5717   -0.1960   23.0063 H       1  UNL1        0.1502
     27 C           3.9563   -1.9198   20.8615 C.ar    1  UNL1        0.0535
     28 C           4.7791   -2.7284   19.9029 C.ar    1  UNL1        0.0068
     29 C           4.7134   -2.4424   18.4318 C.ar    1  UNL1        0.0298
     30 C           3.8250   -1.3477   17.9195 C.ar    1  UNL1        0.1401
     31 F           3.7594   -1.0617   16.4484 F       1  UNL1       -0.2042
     32 C           3.0022   -0.5392   18.8782 C.ar    1  UNL1        0.0298
     33 C           3.0678   -0.8251   20.3492 C.ar    1  UNL1        0.0068
@<TRIPOS>BOND
     1    18    19    2
     2    19    22    1
     3    22    23    1
     4    23    24   am
     5    24    25    2
     6    24    27    1
     7    27    28   ar
     8    28    29   ar
     9    29    30   ar
    10    30    31    1
    11    30    32   ar
    12    32    33   ar
    13    19    20   am
    14    20     1    1
    15     1     2    1
    16     2     3    1
    17     3     4   ar
    18     4     5   ar
    19     5     6   ar
    20     6     7   ar
    21     7     8   ar
    22     8     9    1
    23     9    10    1
    24    10    11    1
    25    11    12   ar
    26    12    13   ar
    27    13    14   ar
    28    14    15    1
    29    14    16   ar
    30    16    17   ar
    31    33    27   ar
    32    17     2    1
    33     8     3   ar
    34    17    11   ar
    35    23    26    1
    36    20    21    1
@<TRIPOS>MOLECULE
*****
 33 36 0 0 0
SMALL
GASTEIGER

@<TRIPOS>ATOM
      1 C          -5.5067  -19.6823   22.2465 C.3     1  UNL1        0.0982
      2 C          -4.7656  -18.3792   22.2976 C.3     1  UNL1        0.0670
      3 C          -3.4322  -18.3615   21.6106 C.ar    1  UNL1       -0.0171
      4 C          -3.1132  -19.6934   20.9988 C.ar    1  UNL1       -0.0041
      5 C          -1.8217  -19.8901   20.2618 C.ar    1  UNL1       -0.0003
      6 C          -0.8493  -18.7550   20.1365 C.ar    1  UNL1       -0.0002
      7 C          -1.1683  -17.4231   20.7482 C.ar    1  UNL1       -0.0010
      8 C          -2.4598  -17.2264   21.4853 C.ar    1  UNL1        0.0176
      9 C          -2.5805  -15.8286   22.0161 C.3     1  UNL1        0.2317
     10 O          -3.7034  -15.2207   22.8032 O.3     1  UNL1       -0.4710
     11 C          -4.9830  -15.8606   23.2540 C.ar    1  UNL1        0.1355
     12 C          -5.8376  -14.8957   24.0212 C.ar    1  UNL1        0.0389
     13 C          -7.1649  -15.3364   24.5634 C.ar    1  UNL1        0.0327
     14 C          -7.6376  -16.7420   24.3384 C.ar    1  UNL1        0.1400
     15 F          -8.9649  -17.1829   24.8806 F       1  UNL1       -0.2042
     16 C          -6.7830  -17.7070   23.5712 C.ar    1  UNL1        0.0287
     17 C          -5.4558  -17.2663   23.0290 C.ar    1  UNL1        0.0194
     18 O          -6.0823  -19.0021   19.3818 O.2     1  UNL1       -0.2733
     19 C          -7.2038  -19.3839   20.3020 C.2     1  UNL1        0.2426
     20 N          -6.9160  -19.7240   21.7343 N.am    1  UNL1       -0.3023
     21 H          -7.6520  -19.9746   22.3382 H       1  UNL1        0.1495
     22 C          -8.6130  -19.4256   19.7898 C.3     1  UNL1        0.1759
     23 N          -9.7610  -19.4571   20.7548 N.am    1  UNL1       -0.2931
     24 C         -10.1403  -18.2177   21.5099 C.2     1  UNL1        0.2462
     25 O          -9.3716  -16.9470   21.3001 O.2     1  UNL1       -0.2701
     26 H         -10.2655  -20.2912   20.8926 H       1  UNL1        0.1502
     27 C         -11.2883  -18.2492   22.4749 C.ar    1  UNL1        0.0535
     28 C         -11.1443  -18.9584   23.7888 C.ar    1  UNL1        0.0068
     29 C         -12.2923  -18.9899   24.7537 C.ar    1  UNL1        0.0298
     30 C         -13.5842  -18.3122   24.4049 C.ar    1  UNL1        0.1401
     31 F         -14.7322  -18.3437   25.3698 F       1  UNL1       -0.2042
     32 C         -13.7281  -17.6030   23.0910 C.ar    1  UNL1        0.0298
     33 C         -12.5801  -17.5715   22.1259 C.ar    1  UNL1        0.0068
@<TRIPOS>BOND
     1    18    19    2
     2    19    22    1
     3    22    23    1
     4    23    24   am
     5    24    25    2
     6    24    27    1
     7    27    28   ar
     8    28    29   ar
     9    29    30   ar
    10    30    31    1
    11    30    32   ar
    12    32    33   ar
    13    19    20   am
    14    20     1    1
    15     1     2    1
    16     2     3    1
    17     3     4   ar
    18     4     5   ar
    19     5     6   ar
    20     6     7   ar
    21     7     8   ar
    22     8     9    1
    23     9    10    1
    24    10    11    1
    25    11    12   ar
    26    12    13   ar
    27    13    14   ar
    28    14    15    1
    29    14    16   ar
    30    16    17   ar
    31    33    27   ar
    32    17     2    1
    33     8     3   ar
    34    17    11   ar
    35    23    26    1
    36    20    21    1
@<TRIPOS>MOLECULE
*****
 33 36 0 0 0
SMALL
GASTEIGER

@<TRIPOS>ATOM
      1 C           7.0940   -3.0989   25.9903 C.3     1  UNL1        0.0982
      2 C           7.4415   -4.4138   26.6230 C.3     1  UNL1        0.0670
      3 C           7.2522   -4.4911   28.1090 C.ar    1  UNL1       -0.0171
      4 C           6.7391   -3.1956   28.6643 C.ar    1  UNL1       -0.0041
      5 C           6.4808   -3.0602   30.1357 C.ar    1  UNL1       -0.0003
      6 C           6.7356   -4.2204   31.0517 C.ar    1  UNL1       -0.0002
      7 C           7.2487   -5.5159   30.4965 C.ar    1  UNL1       -0.0010
      8 C           7.5070   -5.6512   29.0251 C.ar    1  UNL1        0.0176
      9 C           8.0141   -7.0205   28.6814 C.3     1  UNL1        0.2317
     10 O           8.3916   -7.5678   27.3368 O.3     1  UNL1       -0.4710
     11 C           8.3552   -6.8810   26.0038 C.ar    1  UNL1        0.1355
     12 C           8.8184   -7.7915   24.9054 C.ar    1  UNL1        0.0389
     13 C           8.8587   -7.2983   23.4893 C.ar    1  UNL1        0.0327
     14 C           8.4359   -5.8947   23.1717 C.ar    1  UNL1        0.1400
     15 F           8.4762   -5.4015   21.7556 F       1  UNL1       -0.2042
     16 C           7.9728   -4.9842   24.2700 C.ar    1  UNL1        0.0287
     17 C           7.9324   -5.4773   25.6860 C.ar    1  UNL1        0.0194
     18 O           5.6614   -0.4696   26.1764 O.2     1  UNL1       -0.2733
     19 C           5.0500   -1.6041   25.4088 C.2     1  UNL1        0.2426
     20 N           5.7663   -2.9188   25.3158 N.am    1  UNL1       -0.3023
     21 H           5.3651   -3.6634   24.8120 H       1  UNL1        0.1495
     22 C           3.7224   -1.4241   24.7343 C.3     1  UNL1        0.1759
     23 N           3.6620   -1.1200   23.2667 N.am    1  UNL1       -0.2931
     24 C           3.9609   -2.1957   22.2650 C.2     1  UNL1        0.2462
     25 O           4.3203   -3.5754   22.7308 O.2     1  UNL1       -0.2701
     26 H           3.4261   -0.2144   22.9609 H       1  UNL1        0.1502
     27 C           3.9005   -1.8917   20.7973 C.ar    1  UNL1        0.0535
     28 C           3.0787   -0.7380   20.3037 C.ar    1  UNL1        0.0068
     29 C           3.0183   -0.4339   18.8361 C.ar    1  UNL1        0.0298
     30 C           3.7797   -1.2835   17.8621 C.ar    1  UNL1        0.1401
     31 F           3.7192   -0.9794   16.3944 F       1  UNL1       -0.2042
     32 C           4.6014   -2.4371   18.3558 C.ar    1  UNL1        0.0298
     33 C           4.6619   -2.7413   19.8234 C.ar    1  UNL1        0.0068
@<TRIPOS>BOND
     1    18    19    2
     2    19    22    1
     3    22    23    1
     4    23    24   am
     5    24    25    2
     6    24    27    1
     7    27    28   ar
     8    28    29   ar
     9    29    30   ar
    10    30    31    1
    11    30    32   ar
    12    32    33   ar
    13    19    20   am
    14    20     1    1
    15     1     2    1
    16     2     3    1
    17     3     4   ar
    18     4     5   ar
    19     5     6   ar
    20     6     7   ar
    21     7     8   ar
    22     8     9    1
    23     9    10    1
    24    10    11    1
    25    11    12   ar
    26    12    13   ar
    27    13    14   ar
    28    14    15    1
    29    14    16   ar
    30    16    17   ar
    31    33    27   ar
    32    17     2    1
    33     8     3   ar
    34    17    11   ar
    35    23    26    1
    36    20    21    1
@<TRIPOS>MOLECULE
*****
 33 36 0 0 0
SMALL
GASTEIGER

@<TRIPOS>ATOM
      1 C          -1.7303    3.4549   21.3675 C.3     1  UNL1        0.0982
      2 C          -3.1347    3.6597   21.8531 C.3     1  UNL1        0.0670
      3 C          -3.3070    3.7139   23.3422 C.ar    1  UNL1       -0.0171
      4 C          -1.9963    3.5465   24.0520 C.ar    1  UNL1       -0.0041
      5 C          -1.9468    3.5701   25.5510 C.ar    1  UNL1       -0.0003
      6 C          -3.2080    3.7612   26.3402 C.ar    1  UNL1       -0.0002
      7 C          -4.5188    3.9287   25.6303 C.ar    1  UNL1       -0.0010
      8 C          -4.5683    3.9050   24.1314 C.ar    1  UNL1        0.0176
      9 C          -5.9686    4.0890   23.6263 C.3     1  UNL1        0.2317
     10 O          -6.4537    4.1275   22.2074 O.3     1  UNL1       -0.4710
     11 C          -5.6581    3.9913   20.9431 C.ar    1  UNL1        0.1355
     12 C          -6.5355    4.0884   19.7304 C.ar    1  UNL1        0.0389
     13 C          -5.9358    3.9772   18.3599 C.ar    1  UNL1        0.0327
     14 C          -4.4588    3.7691   18.2022 C.ar    1  UNL1        0.1400
     15 F          -3.8591    3.6579   16.8319 F       1  UNL1       -0.2042
     16 C          -3.5814    3.6720   19.4150 C.ar    1  UNL1        0.0287
     17 C          -4.1810    3.7831   20.7854 C.ar    1  UNL1        0.0194
     18 O           0.9809    3.1014   20.1330 O.2     1  UNL1       -0.2733
     19 C           0.0712    1.9199   20.2959 C.2     1  UNL1        0.2426
     20 N          -1.2844    2.0966   20.9132 N.am    1  UNL1       -0.3023
     21 H          -1.8815    1.3212   21.0201 H       1  UNL1        0.1495
     22 C           0.5171    0.5617   19.8416 C.3     1  UNL1        0.1759
     23 N           1.3503   -0.2960   20.7473 N.am    1  UNL1       -0.2931
     24 C           2.6468   -0.8677   20.2553 C.2     1  UNL1        0.2462
     25 O           3.1102   -0.5819   18.8576 O.2     1  UNL1       -0.2701
     26 H           1.0461   -0.4836   21.6646 H       1  UNL1        0.1502
     27 C           3.4800   -1.7254   21.1610 C.ar    1  UNL1        0.0535
     28 C           4.2225   -2.9038   20.6041 C.ar    1  UNL1        0.0068
     29 C           5.0557   -3.7614   21.5098 C.ar    1  UNL1        0.0298
     30 C           5.1463   -3.4407   22.9724 C.ar    1  UNL1        0.1401
     31 F           5.9795   -4.2984   23.8781 F       1  UNL1       -0.2042
     32 C           4.4038   -2.2624   23.5291 C.ar    1  UNL1        0.0298
     33 C           3.5706   -1.4047   22.6235 C.ar    1  UNL1        0.0068
@<TRIPOS>BOND
     1    18    19    2
     2    19    22    1
     3    22    23    1
     4    23    24   am
     5    24    25    2
     6    24    27    1
     7    27    28   ar
     8    28    29   ar
     9    29    30   ar
    10    30    31    1
    11    30    32   ar
    12    32    33   ar
    13    19    20   am
    14    20     1    1
    15     1     2    1
    16     2     3    1
    17     3     4   ar
    18     4     5   ar
    19     5     6   ar
    20     6     7   ar
    21     7     8   ar
    22     8     9    1
    23     9    10    1
    24    10    11    1
    25    11    12   ar
    26    12    13   ar
    27    13    14   ar
    28    14    15    1
    29    14    16   ar
    30    16    17   ar
    31    33    27   ar
    32    17     2    1
    33     8     3   ar
    34    17    11   ar
    35    23    26    1
    36    20    21    1
@<TRIPOS>MOLECULE
*****
 33 36 0 0 0
SMALL
GASTEIGER

@<TRIPOS>ATOM
      1 C          -5.5460  -19.4717   22.2830 C.3     1  UNL1        0.0982
      2 C          -5.0785  -18.0631   22.5007 C.3     1  UNL1        0.0670
      3 C          -6.0315  -17.1674   23.2352 C.ar    1  UNL1       -0.0171
      4 C          -7.2897  -17.8938   23.6079 C.ar    1  UNL1       -0.0041
      5 C          -8.3777  -17.1768   24.3509 C.ar    1  UNL1       -0.0003
      6 C          -8.2074  -15.7332   24.7212 C.ar    1  UNL1       -0.0002
      7 C          -6.9491  -15.0067   24.3486 C.ar    1  UNL1       -0.0010
      8 C          -5.8611  -15.7238   23.6056 C.ar    1  UNL1        0.0176
      9 C          -4.6958  -14.8196   23.3328 C.3     1  UNL1        0.2317
     10 O          -3.4130  -15.1354   22.6224 O.3     1  UNL1       -0.4710
     11 C          -2.9787  -16.4337   22.0093 C.ar    1  UNL1        0.1355
     12 C          -1.6152  -16.3204   21.3946 C.ar    1  UNL1        0.0389
     13 C          -0.9928  -17.5101   20.7258 C.ar    1  UNL1        0.0327
     14 C          -1.7340  -18.8130   20.6716 C.ar    1  UNL1        0.1400
     15 F          -1.1117  -20.0027   20.0028 F       1  UNL1       -0.2042
     16 C          -3.0975  -18.9263   21.2862 C.ar    1  UNL1        0.0287
     17 C          -3.7199  -17.7367   21.9551 C.ar    1  UNL1        0.0194
     18 O          -6.1719  -18.6524   19.4657 O.2     1  UNL1       -0.2733
     19 C          -7.2219  -19.3201   20.3034 C.2     1  UNL1        0.2426
     20 N          -6.9089  -19.7298   21.7121 N.am    1  UNL1       -0.3023
     21 H          -7.5980  -20.1681   22.2619 H       1  UNL1        0.1495
     22 C          -8.5848  -19.5783   19.7326 C.3     1  UNL1        0.1759
     23 N          -9.7896  -19.5503   20.6257 N.am    1  UNL1       -0.2931
     24 C         -10.2075  -18.2675   21.2815 C.2     1  UNL1        0.2462
     25 O          -9.4206  -17.0128   21.0440 O.2     1  UNL1       -0.2701
     26 H         -10.3060  -20.3738   20.7816 H       1  UNL1        0.1502
     27 C         -11.4123  -18.2395   22.1746 C.ar    1  UNL1        0.0535
     28 C         -11.3153  -18.7522   23.5809 C.ar    1  UNL1        0.0068
     29 C         -12.5201  -18.7243   24.4741 C.ar    1  UNL1        0.0298
     30 C         -13.8218  -18.1836   23.9610 C.ar    1  UNL1        0.1401
     31 F         -15.0266  -18.1556   24.8541 F       1  UNL1       -0.2042
     32 C         -13.9187  -17.6709   22.5547 C.ar    1  UNL1        0.0298
     33 C         -12.7139  -17.6989   21.6614 C.ar    1  UNL1        0.0068
@<TRIPOS>BOND
     1    18    19    2
     2    19    22    1
     3    22    23    1
     4    23    24   am
     5    24    25    2
     6    24    27    1
     7    27    28   ar
     8    28    29   ar
     9    29    30   ar
    10    30    31    1
    11    30    32   ar
    12    32    33   ar
    13    19    20   am
    14    20     1    1
    15     1     2    1
    16     2     3    1
    17     3     4   ar
    18     4     5   ar
    19     5     6   ar
    20     6     7   ar
    21     7     8   ar
    22     8     9    1
    23     9    10    1
    24    10    11    1
    25    11    12   ar
    26    12    13   ar
    27    13    14   ar
    28    14    15    1
    29    14    16   ar
    30    16    17   ar
    31    33    27   ar
    32    17     2    1
    33     8     3   ar
    34    17    11   ar
    35    23    26    1
    36    20    21    1
