@<TRIPOS>MOLECULE
*****
 31 35 0 0 0
SMALL
GASTEIGER

@<TRIPOS>ATOM
      1 N          -7.8828  -20.8754   22.9887 N.pl3   1  UNL1       -0.2927
      2 H          -7.8475  -21.7978   23.3311 H       1  UNL1        0.1541
      3 C          -9.1316  -20.0612   23.1547 C.ar    1  UNL1        0.1629
      4 N          -9.5390  -18.8896   22.3112 N.ar    1  UNL1       -0.2284
      5 C         -10.8514  -18.3799   22.8285 C.ar    1  UNL1        0.0666
      6 C         -11.2553  -19.2365   23.9918 C.ar    1  UNL1        0.0237
      7 S         -10.1924  -20.2755   24.1934 S.2     1  UNL1       -0.0561
      8 C         -12.5387  -18.9596   24.7172 C.3     1  UNL1        0.0343
      9 C         -13.4182  -17.8263   24.2793 C.3     1  UNL1        0.0060
     10 C         -13.0144  -16.9697   23.1160 C.3     1  UNL1        0.0107
     11 C         -11.7310  -17.2466   22.3906 C.3     1  UNL1        0.0627
     12 C         -11.3271  -16.3900   21.2273 C.ar    1  UNL1       -0.0169
     13 C         -12.1677  -16.3672   19.9852 C.ar    1  UNL1       -0.0039
     14 C         -11.7638  -15.5107   18.8219 C.ar    1  UNL1       -0.0003
     15 C         -10.5194  -14.6769   18.9008 C.ar    1  UNL1       -0.0000
     16 C          -9.6789  -14.6997   20.1429 C.ar    1  UNL1       -0.0003
     17 C         -10.0827  -15.5563   21.3062 C.ar    1  UNL1       -0.0039
     18 C          -4.8671  -18.4377   22.1444 C.ar    1  UNL1        0.1559
     19 C          -6.0620  -19.0287   22.8320 C.ar    1  UNL1        0.0530
     20 C          -6.6880  -20.2843   22.3011 C.ar    1  UNL1        0.0529
     21 C          -6.1190  -20.9487   21.0826 C.ar    1  UNL1        0.0163
     22 C          -4.9241  -20.3576   20.3950 C.ar    1  UNL1        0.0219
     23 C          -4.2982  -19.1021   20.9259 C.ar    1  UNL1        0.0995
     24 N          -3.1032  -18.5109   20.2383 N.ar    1  UNL1       -0.2839
     25 C          -3.0900  -17.8875   18.8740 C.ar    1  UNL1        0.1826
     26 N          -1.6904  -17.4307   18.5867 N.ar    1  UNL1       -0.2280
     27 C          -0.8387  -17.7718   19.7735 C.ar    1  UNL1        0.0786
     28 C           0.6285  -17.4940   19.9148 C.3     1  UNL1        0.0538
     29 C          -1.7119  -18.4394   20.7942 C.ar    1  UNL1        0.0963
     30 C          -4.8709  -16.4602   23.8297 C.3     1  UNL1        0.2525
     31 O          -4.2412  -17.1821   22.6753 O.3     1  UNL1       -0.4699
@<TRIPOS>BOND
     1    30    31    1
     2    31    18    1
     3    18    19   ar
     4    19    20   ar
     5    20     1    1
     6     1     3    1
     7     3     4   ar
     8     4     5   ar
     9     5     6   ar
    10     6     7   ar
    11     6     8    1
    12     8     9    1
    13     9    10    1
    14    10    11    1
    15    11    12    1
    16    12    13   ar
    17    13    14   ar
    18    14    15   ar
    19    15    16   ar
    20    16    17   ar
    21    20    21   ar
    22    21    22   ar
    23    22    23   ar
    24    23    24    1
    25    24    25   ar
    26    25    26   ar
    27    26    27   ar
    28    27    28    1
    29    27    29   ar
    30    23    18   ar
    31    29    24   ar
    32     7     3   ar
    33    17    12   ar
    34    11     5    1
    35     1     2    1
@<TRIPOS>MOLECULE
*****
 31 35 0 0 0
SMALL
GASTEIGER

@<TRIPOS>ATOM
      1 N          -7.3927  -19.7779   19.8610 N.pl3   1  UNL1       -0.2927
      2 H          -7.4790  -20.2390   18.9954 H       1  UNL1        0.1541
      3 C          -6.0381  -19.3775   20.3657 C.ar    1  UNL1        0.1629
      4 N          -5.7599  -18.5710   21.5995 N.ar    1  UNL1       -0.2284
      5 C          -4.2738  -18.4083   21.7216 C.ar    1  UNL1        0.0666
      6 C          -3.6335  -19.1142   20.5632 C.ar    1  UNL1        0.0237
      7 S          -4.7239  -19.7131   19.7253 S.2     1  UNL1       -0.0561
      8 C          -2.1402  -19.1203   20.4211 C.3     1  UNL1        0.0343
      9 C          -1.2873  -18.4205   21.4374 C.3     1  UNL1        0.0060
     10 C          -1.9276  -17.7146   22.5957 C.3     1  UNL1        0.0107
     11 C          -3.4208  -17.7085   22.7378 C.3     1  UNL1        0.0627
     12 C          -4.0611  -17.0026   23.8961 C.ar    1  UNL1       -0.0169
     13 C          -4.9533  -15.8213   23.6543 C.ar    1  UNL1       -0.0039
     14 C          -5.5936  -15.1154   24.8127 C.ar    1  UNL1       -0.0003
     15 C          -5.3417  -15.5908   26.2128 C.ar    1  UNL1       -0.0000
     16 C          -4.4495  -16.7721   26.4546 C.ar    1  UNL1       -0.0003
     17 C          -3.8093  -17.4780   25.2963 C.ar    1  UNL1       -0.0039
     18 C          -9.6986  -18.6404   22.8840 C.ar    1  UNL1        0.1559
     19 C          -8.4755  -18.9424   22.0699 C.ar    1  UNL1        0.0530
     20 C          -8.6158  -19.4760   20.6750 C.ar    1  UNL1        0.0529
     21 C          -9.9793  -19.7076   20.0943 C.ar    1  UNL1        0.0163
     22 C         -11.2025  -19.4056   20.9084 C.ar    1  UNL1        0.0219
     23 C         -11.0621  -18.8720   22.3033 C.ar    1  UNL1        0.0995
     24 N         -12.2852  -18.5700   23.1174 N.ar    1  UNL1       -0.2839
     25 C         -13.5332  -17.9033   22.6194 C.ar    1  UNL1        0.1826
     26 N         -14.4945  -17.8029   23.7667 N.ar    1  UNL1       -0.2280
     27 C         -13.8404  -18.4077   24.9736 C.ar    1  UNL1        0.0786
     28 C         -14.4455  -18.5188   26.3416 C.3     1  UNL1        0.0538
     29 C         -12.4751  -18.8817   24.5723 C.ar    1  UNL1        0.0963
     30 C          -9.2328  -16.6592   24.4989 C.3     1  UNL1        0.2525
     31 O          -9.5583  -18.1068   24.2789 O.3     1  UNL1       -0.4699
@<TRIPOS>BOND
     1    30    31    1
     2    31    18    1
     3    18    19   ar
     4    19    20   ar
     5    20     1    1
     6     1     3    1
     7     3     4   ar
     8     4     5   ar
     9     5     6   ar
    10     6     7   ar
    11     6     8    1
    12     8     9    1
    13     9    10    1
    14    10    11    1
    15    11    12    1
    16    12    13   ar
    17    13    14   ar
    18    14    15   ar
    19    15    16   ar
    20    16    17   ar
    21    20    21   ar
    22    21    22   ar
    23    22    23   ar
    24    23    24    1
    25    24    25   ar
    26    25    26   ar
    27    26    27   ar
    28    27    28    1
    29    27    29   ar
    30    23    18   ar
    31    29    24   ar
    32     7     3   ar
    33    17    12   ar
    34    11     5    1
    35     1     2    1
@<TRIPOS>MOLECULE
*****
 31 35 0 0 0
SMALL
GASTEIGER

@<TRIPOS>ATOM
      1 N           5.5475   -1.4198   24.6848 N.pl3   1  UNL1       -0.2927
      2 H           6.5138   -1.3495   24.8595 H       1  UNL1        0.1541
      3 C           5.0594   -2.0201   23.3998 C.ar    1  UNL1        0.1629
      4 N           4.2114   -1.3322   22.3713 N.ar    1  UNL1       -0.2284
      5 C           3.9614   -2.3007   21.2535 C.ar    1  UNL1        0.0666
      6 C           4.6549   -3.5873   21.5911 C.ar    1  UNL1        0.0237
      7 S           5.3334   -3.4138   22.9176 S.2     1  UNL1       -0.0561
      8 C           4.5788   -4.7504   20.6471 C.3     1  UNL1        0.0343
      9 C           3.8094   -4.6271   19.3655 C.3     1  UNL1        0.0060
     10 C           3.1160   -3.3405   19.0278 C.3     1  UNL1        0.0107
     11 C           3.1920   -2.1774   19.9719 C.3     1  UNL1        0.0627
     12 C           2.4986   -0.8908   19.6342 C.ar    1  UNL1       -0.0169
     13 C           1.1629   -0.5772   20.2405 C.ar    1  UNL1       -0.0039
     14 C           0.4695    0.7093   19.9028 C.ar    1  UNL1       -0.0003
     15 C           1.1117    1.6822   18.9589 C.ar    1  UNL1       -0.0000
     16 C           2.4474    1.3686   18.3527 C.ar    1  UNL1       -0.0003
     17 C           3.1408    0.0821   18.6903 C.ar    1  UNL1       -0.0039
     18 C           2.5835    0.6257   26.3523 C.ar    1  UNL1        0.1559
     19 C           3.5676    0.1324   25.3334 C.ar    1  UNL1        0.0530
     20 C           4.5634   -0.9265   25.7037 C.ar    1  UNL1        0.0529
     21 C           4.5750   -1.4922   27.0929 C.ar    1  UNL1        0.0163
     22 C           3.5908   -0.9989   28.1118 C.ar    1  UNL1        0.0219
     23 C           2.5951    0.0600   27.7415 C.ar    1  UNL1        0.0995
     24 N           1.6109    0.5533   28.7604 N.ar    1  UNL1       -0.2839
     25 C           0.2222    0.0270   28.9717 C.ar    1  UNL1        0.1826
     26 N          -0.4044    0.8079   30.0888 N.ar    1  UNL1       -0.2280
     27 C           0.5971    1.8167   30.5677 C.ar    1  UNL1        0.0786
     28 C           0.3895    2.8087   31.6735 C.3     1  UNL1        0.0538
     29 C           1.8425    1.6594   29.7467 C.ar    1  UNL1        0.0963
     30 C           0.3303    1.3104   25.2548 C.3     1  UNL1        0.2525
     31 O           1.5877    1.6847   25.9820 O.3     1  UNL1       -0.4699
@<TRIPOS>BOND
     1    30    31    1
     2    31    18    1
     3    18    19   ar
     4    19    20   ar
     5    20     1    1
     6     1     3    1
     7     3     4   ar
     8     4     5   ar
     9     5     6   ar
    10     6     7   ar
    11     6     8    1
    12     8     9    1
    13     9    10    1
    14    10    11    1
    15    11    12    1
    16    12    13   ar
    17    13    14   ar
    18    14    15   ar
    19    15    16   ar
    20    16    17   ar
    21    20    21   ar
    22    21    22   ar
    23    22    23   ar
    24    23    24    1
    25    24    25   ar
    26    25    26   ar
    27    26    27   ar
    28    27    28    1
    29    27    29   ar
    30    23    18   ar
    31    29    24   ar
    32     7     3   ar
    33    17    12   ar
    34    11     5    1
    35     1     2    1
@<TRIPOS>MOLECULE
*****
 31 35 0 0 0
SMALL
GASTEIGER

@<TRIPOS>ATOM
      1 N         -11.9722   -5.4306   19.3424 N.pl3   1  UNL1       -0.2927
      2 H         -11.2260   -5.7838   19.8788 H       1  UNL1        0.1541
      3 C         -11.9319   -4.0178   18.8400 C.ar    1  UNL1        0.1629
      4 N         -12.9830   -2.9717   19.0651 N.ar    1  UNL1       -0.2284
      5 C         -12.5341   -1.7104   18.3886 C.ar    1  UNL1        0.0666
      6 C         -11.2055   -1.9770   17.7454 C.ar    1  UNL1        0.0237
      7 S         -10.8333   -3.4031   18.0244 S.2     1  UNL1       -0.0561
      8 C         -10.5063   -0.8869   16.9887 C.3     1  UNL1        0.0343
      9 C         -11.1356    0.4699   16.8753 C.3     1  UNL1        0.0060
     10 C         -12.4643    0.7366   17.5185 C.3     1  UNL1        0.0107
     11 C         -13.1635   -0.3536   18.2751 C.3     1  UNL1        0.0627
     12 C         -14.4921   -0.0870   18.9183 C.ar    1  UNL1       -0.0169
     13 C         -15.3344   -1.2302   19.4014 C.ar    1  UNL1       -0.0039
     14 C         -16.6630   -0.9636   20.0446 C.ar    1  UNL1       -0.0003
     15 C         -17.1493    0.4463   20.2047 C.ar    1  UNL1       -0.0000
     16 C         -16.3070    1.5895   19.7216 C.ar    1  UNL1       -0.0003
     17 C         -14.9784    1.3229   19.0784 C.ar    1  UNL1       -0.0039
     18 C         -15.6787   -6.8471   19.2702 C.ar    1  UNL1        0.1559
     19 C         -14.5015   -5.9725   19.5851 C.ar    1  UNL1        0.0530
     20 C         -13.1494   -6.3053   19.0275 C.ar    1  UNL1        0.0529
     21 C         -12.9744   -7.5128   18.1549 C.ar    1  UNL1        0.0163
     22 C         -14.1517   -8.3875   17.8400 C.ar    1  UNL1        0.0219
     23 C         -15.5038   -8.0546   18.3977 C.ar    1  UNL1        0.0995
     24 N         -16.6810   -8.9293   18.0828 N.ar    1  UNL1       -0.2839
     25 C         -16.9736  -10.2675   18.6940 C.ar    1  UNL1        0.1826
     26 N         -18.2458  -10.7846   18.0904 N.ar    1  UNL1       -0.2280
     27 C         -18.7394   -9.7659   17.1062 C.ar    1  UNL1        0.0786
     28 C         -19.9818   -9.8748   16.2730 C.3     1  UNL1        0.0538
     29 C         -17.7723   -8.6193   17.1015 C.ar    1  UNL1        0.0963
     30 C         -17.8746   -5.4621   19.1714 C.3     1  UNL1        0.2525
     31 O         -17.0309   -6.5143   19.8279 O.3     1  UNL1       -0.4699
@<TRIPOS>BOND
     1    30    31    1
     2    31    18    1
     3    18    19   ar
     4    19    20   ar
     5    20     1    1
     6     1     3    1
     7     3     4   ar
     8     4     5   ar
     9     5     6   ar
    10     6     7   ar
    11     6     8    1
    12     8     9    1
    13     9    10    1
    14    10    11    1
    15    11    12    1
    16    12    13   ar
    17    13    14   ar
    18    14    15   ar
    19    15    16   ar
    20    16    17   ar
    21    20    21   ar
    22    21    22   ar
    23    22    23   ar
    24    23    24    1
    25    24    25   ar
    26    25    26   ar
    27    26    27   ar
    28    27    28    1
    29    27    29   ar
    30    23    18   ar
    31    29    24   ar
    32     7     3   ar
    33    17    12   ar
    34    11     5    1
    35     1     2    1
@<TRIPOS>MOLECULE
*****
 31 35 0 0 0
SMALL
GASTEIGER

@<TRIPOS>ATOM
      1 N          -0.1521    3.0950   19.7379 N.pl3   1  UNL1       -0.2927
      2 H           0.0440    3.7960   19.0750 H       1  UNL1        0.1541
      3 C          -1.3129    3.2525   20.6747 C.ar    1  UNL1        0.1629
      4 N          -1.2303    3.3848   22.1666 N.ar    1  UNL1       -0.2284
      5 C          -2.6265    3.5194   22.6981 C.ar    1  UNL1        0.0666
      6 C          -3.5721    3.4703   21.5348 C.ar    1  UNL1        0.0237
      7 S          -2.7602    3.3053   20.2843 S.2     1  UNL1       -0.0561
      8 C          -5.0501    3.5821   21.7644 C.3     1  UNL1        0.0343
      9 C          -5.5826    3.7431   23.1574 C.3     1  UNL1        0.0060
     10 C          -4.6370    3.7922   24.3208 C.3     1  UNL1        0.0107
     11 C          -3.1589    3.6804   24.0912 C.3     1  UNL1        0.0627
     12 C          -2.2133    3.7295   25.2545 C.ar    1  UNL1       -0.0169
     13 C          -2.0848    4.9857   26.0640 C.ar    1  UNL1       -0.0039
     14 C          -1.1392    5.0348   27.2274 C.ar    1  UNL1       -0.0003
     15 C          -0.3221    3.8278   27.5813 C.ar    1  UNL1       -0.0000
     16 C          -0.4506    2.5716   26.7717 C.ar    1  UNL1       -0.0003
     17 C          -1.3962    2.5224   25.6084 C.ar    1  UNL1       -0.0039
     18 C           3.0004    0.7040   19.4308 C.ar    1  UNL1        0.1559
     19 C           2.1385    1.9294   19.3576 C.ar    1  UNL1        0.0530
     20 C           0.7099    1.8696   19.8111 C.ar    1  UNL1        0.0529
     21 C           0.1433    0.5845   20.3377 C.ar    1  UNL1        0.0163
     22 C           1.0053   -0.6409   20.4109 C.ar    1  UNL1        0.0219
     23 C           2.4339   -0.5812   19.9574 C.ar    1  UNL1        0.0995
     24 N           3.2959   -1.8066   20.0306 N.ar    1  UNL1       -0.2839
     25 C           4.2483   -2.1497   21.1375 C.ar    1  UNL1        0.1826
     26 N           4.8979   -3.4592   20.8007 N.ar    1  UNL1       -0.2280
     27 C           4.3470   -3.9253   19.4857 C.ar    1  UNL1        0.0786
     28 C           4.7205   -5.1905   18.7720 C.3     1  UNL1        0.0538
     29 C           3.3569   -2.9039   19.0097 C.ar    1  UNL1        0.0963
     30 C           4.7996    0.2938   17.6018 C.3     1  UNL1        0.2525
     31 O           4.4291    0.7637   18.9773 O.3     1  UNL1       -0.4699
@<TRIPOS>BOND
     1    30    31    1
     2    31    18    1
     3    18    19   ar
     4    19    20   ar
     5    20     1    1
     6     1     3    1
     7     3     4   ar
     8     4     5   ar
     9     5     6   ar
    10     6     7   ar
    11     6     8    1
    12     8     9    1
    13     9    10    1
    14    10    11    1
    15    11    12    1
    16    12    13   ar
    17    13    14   ar
    18    14    15   ar
    19    15    16   ar
    20    16    17   ar
    21    20    21   ar
    22    21    22   ar
    23    22    23   ar
    24    23    24    1
    25    24    25   ar
    26    25    26   ar
    27    26    27   ar
    28    27    28    1
    29    27    29   ar
    30    23    18   ar
    31    29    24   ar
    32     7     3   ar
    33    17    12   ar
    34    11     5    1
    35     1     2    1
@<TRIPOS>MOLECULE
*****
 31 35 0 0 0
SMALL
GASTEIGER

@<TRIPOS>ATOM
      1 N          -7.3168  -20.6546   21.0206 N.pl3   1  UNL1       -0.2927
      2 H          -7.4973  -21.6198   20.9488 H       1  UNL1        0.1541
      3 C          -8.4182  -19.7122   21.4059 C.ar    1  UNL1        0.1629
      4 N          -8.4581  -18.8599   22.6396 N.ar    1  UNL1       -0.2284
      5 C          -9.7377  -18.0775   22.6215 C.ar    1  UNL1        0.0666
      6 C         -10.4888  -18.4462   21.3765 C.ar    1  UNL1        0.0237
      7 S          -9.6733  -19.4565   20.6253 S.2     1  UNL1       -0.0561
      8 C         -11.8182  -17.8144   21.0878 C.3     1  UNL1        0.0343
      9 C         -12.3966  -16.8139   22.0440 C.3     1  UNL1        0.0060
     10 C         -11.6455  -16.4451   23.2889 C.3     1  UNL1        0.0107
     11 C         -10.3161  -17.0769   23.5777 C.3     1  UNL1        0.0627
     12 C          -9.5650  -16.7082   24.8226 C.ar    1  UNL1       -0.0169
     13 C          -8.8241  -15.4059   24.8936 C.ar    1  UNL1       -0.0039
     14 C          -8.0731  -15.0371   26.1386 C.ar    1  UNL1       -0.0003
     15 C          -8.0628  -15.9707   27.3125 C.ar    1  UNL1       -0.0000
     16 C          -8.8037  -17.2730   27.2416 C.ar    1  UNL1       -0.0003
     17 C          -9.5547  -17.6418   25.9966 C.ar    1  UNL1       -0.0039
     18 C          -4.0256  -18.4511   21.2709 C.ar    1  UNL1        0.1559
     19 C          -5.4022  -18.9791   21.5469 C.ar    1  UNL1        0.0530
     20 C          -5.9402  -20.1266   20.7445 C.ar    1  UNL1        0.0529
     21 C          -5.1016  -20.7461   19.6661 C.ar    1  UNL1        0.0163
     22 C          -3.7250  -20.2180   19.3900 C.ar    1  UNL1        0.0219
     23 C          -3.1870  -19.0705   20.1924 C.ar    1  UNL1        0.0995
     24 N          -1.8104  -18.5425   19.9164 N.ar    1  UNL1       -0.2839
     25 C          -1.3240  -17.9893   18.6097 C.ar    1  UNL1        0.1826
     26 N           0.1085  -17.5798   18.7843 N.ar    1  UNL1       -0.2280
     27 C           0.5073  -17.8799   20.1989 C.ar    1  UNL1        0.0786
     28 C           1.8553  -17.6291   20.8070 C.3     1  UNL1        0.0538
     29 C          -0.6787  -18.4749   20.8985 C.ar    1  UNL1        0.0963
     30 C          -4.0511  -17.0090   23.4318 C.3     1  UNL1        0.2525
     31 O          -3.4876  -17.3036   22.0733 O.3     1  UNL1       -0.4699
@<TRIPOS>BOND
     1    30    31    1
     2    31    18    1
     3    18    19   ar
     4    19    20   ar
     5    20     1    1
     6     1     3    1
     7     3     4   ar
     8     4     5   ar
     9     5     6   ar
    10     6     7   ar
    11     6     8    1
    12     8     9    1
    13     9    10    1
    14    10    11    1
    15    11    12    1
    16    12    13   ar
    17    13    14   ar
    18    14    15   ar
    19    15    16   ar
    20    16    17   ar
    21    20    21   ar
    22    21    22   ar
    23    22    23   ar
    24    23    24    1
    25    24    25   ar
    26    25    26   ar
    27    26    27   ar
    28    27    28    1
    29    27    29   ar
    30    23    18   ar
    31    29    24   ar
    32     7     3   ar
    33    17    12   ar
    34    11     5    1
    35     1     2    1
@<TRIPOS>MOLECULE
*****
 31 35 0 0 0
SMALL
GASTEIGER

@<TRIPOS>ATOM
      1 N         -11.6116   -3.4021   19.1574 N.pl3   1  UNL1       -0.2927
      2 H         -10.7599   -3.4919   19.6430 H       1  UNL1        0.1541
      3 C         -12.0085   -2.0766   18.5781 C.ar    1  UNL1        0.1629
      4 N         -13.1446   -1.2152   19.0443 N.ar    1  UNL1       -0.2284
      5 C         -13.1772    0.0140   18.1852 C.ar    1  UNL1        0.0666
      6 C         -12.0612   -0.0877   17.1881 C.ar    1  UNL1        0.0237
      7 S         -11.3389   -1.3797   17.4309 S.2     1  UNL1       -0.0561
      8 C         -11.8469    1.0093   16.1878 C.3     1  UNL1        0.0343
      9 C         -12.7486    2.2081   16.1847 C.3     1  UNL1        0.0060
     10 C         -13.8645    2.3097   17.1818 C.3     1  UNL1        0.0107
     11 C         -14.0788    1.2127   18.1821 C.3     1  UNL1        0.0627
     12 C         -15.1948    1.3144   19.1792 C.ar    1  UNL1       -0.0169
     13 C         -15.4916    2.6271   19.8415 C.ar    1  UNL1       -0.0039
     14 C         -16.6075    2.7288   20.8386 C.ar    1  UNL1       -0.0003
     15 C         -17.4267    1.5177   21.1735 C.ar    1  UNL1       -0.0000
     16 C         -17.1299    0.2050   20.5113 C.ar    1  UNL1       -0.0003
     17 C         -16.0140    0.1033   19.5141 C.ar    1  UNL1       -0.0039
     18 C         -13.1967   -6.7367   17.7023 C.ar    1  UNL1        0.1559
     19 C         -12.2959   -5.5481   17.8627 C.ar    1  UNL1        0.0530
     20 C         -12.5124   -4.5906   18.9970 C.ar    1  UNL1        0.0529
     21 C         -13.6297   -4.8218   19.9707 C.ar    1  UNL1        0.0163
     22 C         -14.5305   -6.0105   19.8102 C.ar    1  UNL1        0.0219
     23 C         -14.3140   -6.9679   18.6760 C.ar    1  UNL1        0.0995
     24 N         -15.2149   -8.1565   18.5155 N.ar    1  UNL1       -0.2839
     25 C         -14.7802   -9.5912   18.4618 C.ar    1  UNL1        0.1826
     26 N         -16.0052  -10.4406   18.2937 N.ar    1  UNL1       -0.2280
     27 C         -17.1968   -9.5308   18.2434 C.ar    1  UNL1        0.0786
     28 C         -18.6258   -9.9576   18.0841 C.3     1  UNL1        0.0538
     29 C         -16.7083   -8.1192   18.3805 C.ar    1  UNL1        0.0963
     30 C         -11.6093   -7.8683   15.9848 C.3     1  UNL1        0.2525
     31 O         -12.9803   -7.6942   16.5680 O.3     1  UNL1       -0.4699
@<TRIPOS>BOND
     1    30    31    1
     2    31    18    1
     3    18    19   ar
     4    19    20   ar
     5    20     1    1
     6     1     3    1
     7     3     4   ar
     8     4     5   ar
     9     5     6   ar
    10     6     7   ar
    11     6     8    1
    12     8     9    1
    13     9    10    1
    14    10    11    1
    15    11    12    1
    16    12    13   ar
    17    13    14   ar
    18    14    15   ar
    19    15    16   ar
    20    16    17   ar
    21    20    21   ar
    22    21    22   ar
    23    22    23   ar
    24    23    24    1
    25    24    25   ar
    26    25    26   ar
    27    26    27   ar
    28    27    28    1
    29    27    29   ar
    30    23    18   ar
    31    29    24   ar
    32     7     3   ar
    33    17    12   ar
    34    11     5    1
    35     1     2    1
@<TRIPOS>MOLECULE
*****
 31 35 0 0 0
SMALL
GASTEIGER

@<TRIPOS>ATOM
      1 N           5.6011   -1.4003   24.6484 N.pl3   1  UNL1       -0.2927
      2 H           6.5678   -1.3252   24.8188 H       1  UNL1        0.1541
      3 C           5.1103   -2.0119   23.3697 C.ar    1  UNL1        0.1629
      4 N           4.2286   -1.3458   22.3553 N.ar    1  UNL1       -0.2284
      5 C           3.9883   -2.3192   21.2395 C.ar    1  UNL1        0.0666
      6 C           4.7215   -3.5868   21.5644 C.ar    1  UNL1        0.0237
      7 S           5.4149   -3.3969   22.8809 S.2     1  UNL1       -0.0561
      8 C           4.6631   -4.7502   20.6194 C.3     1  UNL1        0.0343
      9 C           3.8714   -4.6460   19.3497 C.3     1  UNL1        0.0060
     10 C           3.1382   -3.3784   19.0248 C.3     1  UNL1        0.0107
     11 C           3.1967   -2.2150   19.9698 C.3     1  UNL1        0.0627
     12 C           2.4635   -0.9473   19.6449 C.ar    1  UNL1       -0.0169
     13 C           1.1588   -0.6417   20.3190 C.ar    1  UNL1       -0.0039
     14 C           0.4257    0.6259   19.9942 C.ar    1  UNL1       -0.0003
     15 C           0.9971    1.5880   18.9953 C.ar    1  UNL1       -0.0000
     16 C           2.3018    1.2824   18.3212 C.ar    1  UNL1       -0.0003
     17 C           3.0350    0.0147   18.6460 C.ar    1  UNL1       -0.0039
     18 C           3.7940   -0.7887   28.1284 C.ar    1  UNL1        0.1559
     19 C           4.7760   -1.2858   27.1094 C.ar    1  UNL1        0.0530
     20 C           4.6191   -0.9032   25.6674 C.ar    1  UNL1        0.0529
     21 C           3.4800   -0.0235   25.2446 C.ar    1  UNL1        0.0163
     22 C           2.4980    0.4736   26.2637 C.ar    1  UNL1        0.0219
     23 C           2.6550    0.0910   27.7056 C.ar    1  UNL1        0.0995
     24 N           1.6729    0.5881   28.7247 N.ar    1  UNL1       -0.2839
     25 C           0.2950    0.0439   28.9600 C.ar    1  UNL1        0.1826
     26 N          -0.3332    0.8361   30.0681 N.ar    1  UNL1       -0.2280
     27 C           0.6565    1.8699   30.5176 C.ar    1  UNL1        0.0786
     28 C           0.4437    2.8796   31.6061 C.3     1  UNL1        0.0538
     29 C           1.8963    1.7166   29.6873 C.ar    1  UNL1        0.0963
     30 C           5.1653   -0.7337   30.3344 C.3     1  UNL1        0.2525
     31 O           3.9510   -1.1713   29.5703 O.3     1  UNL1       -0.4699
@<TRIPOS>BOND
     1    30    31    1
     2    31    18    1
     3    18    19   ar
     4    19    20   ar
     5    20     1    1
     6     1     3    1
     7     3     4   ar
     8     4     5   ar
     9     5     6   ar
    10     6     7   ar
    11     6     8    1
    12     8     9    1
    13     9    10    1
    14    10    11    1
    15    11    12    1
    16    12    13   ar
    17    13    14   ar
    18    14    15   ar
    19    15    16   ar
    20    16    17   ar
    21    20    21   ar
    22    21    22   ar
    23    22    23   ar
    24    23    24    1
    25    24    25   ar
    26    25    26   ar
    27    26    27   ar
    28    27    28    1
    29    27    29   ar
    30    23    18   ar
    31    29    24   ar
    32     7     3   ar
    33    17    12   ar
    34    11     5    1
    35     1     2    1
@<TRIPOS>MOLECULE
*****
 31 35 0 0 0
SMALL
GASTEIGER

@<TRIPOS>ATOM
      1 N           6.9760   -0.5672   23.5995 N.pl3   1  UNL1       -0.2927
      2 H           7.4430    0.2861   23.4479 H       1  UNL1        0.1541
      3 C           6.3286   -1.2823   22.4509 C.ar    1  UNL1        0.1629
      4 N           5.1206   -0.8190   21.6919 N.ar    1  UNL1       -0.2284
      5 C           4.8209   -1.8367   20.6314 C.ar    1  UNL1        0.0666
      6 C           5.8438   -2.9290   20.7350 C.ar    1  UNL1        0.0237
      7 S           6.7756   -2.5863   21.8594 S.2     1  UNL1       -0.0561
      8 C           5.7946   -4.0944   19.7920 C.3     1  UNL1        0.0343
      9 C           4.7225   -4.1676   18.7455 C.3     1  UNL1        0.0060
     10 C           3.6996   -3.0753   18.6419 C.3     1  UNL1        0.0107
     11 C           3.7488   -1.9099   19.5849 C.3     1  UNL1        0.0627
     12 C           2.7260   -0.8176   19.4814 C.ar    1  UNL1       -0.0169
     13 C           2.9358    0.3182   18.5244 C.ar    1  UNL1       -0.0039
     14 C           1.9129    1.4104   18.4209 C.ar    1  UNL1       -0.0003
     15 C           0.6802    1.3669   19.2744 C.ar    1  UNL1       -0.0000
     16 C           0.4704    0.2311   20.2314 C.ar    1  UNL1       -0.0003
     17 C           1.4932   -0.8612   20.3349 C.ar    1  UNL1       -0.0039
     18 C           5.5206   -1.9282   27.0317 C.ar    1  UNL1        0.1559
     19 C           5.5848   -1.3432   25.6520 C.ar    1  UNL1        0.0530
     20 C           6.9119   -1.1521   24.9793 C.ar    1  UNL1        0.0529
     21 C           8.1747   -1.5460   25.6864 C.ar    1  UNL1        0.0163
     22 C           8.1105   -2.1310   27.0662 C.ar    1  UNL1        0.0219
     23 C           6.7835   -2.3221   27.7388 C.ar    1  UNL1        0.0995
     24 N           6.7193   -2.9070   29.1186 N.ar    1  UNL1       -0.2839
     25 C           6.3877   -2.1619   30.3775 C.ar    1  UNL1        0.1826
     26 N           6.4389   -3.1341   31.5187 N.ar    1  UNL1       -0.2280
     27 C           6.8021   -4.4801   30.9649 C.ar    1  UNL1        0.0786
     28 C           6.9637   -5.7444   31.7557 C.3     1  UNL1        0.0538
     29 C           6.9754   -4.3397   29.4816 C.ar    1  UNL1        0.0963
     30 C           3.3905   -0.9264   28.1313 C.3     1  UNL1        0.2525
     31 O           4.1936   -2.1192   27.7044 O.3     1  UNL1       -0.4699
@<TRIPOS>BOND
     1    30    31    1
     2    31    18    1
     3    18    19   ar
     4    19    20   ar
     5    20     1    1
     6     1     3    1
     7     3     4   ar
     8     4     5   ar
     9     5     6   ar
    10     6     7   ar
    11     6     8    1
    12     8     9    1
    13     9    10    1
    14    10    11    1
    15    11    12    1
    16    12    13   ar
    17    13    14   ar
    18    14    15   ar
    19    15    16   ar
    20    16    17   ar
    21    20    21   ar
    22    21    22   ar
    23    22    23   ar
    24    23    24    1
    25    24    25   ar
    26    25    26   ar
    27    26    27   ar
    28    27    28    1
    29    27    29   ar
    30    23    18   ar
    31    29    24   ar
    32     7     3   ar
    33    17    12   ar
    34    11     5    1
    35     1     2    1
