@<TRIPOS>MOLECULE
*****
 42 48 0 0 0
SMALL
GASTEIGER

@<TRIPOS>ATOM
      1 C          -1.2036    4.1105   26.4057 C.3     1  UNL1        0.0000
      2 C          -1.7599    4.3695   25.0369 C.3     1  UNL1        0.0001
      3 C          -2.5712    5.3453   25.8368 C.3     1  UNL1        0.0000
      4 C          -2.5978    4.9674   23.9460 C.3     1  UNL1        0.0005
      5 C          -2.4314    4.4996   22.5305 C.3     1  UNL1        0.0087
      6 C          -1.4270    3.4339   22.2061 C.3     1  UNL1        0.0709
      7 C          -1.2605    2.9661   20.7907 C.3     1  UNL1        0.0088
      8 C          -0.2561    1.9004   20.4662 C.3     1  UNL1        0.0027
      9 C           0.5820    1.3024   21.5572 C.3     1  UNL1        0.0251
     10 C           1.4199    0.7045   22.6482 C.3     1  UNL1        0.0023
     11 C           1.5864    0.2367   21.2327 C.3     1  UNL1        0.0174
     12 C           0.7484    0.8346   20.1418 C.3     1  UNL1        0.0041
     13 C           1.7528   -0.2311   19.8173 C.3     1  UNL1        0.0038
     14 C           2.7573   -1.2969   19.4929 C.3     1  UNL1        0.0014
     15 C           3.5953   -1.8948   20.5838 C.3     1  UNL1        0.0141
     16 C           4.5997   -2.9605   20.2594 C.3     1  UNL1        0.0568
     17 C           5.4110   -3.9363   19.4595 C.3     1  UNL1        0.0077
     18 C           4.0435   -2.7015   18.8906 C.3     1  UNL1        0.0077
     19 C           5.4378   -3.5585   21.3504 C.2     1  UNL1        0.1815
     20 O           6.4422   -4.6242   21.0259 O.2     1  UNL1       -0.2907
     21 C           5.2713   -3.0907   22.7658 C.2     1  UNL1        0.0990
     22 C           4.2668   -2.0249   23.0902 C.2     1  UNL1       -0.0098
     23 C           3.4288   -1.4270   21.9993 C.3     1  UNL1        0.0349
     24 C           3.2624   -0.9592   23.4147 C.3     1  UNL1        0.0085
     25 C           2.4244   -0.3613   22.3237 C.2     1  UNL1       -0.0387
     26 C           2.2580    0.1065   23.7392 C.2     1  UNL1        0.0309
     27 C           1.2535    1.1723   24.0636 C.2     1  UNL1        0.1884
     28 O           1.3164    1.3176   25.0349 O.2     1  UNL1       -0.2897
     29 C           0.4155    1.7702   22.9726 C.3     1  UNL1        0.1159
     30 C          -0.5890    2.8360   23.2971 C.3     1  UNL1        0.0319
     31 C          -0.7555    3.3038   24.7125 C.3     1  UNL1        0.0025
     32 N          -0.0715    2.5119   24.1820 N.am    1  UNL1       -0.2777
     33 C          -1.1352    3.4725   23.7395 C.2     1  UNL1        0.2249
     34 O          -1.4617    3.9410   24.4165 O.2     1  UNL1       -0.2749
     35 C           0.4190    2.3259   25.5872 C.3     1  UNL1        0.0756
     36 C          -0.2535    1.3359   26.4915 C.3     1  UNL1        0.0198
     37 C           0.2371    1.1499   27.8968 C.3     1  UNL1        0.0017
     38 C           1.4002    1.9538   28.3978 C.3     1  UNL1        0.0001
     39 C           2.0727    2.9438   27.4934 C.3     1  UNL1        0.0017
     40 C           1.5821    3.1298   26.0882 C.3     1  UNL1        0.0198
     41 C           6.1093   -3.6886   23.8568 C.1     1  UNL1        0.1030
     42 N           6.9472   -4.2865   24.9477 N.1     1  UNL1       -0.1907
@<TRIPOS>BOND
     1     1     2    1
     2     2     3    1
     3     2     4    1
     4     4     5    1
     5     6     5    1
     6     6     7    1
     7     7     8    1
     8     8     9    1
     9     9    10    1
    10     9    11    1
    11    11    12    1
    12    11    13    1
    13    13    14    1
    14    15    14    1
    15    15    16    1
    16    16    17    1
    17    16    18    1
    18    16    19    1
    19    19    20    2
    20    19    21    1
    21    21    41    1
    22    41    42    3
    23    21    22    2
    24    22    23    1
    25    23    24    1
    26    23    25    1
    27    25    26    2
    28    26    27    1
    29    27    28    2
    30    27    29    1
    31    29    30    1
    32    30    31    1
    33    29    32    1
    34    32    35    1
    35    35    36    1
    36    36    37    1
    37    37    38    1
    38    38    39    1
    39    39    40    1
    40    32    33   am
    41    33    34    2
    42    31     2    1
    43    40    35    1
    44    30     6    1
    45    33     6    1
    46    29     9    1
    47    25    11    1
    48    23    15    1
@<TRIPOS>MOLECULE
*****
 42 48 0 0 0
SMALL
GASTEIGER

@<TRIPOS>ATOM
      1 C          -0.6006    3.1776   23.2993 C.3     1  UNL1        0.0000
      2 C          -0.4241    2.5796   21.9350 C.3     1  UNL1        0.0001
      3 C          -1.4832    3.5994   21.6375 C.3     1  UNL1        0.0000
      4 C          -0.6154    2.3358   20.4674 C.3     1  UNL1        0.0005
      5 C           0.1911    1.2800   19.7711 C.3     1  UNL1        0.0087
      6 C           1.1888    0.4679   20.5425 C.3     1  UNL1        0.0709
      7 C           1.9953   -0.5879   19.8462 C.3     1  UNL1        0.0088
      8 C           2.9931   -1.4000   20.6176 C.3     1  UNL1        0.0027
      9 C           3.1844   -1.1562   22.0852 C.3     1  UNL1        0.0251
     10 C           3.3757   -0.9124   23.5528 C.3     1  UNL1        0.0023
     11 C           4.1822   -1.9682   22.8566 C.3     1  UNL1        0.0174
     12 C           3.9909   -2.2120   21.3890 C.3     1  UNL1        0.0041
     13 C           4.9886   -3.0241   22.1603 C.3     1  UNL1        0.0038
     14 C           5.9864   -3.8361   22.9317 C.3     1  UNL1        0.0014
     15 C           6.1777   -3.5923   24.3993 C.3     1  UNL1        0.0141
     16 C           7.1755   -4.4044   25.1707 C.3     1  UNL1        0.0568
     17 C           8.2346   -5.4241   25.4682 C.3     1  UNL1        0.0077
     18 C           7.3520   -5.0023   23.8063 C.3     1  UNL1        0.0077
     19 C           7.3669   -4.1606   26.6384 C.2     1  UNL1        0.1815
     20 O           8.3646   -4.9726   27.4097 O.2     1  UNL1       -0.2907
     21 C           6.5604   -3.1047   27.3346 C.2     1  UNL1        0.0990
     22 C           5.5626   -2.2927   26.5632 C.2     1  UNL1       -0.0098
     23 C           5.3713   -2.5365   25.0956 C.3     1  UNL1        0.0349
     24 C           4.5648   -1.4806   25.7919 C.3     1  UNL1        0.0085
     25 C           4.3735   -1.7244   24.3243 C.2     1  UNL1       -0.0387
     26 C           3.5671   -0.6686   25.0205 C.2     1  UNL1        0.0309
     27 C           2.5693    0.1435   24.2491 C.2     1  UNL1        0.1884
     28 O           2.1649    0.7636   24.8976 O.2     1  UNL1       -0.2897
     29 C           2.3780   -0.1003   22.7815 C.3     1  UNL1        0.1159
     30 C           1.3801    0.7117   22.0101 C.3     1  UNL1        0.0319
     31 C           0.5737    1.7676   22.7064 C.3     1  UNL1        0.0025
     32 N           1.3988    1.0052   23.0443 N.am    1  UNL1       -0.2777
     33 C           0.7123    1.3333   21.7516 C.2     1  UNL1        0.2249
     34 O           0.1189    1.9839   21.8468 O.2     1  UNL1       -0.2749
     35 C           1.1499    1.6666   24.3673 C.3     1  UNL1        0.0756
     36 C           1.9504    2.8708   24.7663 C.3     1  UNL1        0.0198
     37 C           1.7014    3.5322   26.0895 C.3     1  UNL1        0.0017
     38 C           0.6519    2.9894   27.0136 C.3     1  UNL1        0.0001
     39 C          -0.1486    1.7851   26.6145 C.3     1  UNL1        0.0017
     40 C           0.1004    1.1238   25.2914 C.3     1  UNL1        0.0198
     41 C           6.7517   -2.8609   28.8022 C.1     1  UNL1        0.1030
     42 N           6.9430   -2.6171   30.2698 N.1     1  UNL1       -0.1907
@<TRIPOS>BOND
     1     1     2    1
     2     2     3    1
     3     2     4    1
     4     4     5    1
     5     6     5    1
     6     6     7    1
     7     7     8    1
     8     8     9    1
     9     9    10    1
    10     9    11    1
    11    11    12    1
    12    11    13    1
    13    13    14    1
    14    15    14    1
    15    15    16    1
    16    16    17    1
    17    16    18    1
    18    16    19    1
    19    19    20    2
    20    19    21    1
    21    21    41    1
    22    41    42    3
    23    21    22    2
    24    22    23    1
    25    23    24    1
    26    23    25    1
    27    25    26    2
    28    26    27    1
    29    27    28    2
    30    27    29    1
    31    29    30    1
    32    30    31    1
    33    29    32    1
    34    32    35    1
    35    35    36    1
    36    36    37    1
    37    37    38    1
    38    38    39    1
    39    39    40    1
    40    32    33   am
    41    33    34    2
    42    31     2    1
    43    40    35    1
    44    30     6    1
    45    33     6    1
    46    29     9    1
    47    25    11    1
    48    23    15    1
@<TRIPOS>MOLECULE
*****
 42 48 0 0 0
SMALL
GASTEIGER

@<TRIPOS>ATOM
      1 C           0.8374    2.3678   29.9786 C.3     1  UNL1        0.0000
      2 C           1.9164    1.4684   30.5051 C.3     1  UNL1        0.0001
      3 C           1.4377    2.0799   31.7884 C.3     1  UNL1        0.0000
      4 C           2.8290    0.7814   31.4772 C.3     1  UNL1        0.0005
      5 C           3.8456   -0.2047   30.9831 C.3     1  UNL1        0.0087
      6 C           3.9495   -0.5039   29.5170 C.3     1  UNL1        0.0709
      7 C           4.9661   -1.4901   29.0230 C.3     1  UNL1        0.0088
      8 C           5.0700   -1.7892   27.5568 C.3     1  UNL1        0.0027
      9 C           4.1574   -1.1022   26.5846 C.3     1  UNL1        0.0251
     10 C           3.2447   -0.4152   25.6125 C.3     1  UNL1        0.0023
     11 C           4.2613   -1.4014   25.1184 C.3     1  UNL1        0.0174
     12 C           5.1739   -2.0884   26.0906 C.3     1  UNL1        0.0041
     13 C           5.2779   -2.3875   24.6244 C.3     1  UNL1        0.0038
     14 C           5.3818   -2.6867   23.1582 C.3     1  UNL1        0.0014
     15 C           4.4691   -1.9997   22.1860 C.3     1  UNL1        0.0141
     16 C           4.5731   -2.2988   20.7199 C.3     1  UNL1        0.0568
     17 C           5.0517   -2.9103   19.4365 C.3     1  UNL1        0.0077
     18 C           5.6520   -3.1982   21.2463 C.3     1  UNL1        0.0077
     19 C           3.6604   -1.6118   19.7477 C.2     1  UNL1        0.1815
     20 O           3.7643   -1.9110   18.2815 O.2     1  UNL1       -0.2907
     21 C           2.6438   -0.6257   20.2417 C.2     1  UNL1        0.0990
     22 C           2.5399   -0.3265   21.7079 C.2     1  UNL1       -0.0098
     23 C           3.4525   -1.0135   22.6801 C.3     1  UNL1        0.0349
     24 C           2.4360   -0.0274   23.1741 C.3     1  UNL1        0.0085
     25 C           3.3486   -0.7144   24.1462 C.2     1  UNL1       -0.0387
     26 C           2.3320    0.2718   24.6403 C.2     1  UNL1        0.0309
     27 C           2.2281    0.5709   26.1065 C.2     1  UNL1        0.1884
     28 O           1.5068    1.2343   26.1974 O.2     1  UNL1       -0.2897
     29 C           3.1408   -0.1161   27.0786 C.3     1  UNL1        0.1159
     30 C           3.0369    0.1831   28.5449 C.3     1  UNL1        0.0319
     31 C           2.0203    1.1692   29.0389 C.3     1  UNL1        0.0025
     32 N           2.3182    0.7526   27.9835 N.am    1  UNL1       -0.2777
     33 C           2.7851    0.5287   29.3913 C.2     1  UNL1        0.2249
     34 O           2.3319    1.0191   29.9731 O.2     1  UNL1       -0.2749
     35 C           1.2214    1.6820   27.5558 C.3     1  UNL1        0.0756
     36 C          -0.1942    1.1906   27.4877 C.3     1  UNL1        0.0198
     37 C          -1.2911    2.1201   27.0599 C.3     1  UNL1        0.0017
     38 C          -0.9724    3.5411   26.7002 C.3     1  UNL1        0.0001
     39 C           0.4433    4.0325   26.7683 C.3     1  UNL1        0.0017
     40 C           1.5401    3.1030   27.1961 C.3     1  UNL1        0.0198
     41 C           1.7312    0.0613   19.2696 C.1     1  UNL1        0.1030
     42 N           0.8185    0.7483   18.2975 N.1     1  UNL1       -0.1907
@<TRIPOS>BOND
     1     1     2    1
     2     2     3    1
     3     2     4    1
     4     4     5    1
     5     6     5    1
     6     6     7    1
     7     7     8    1
     8     8     9    1
     9     9    10    1
    10     9    11    1
    11    11    12    1
    12    11    13    1
    13    13    14    1
    14    15    14    1
    15    15    16    1
    16    16    17    1
    17    16    18    1
    18    16    19    1
    19    19    20    2
    20    19    21    1
    21    21    41    1
    22    41    42    3
    23    21    22    2
    24    22    23    1
    25    23    24    1
    26    23    25    1
    27    25    26    2
    28    26    27    1
    29    27    28    2
    30    27    29    1
    31    29    30    1
    32    30    31    1
    33    29    32    1
    34    32    35    1
    35    35    36    1
    36    36    37    1
    37    37    38    1
    38    38    39    1
    39    39    40    1
    40    32    33   am
    41    33    34    2
    42    31     2    1
    43    40    35    1
    44    30     6    1
    45    33     6    1
    46    29     9    1
    47    25    11    1
    48    23    15    1
@<TRIPOS>MOLECULE
*****
 42 48 0 0 0
SMALL
GASTEIGER

@<TRIPOS>ATOM
      1 C           4.9863   -1.7059   19.0852 C.3     1  UNL1        0.0000
      2 C           3.7894   -0.8842   18.7080 C.3     1  UNL1        0.0001
      3 C           4.2861   -1.2625   17.3440 C.3     1  UNL1        0.0000
      4 C           2.7651   -0.1938   17.8571 C.3     1  UNL1        0.0005
      5 C           1.6597    0.5894   18.5011 C.3     1  UNL1        0.0087
      6 C           1.5787    0.6823   19.9959 C.3     1  UNL1        0.0709
      7 C           0.4733    1.4655   20.6399 C.3     1  UNL1        0.0088
      8 C           0.3923    1.5584   22.1348 C.3     1  UNL1        0.0027
      9 C           1.4167    0.8681   22.9858 C.3     1  UNL1        0.0251
     10 C           2.4411    0.1777   23.8367 C.3     1  UNL1        0.0023
     11 C           1.3357    0.9610   24.4807 C.3     1  UNL1        0.0174
     12 C           0.3114    1.6513   23.6298 C.3     1  UNL1        0.0041
     13 C           0.2303    1.7442   25.1247 C.3     1  UNL1        0.0038
     14 C           0.1494    1.8371   26.6197 C.3     1  UNL1        0.0014
     15 C           1.1737    1.1467   27.4706 C.3     1  UNL1        0.0141
     16 C           1.0927    1.2396   28.9655 C.3     1  UNL1        0.0568
     17 C           0.5960    1.6179   30.3294 C.3     1  UNL1        0.0077
     18 C          -0.1042    2.0614   28.5882 C.3     1  UNL1        0.0077
     19 C           2.1171    0.5493   29.8165 C.2     1  UNL1        0.1815
     20 O           2.0361    0.6422   31.3114 O.2     1  UNL1       -0.2907
     21 C           3.2225   -0.2340   29.1725 C.2     1  UNL1        0.0990
     22 C           3.3034   -0.3268   27.6775 C.2     1  UNL1       -0.0098
     23 C           2.2791    0.3635   26.8266 C.3     1  UNL1        0.0349
     24 C           3.3845   -0.4197   26.1826 C.3     1  UNL1        0.0085
     25 C           2.3601    0.2706   25.3317 C.2     1  UNL1       -0.0387
     26 C           3.4655   -0.5126   24.6877 C.2     1  UNL1        0.0309
     27 C           3.5464   -0.6055   23.1927 C.2     1  UNL1        0.1884
     28 O           4.3366   -1.1589   22.9979 O.2     1  UNL1       -0.2897
     29 C           2.5221    0.0848   22.3418 C.3     1  UNL1        0.1159
     30 C           2.6031   -0.0080   20.8469 C.3     1  UNL1        0.0319
     31 C           3.7084   -0.7913   20.2029 C.3     1  UNL1        0.0025
     32 N           3.4051   -0.5535   21.3109 N.am    1  UNL1       -0.2777
     33 C           2.8604   -0.2085   19.9565 C.2     1  UNL1        0.2249
     34 O           3.3451   -0.5610   19.3043 O.2     1  UNL1       -0.2749
     35 C           4.6194   -1.3899   21.5859 C.3     1  UNL1        0.0756
     36 C           4.4832   -2.8723   21.7694 C.3     1  UNL1        0.0198
     37 C           5.6977   -3.7087   22.0445 C.3     1  UNL1        0.0017
     38 C           7.0483   -3.0626   22.1360 C.3     1  UNL1        0.0001
     39 C           7.1845   -1.5800   21.9524 C.3     1  UNL1        0.0017
     40 C           5.9700   -0.7437   21.6774 C.3     1  UNL1        0.0198
     41 C           4.2468   -0.9243   30.0234 C.1     1  UNL1        0.1030
     42 N           5.2712   -1.6146   30.8743 N.1     1  UNL1       -0.1907
@<TRIPOS>BOND
     1     1     2    1
     2     2     3    1
     3     2     4    1
     4     4     5    1
     5     6     5    1
     6     6     7    1
     7     7     8    1
     8     8     9    1
     9     9    10    1
    10     9    11    1
    11    11    12    1
    12    11    13    1
    13    13    14    1
    14    15    14    1
    15    15    16    1
    16    16    17    1
    17    16    18    1
    18    16    19    1
    19    19    20    2
    20    19    21    1
    21    21    41    1
    22    41    42    3
    23    21    22    2
    24    22    23    1
    25    23    24    1
    26    23    25    1
    27    25    26    2
    28    26    27    1
    29    27    28    2
    30    27    29    1
    31    29    30    1
    32    30    31    1
    33    29    32    1
    34    32    35    1
    35    35    36    1
    36    36    37    1
    37    37    38    1
    38    38    39    1
    39    39    40    1
    40    32    33   am
    41    33    34    2
    42    31     2    1
    43    40    35    1
    44    30     6    1
    45    33     6    1
    46    29     9    1
    47    25    11    1
    48    23    15    1
@<TRIPOS>MOLECULE
*****
 42 48 0 0 0
SMALL
GASTEIGER

@<TRIPOS>ATOM
      1 C           3.1743    0.3696   30.9156 C.3     1  UNL1        0.0000
      2 C           4.3719   -0.5199   31.0723 C.3     1  UNL1        0.0001
      3 C           4.1650   -0.1078   32.4997 C.3     1  UNL1        0.0000
      4 C           5.4976   -1.2663   31.7247 C.3     1  UNL1        0.0005
      5 C           6.4144   -2.1158   30.8953 C.3     1  UNL1        0.0087
      6 C           6.2054   -2.2191   29.4136 C.3     1  UNL1        0.0709
      7 C           7.1221   -3.0687   28.5842 C.3     1  UNL1        0.0088
      8 C           6.9131   -3.1719   27.1025 C.3     1  UNL1        0.0027
      9 C           5.7873   -2.4255   26.4500 C.3     1  UNL1        0.0251
     10 C           4.6616   -1.6792   25.7976 C.3     1  UNL1        0.0023
     11 C           5.5784   -2.5288   24.9683 C.3     1  UNL1        0.0174
     12 C           6.7041   -3.2751   25.6207 C.3     1  UNL1        0.0041
     13 C           6.4951   -3.3784   24.1389 C.3     1  UNL1        0.0038
     14 C           6.2860   -3.4816   22.6571 C.3     1  UNL1        0.0014
     15 C           5.1603   -2.7352   22.0047 C.3     1  UNL1        0.0141
     16 C           4.9513   -2.8385   20.5230 C.3     1  UNL1        0.0568
     17 C           5.1582   -3.2506   19.0956 C.3     1  UNL1        0.0077
     18 C           6.1489   -3.7280   20.6797 C.3     1  UNL1        0.0077
     19 C           3.8256   -2.0921   19.8705 C.2     1  UNL1        0.1815
     20 O           3.6166   -2.1953   18.3887 O.2     1  UNL1       -0.2907
     21 C           2.9088   -1.2425   20.6998 C.2     1  UNL1        0.0990
     22 C           3.1179   -1.1393   22.1817 C.2     1  UNL1       -0.0098
     23 C           4.2436   -1.8856   22.8340 C.3     1  UNL1        0.0349
     24 C           3.3269   -1.0360   23.6634 C.3     1  UNL1        0.0085
     25 C           4.4526   -1.7824   24.3158 C.2     1  UNL1       -0.0387
     26 C           3.5359   -0.9328   25.1451 C.2     1  UNL1        0.0309
     27 C           3.7449   -0.8296   26.6270 C.2     1  UNL1        0.1884
     28 O           3.0389   -0.2298   26.9593 O.2     1  UNL1       -0.2897
     29 C           4.8706   -1.5759   27.2794 C.3     1  UNL1        0.1159
     30 C           5.0797   -1.4727   28.7612 C.3     1  UNL1        0.0319
     31 C           4.1629   -0.6231   29.5905 C.3     1  UNL1        0.0025
     32 N           4.2369   -0.8827   28.4489 N.am    1  UNL1       -0.2777
     33 C           5.0075   -1.2540   29.6811 C.2     1  UNL1        0.2249
     34 O           4.6761   -0.8710   30.4077 O.2     1  UNL1       -0.2749
     35 C           3.0423    0.0229   28.3956 C.3     1  UNL1        0.0756
     36 C           3.2227    1.4873   28.1256 C.3     1  UNL1        0.0198
     37 C           2.0280    2.3929   28.0723 C.3     1  UNL1        0.0017
     38 C           0.6530    1.8340   28.2891 C.3     1  UNL1        0.0001
     39 C           0.4727    0.3695   28.5592 C.3     1  UNL1        0.0017
     40 C           1.6673   -0.5360   28.6124 C.3     1  UNL1        0.0198
     41 C           1.7831   -0.4961   20.0474 C.1     1  UNL1        0.1030
     42 N           0.6574    0.2502   19.3950 N.1     1  UNL1       -0.1907
@<TRIPOS>BOND
     1     1     2    1
     2     2     3    1
     3     2     4    1
     4     4     5    1
     5     6     5    1
     6     6     7    1
     7     7     8    1
     8     8     9    1
     9     9    10    1
    10     9    11    1
    11    11    12    1
    12    11    13    1
    13    13    14    1
    14    15    14    1
    15    15    16    1
    16    16    17    1
    17    16    18    1
    18    16    19    1
    19    19    20    2
    20    19    21    1
    21    21    41    1
    22    41    42    3
    23    21    22    2
    24    22    23    1
    25    23    24    1
    26    23    25    1
    27    25    26    2
    28    26    27    1
    29    27    28    2
    30    27    29    1
    31    29    30    1
    32    30    31    1
    33    29    32    1
    34    32    35    1
    35    35    36    1
    36    36    37    1
    37    37    38    1
    38    38    39    1
    39    39    40    1
    40    32    33   am
    41    33    34    2
    42    31     2    1
    43    40    35    1
    44    30     6    1
    45    33     6    1
    46    29     9    1
    47    25    11    1
    48    23    15    1
@<TRIPOS>MOLECULE
*****
 42 48 0 0 0
SMALL
GASTEIGER

@<TRIPOS>ATOM
      1 C           1.8251    2.6204   29.8420 C.3     1  UNL1        0.0000
      2 C           0.8983    3.2976   28.8763 C.3     1  UNL1        0.0001
      3 C           0.5586    4.0456   30.1314 C.3     1  UNL1        0.0000
      4 C          -0.1465    4.2345   28.3466 C.3     1  UNL1        0.0005
      5 C          -0.5298    4.1882   26.8971 C.3     1  UNL1        0.0087
      6 C           0.1317    3.2052   25.9774 C.3     1  UNL1        0.0709
      7 C          -0.2515    3.1589   24.5279 C.3     1  UNL1        0.0088
      8 C           0.4100    2.1758   23.6082 C.3     1  UNL1        0.0027
      9 C           1.4548    1.2389   24.1380 C.3     1  UNL1        0.0251
     10 C           2.4996    0.3020   24.6677 C.3     1  UNL1        0.0023
     11 C           2.1163    0.2558   23.2183 C.3     1  UNL1        0.0174
     12 C           1.0715    1.1927   22.6885 C.3     1  UNL1        0.0041
     13 C           1.7330    0.2096   21.7688 C.3     1  UNL1        0.0038
     14 C           2.3946   -0.7736   20.8491 C.3     1  UNL1        0.0014
     15 C           3.4394   -1.7104   21.3788 C.3     1  UNL1        0.0141
     16 C           4.1009   -2.6935   20.4591 C.3     1  UNL1        0.0568
     17 C           4.4405   -3.4415   19.2040 C.3     1  UNL1        0.0077
     18 C           3.1740   -2.0164   19.4935 C.3     1  UNL1        0.0077
     19 C           5.1457   -3.6305   20.9889 C.2     1  UNL1        0.1815
     20 O           5.8072   -4.6136   20.0692 O.2     1  UNL1       -0.2907
     21 C           5.5289   -3.5843   22.4384 C.2     1  UNL1        0.0990
     22 C           4.8674   -2.6011   23.3581 C.2     1  UNL1       -0.0098
     23 C           3.8226   -1.6642   22.8283 C.3     1  UNL1        0.0349
     24 C           4.2059   -1.6180   24.2778 C.3     1  UNL1        0.0085
     25 C           3.1611   -0.6811   23.7480 C.2     1  UNL1       -0.0387
     26 C           3.5444   -0.6349   25.1975 C.2     1  UNL1        0.0309
     27 C           2.8828    0.3483   26.1172 C.2     1  UNL1        0.1884
     28 O           3.2832    0.2016   27.0042 O.2     1  UNL1       -0.2897
     29 C           1.8381    1.2851   25.5874 C.3     1  UNL1        0.1159
     30 C           1.1765    2.2683   26.5072 C.3     1  UNL1        0.0319
     31 C           1.5598    2.3145   27.9566 C.3     1  UNL1        0.0025
     32 N           1.8982    1.6716   27.0356 N.am    1  UNL1       -0.2777
     33 C           0.9130    2.7801   27.2607 C.2     1  UNL1        0.2249
     34 O           0.9049    3.0506   28.1040 O.2     1  UNL1       -0.2749
     35 C           2.7872    1.0575   28.0759 C.3     1  UNL1        0.0756
     36 C           4.1631    1.6086   28.3068 C.3     1  UNL1        0.0198
     37 C           5.0522    0.9944   29.3472 C.3     1  UNL1        0.0017
     38 C           4.5654   -0.1709   30.1566 C.3     1  UNL1        0.0001
     39 C           3.1894   -0.7220   29.9257 C.3     1  UNL1        0.0017
     40 C           2.3004   -0.1078   28.8853 C.3     1  UNL1        0.0198
     41 C           6.5737   -4.5211   22.9681 C.1     1  UNL1        0.1030
     42 N           7.6185   -5.4580   23.4979 N.1     1  UNL1       -0.1907
@<TRIPOS>BOND
     1     1     2    1
     2     2     3    1
     3     2     4    1
     4     4     5    1
     5     6     5    1
     6     6     7    1
     7     7     8    1
     8     8     9    1
     9     9    10    1
    10     9    11    1
    11    11    12    1
    12    11    13    1
    13    13    14    1
    14    15    14    1
    15    15    16    1
    16    16    17    1
    17    16    18    1
    18    16    19    1
    19    19    20    2
    20    19    21    1
    21    21    41    1
    22    41    42    3
    23    21    22    2
    24    22    23    1
    25    23    24    1
    26    23    25    1
    27    25    26    2
    28    26    27    1
    29    27    28    2
    30    27    29    1
    31    29    30    1
    32    30    31    1
    33    29    32    1
    34    32    35    1
    35    35    36    1
    36    36    37    1
    37    37    38    1
    38    38    39    1
    39    39    40    1
    40    32    33   am
    41    33    34    2
    42    31     2    1
    43    40    35    1
    44    30     6    1
    45    33     6    1
    46    29     9    1
    47    25    11    1
    48    23    15    1
@<TRIPOS>MOLECULE
*****
 42 48 0 0 0
SMALL
GASTEIGER

@<TRIPOS>ATOM
      1 C           2.9543    0.2151   17.8570 C.3     1  UNL1        0.0000
      2 C           3.7835   -0.9638   18.2727 C.3     1  UNL1        0.0001
      3 C           3.9110   -1.0684   16.7818 C.3     1  UNL1        0.0000
      4 C           4.6569   -2.1789   18.1707 C.3     1  UNL1        0.0005
      5 C           5.1149   -2.8800   19.4152 C.3     1  UNL1        0.0087
      6 C           4.6995   -2.3660   20.7617 C.3     1  UNL1        0.0709
      7 C           5.1574   -3.0671   22.0061 C.3     1  UNL1        0.0088
      8 C           4.7420   -2.5531   23.3526 C.3     1  UNL1        0.0027
      9 C           3.8685   -1.3379   23.4547 C.3     1  UNL1        0.0251
     10 C           2.9950   -0.1227   23.5568 C.3     1  UNL1        0.0023
     11 C           3.4530   -0.8238   24.8012 C.3     1  UNL1        0.0174
     12 C           4.3265   -2.0390   24.6992 C.3     1  UNL1        0.0041
     13 C           3.9110   -1.5250   26.0457 C.3     1  UNL1        0.0038
     14 C           3.4955   -1.0109   27.3922 C.3     1  UNL1        0.0014
     15 C           2.6221    0.2043   27.4943 C.3     1  UNL1        0.0141
     16 C           2.2066    0.7183   28.8408 C.3     1  UNL1        0.0568
     17 C           2.0791    0.8230   30.3317 C.3     1  UNL1        0.0077
     18 C           3.0358   -0.4605   29.2565 C.3     1  UNL1        0.0077
     19 C           1.3331    1.9335   28.9429 C.2     1  UNL1        0.1815
     20 O           0.9176    2.4476   30.2894 O.2     1  UNL1       -0.2907
     21 C           0.8751    2.6347   27.6984 C.2     1  UNL1        0.0990
     22 C           1.2906    2.1206   26.3519 C.2     1  UNL1       -0.0098
     23 C           2.1641    0.9054   26.2498 C.3     1  UNL1        0.0349
     24 C           1.7061    1.6065   25.0054 C.3     1  UNL1        0.0085
     25 C           2.5795    0.3914   24.9033 C.2     1  UNL1       -0.0387
     26 C           2.1216    1.0925   23.6589 C.2     1  UNL1        0.0309
     27 C           2.5371    0.5784   22.3123 C.2     1  UNL1        0.1884
     28 O           2.1273    1.1833   21.6529 O.2     1  UNL1       -0.2897
     29 C           3.4105   -0.6368   22.2103 C.3     1  UNL1        0.1159
     30 C           3.8260   -1.1509   20.8637 C.3     1  UNL1        0.0319
     31 C           3.3680   -0.4497   19.6192 C.3     1  UNL1        0.0025
     32 N           3.2049   -0.2784   20.7683 N.am    1  UNL1       -0.2777
     33 C           3.9491   -1.2768   19.9319 C.2     1  UNL1        0.2249
     34 O           3.8629   -1.1138   19.0656 O.2     1  UNL1       -0.2749
     35 C           2.3970    0.8755   20.2530 C.3     1  UNL1        0.0756
     36 C           0.9337    0.7011   19.9735 C.3     1  UNL1        0.0198
     37 C           0.1257    1.8552   19.4582 C.3     1  UNL1        0.0017
     38 C           0.7812    3.1837   19.2225 C.3     1  UNL1        0.0001
     39 C           2.2447    3.3581   19.5021 C.3     1  UNL1        0.0017
     40 C           3.0525    2.2040   20.0174 C.3     1  UNL1        0.0198
     41 C           0.0017    3.8498   27.8005 C.1     1  UNL1        0.1030
     42 N          -0.8717    5.0650   27.9025 N.1     1  UNL1       -0.1907
@<TRIPOS>BOND
     1     1     2    1
     2     2     3    1
     3     2     4    1
     4     4     5    1
     5     6     5    1
     6     6     7    1
     7     7     8    1
     8     8     9    1
     9     9    10    1
    10     9    11    1
    11    11    12    1
    12    11    13    1
    13    13    14    1
    14    15    14    1
    15    15    16    1
    16    16    17    1
    17    16    18    1
    18    16    19    1
    19    19    20    2
    20    19    21    1
    21    21    41    1
    22    41    42    3
    23    21    22    2
    24    22    23    1
    25    23    24    1
    26    23    25    1
    27    25    26    2
    28    26    27    1
    29    27    28    2
    30    27    29    1
    31    29    30    1
    32    30    31    1
    33    29    32    1
    34    32    35    1
    35    35    36    1
    36    36    37    1
    37    37    38    1
    38    38    39    1
    39    39    40    1
    40    32    33   am
    41    33    34    2
    42    31     2    1
    43    40    35    1
    44    30     6    1
    45    33     6    1
    46    29     9    1
    47    25    11    1
    48    23    15    1
@<TRIPOS>MOLECULE
*****
 42 48 0 0 0
SMALL
GASTEIGER

@<TRIPOS>ATOM
      1 C           3.6588    0.9739   31.1343 C.3     1  UNL1        0.0000
      2 C           4.1740   -0.0040   32.1485 C.3     1  UNL1        0.0001
      3 C           3.5332    1.0017   33.0584 C.3     1  UNL1        0.0000
      4 C           4.4666   -0.6326   33.4785 C.3     1  UNL1        0.0005
      5 C           5.2211   -1.9272   33.5465 C.3     1  UNL1        0.0087
      6 C           5.6830   -2.5933   32.2844 C.3     1  UNL1        0.0709
      7 C           6.4375   -3.8879   32.3523 C.3     1  UNL1        0.0088
      8 C           6.8994   -4.5539   31.0902 C.3     1  UNL1        0.0027
      9 C           6.6067   -3.9254   29.7600 C.3     1  UNL1        0.0251
     10 C           6.3141   -3.2968   28.4299 C.3     1  UNL1        0.0023
     11 C           7.0686   -4.5914   28.4979 C.3     1  UNL1        0.0174
     12 C           7.3612   -5.2200   29.8279 C.3     1  UNL1        0.0041
     13 C           7.8231   -5.8860   28.5658 C.3     1  UNL1        0.0038
     14 C           8.2849   -6.5521   27.3036 C.3     1  UNL1        0.0014
     15 C           7.9923   -5.9235   25.9735 C.3     1  UNL1        0.0141
     16 C           8.4541   -6.5895   24.7114 C.3     1  UNL1        0.0568
     17 C           9.0949   -7.5952   23.8014 C.3     1  UNL1        0.0077
     18 C           8.9694   -7.5674   25.7255 C.3     1  UNL1        0.0077
     19 C           8.1615   -5.9609   23.3812 C.2     1  UNL1        0.1815
     20 O           8.6234   -6.6270   22.1190 O.2     1  UNL1       -0.2907
     21 C           7.4070   -4.6663   23.3132 C.2     1  UNL1        0.0990
     22 C           6.9451   -4.0002   24.5755 C.2     1  UNL1       -0.0098
     23 C           7.2378   -4.6288   25.9055 C.3     1  UNL1        0.0349
     24 C           6.4833   -3.3342   25.8376 C.3     1  UNL1        0.0085
     25 C           6.7759   -3.9628   27.1677 C.2     1  UNL1       -0.0387
     26 C           6.0214   -2.6682   27.0997 C.2     1  UNL1        0.0309
     27 C           5.5595   -2.0021   28.3620 C.2     1  UNL1        0.1884
     28 O           5.0947   -1.1814   28.0810 O.2     1  UNL1       -0.2897
     29 C           5.8522   -2.6307   29.6920 C.3     1  UNL1        0.1159
     30 C           5.3903   -1.9647   30.9543 C.3     1  UNL1        0.0319
     31 C           4.6358   -0.6700   30.8863 C.3     1  UNL1        0.0025
     32 N           5.1044   -1.3927   30.0899 N.am    1  UNL1       -0.2777
     33 C           5.0067   -1.3711   31.5865 C.2     1  UNL1        0.2249
     34 O           4.5720   -0.6576   31.8804 O.2     1  UNL1       -0.2749
     35 C           4.5514   -0.3581   29.1553 C.3     1  UNL1        0.0756
     36 C           5.3858    0.8275   28.7703 C.3     1  UNL1        0.0198
     37 C           4.8328    1.8622   27.8357 C.3     1  UNL1        0.0017
     38 C           3.4453    1.7113   27.2859 C.3     1  UNL1        0.0001
     39 C           2.6109    0.5257   27.6709 C.3     1  UNL1        0.0017
     40 C           3.1640   -0.5090   28.6055 C.3     1  UNL1        0.0198
     41 C           7.1143   -4.0377   21.9831 C.1     1  UNL1        0.1030
     42 N           6.8217   -3.4091   20.6531 N.1     1  UNL1       -0.1907
@<TRIPOS>BOND
     1     1     2    1
     2     2     3    1
     3     2     4    1
     4     4     5    1
     5     6     5    1
     6     6     7    1
     7     7     8    1
     8     8     9    1
     9     9    10    1
    10     9    11    1
    11    11    12    1
    12    11    13    1
    13    13    14    1
    14    15    14    1
    15    15    16    1
    16    16    17    1
    17    16    18    1
    18    16    19    1
    19    19    20    2
    20    19    21    1
    21    21    41    1
    22    41    42    3
    23    21    22    2
    24    22    23    1
    25    23    24    1
    26    23    25    1
    27    25    26    2
    28    26    27    1
    29    27    28    2
    30    27    29    1
    31    29    30    1
    32    30    31    1
    33    29    32    1
    34    32    35    1
    35    35    36    1
    36    36    37    1
    37    37    38    1
    38    38    39    1
    39    39    40    1
    40    32    33   am
    41    33    34    2
    42    31     2    1
    43    40    35    1
    44    30     6    1
    45    33     6    1
    46    29     9    1
    47    25    11    1
    48    23    15    1
@<TRIPOS>MOLECULE
*****
 42 48 0 0 0
SMALL
GASTEIGER

@<TRIPOS>ATOM
      1 C          -3.9685    5.5802   22.2928 C.3     1  UNL1        0.0000
      2 C          -3.7041    5.3039   23.7433 C.3     1  UNL1        0.0001
      3 C          -4.8294    6.2881   23.8665 C.3     1  UNL1        0.0000
      4 C          -3.8305    5.3694   25.2365 C.3     1  UNL1        0.0005
      5 C          -2.9235    4.5467   26.1027 C.3     1  UNL1        0.0087
      6 C          -1.8900    3.6585   25.4758 C.3     1  UNL1        0.0709
      7 C          -0.9830    2.8358   26.3421 C.3     1  UNL1        0.0088
      8 C           0.0505    1.9476   25.7152 C.3     1  UNL1        0.0027
      9 C           0.1769    1.8821   24.2219 C.3     1  UNL1        0.0251
     10 C           0.3033    1.8166   22.7287 C.3     1  UNL1        0.0023
     11 C           1.2103    0.9939   23.5950 C.3     1  UNL1        0.0174
     12 C           1.0839    1.0594   25.0882 C.3     1  UNL1        0.0041
     13 C           2.1174    0.1712   24.4613 C.3     1  UNL1        0.0038
     14 C           3.1509   -0.7170   23.8343 C.3     1  UNL1        0.0014
     15 C           3.2773   -0.7825   22.3411 C.3     1  UNL1        0.0141
     16 C           4.3107   -1.6707   21.7142 C.3     1  UNL1        0.0568
     17 C           5.4360   -2.6549   21.5910 C.3     1  UNL1        0.0077
     18 C           4.5751   -1.9470   23.1646 C.3     1  UNL1        0.0077
     19 C           4.4372   -1.7362   20.2209 C.2     1  UNL1        0.1815
     20 O           5.4706   -2.6244   19.5940 O.2     1  UNL1       -0.2907
     21 C           3.5301   -0.9135   19.3546 C.2     1  UNL1        0.0990
     22 C           2.4966   -0.0253   19.9816 C.2     1  UNL1       -0.0098
     23 C           2.3702    0.0402   21.4748 C.3     1  UNL1        0.0349
     24 C           1.4632    0.8629   20.6085 C.3     1  UNL1        0.0085
     25 C           1.3368    0.9284   22.1017 C.2     1  UNL1       -0.0387
     26 C           0.4297    1.7511   21.2354 C.2     1  UNL1        0.0309
     27 C          -0.6038    2.6393   21.8624 C.2     1  UNL1        0.1884
     28 O          -1.0748    3.0756   21.1166 O.2     1  UNL1       -0.2897
     29 C          -0.7301    2.7048   23.3556 C.3     1  UNL1        0.1159
     30 C          -1.7636    3.5930   23.9826 C.3     1  UNL1        0.0319
     31 C          -2.6707    4.4157   23.1164 C.3     1  UNL1        0.0025
     32 N          -1.7997    3.6574   22.9100 N.am    1  UNL1       -0.2777
     33 C          -2.4694    4.2080   24.1341 C.2     1  UNL1        0.2249
     34 O          -3.1141    4.7802   23.9306 O.2     1  UNL1       -0.2749
     35 C          -2.1400    3.9993   21.4897 C.3     1  UNL1        0.0756
     36 C          -3.2227    3.2459   20.7756 C.3     1  UNL1        0.0198
     37 C          -3.5630    3.5879   19.3552 C.3     1  UNL1        0.0017
     38 C          -2.8204    4.6833   18.6490 C.3     1  UNL1        0.0001
     39 C          -1.7376    5.4367   19.3632 C.3     1  UNL1        0.0017
     40 C          -1.3974    5.0947   20.7835 C.3     1  UNL1        0.0198
     41 C           3.6565   -0.9790   17.8614 C.1     1  UNL1        0.1030
     42 N           3.7829   -1.0445   16.3682 N.1     1  UNL1       -0.1907
@<TRIPOS>BOND
     1     1     2    1
     2     2     3    1
     3     2     4    1
     4     4     5    1
     5     6     5    1
     6     6     7    1
     7     7     8    1
     8     8     9    1
     9     9    10    1
    10     9    11    1
    11    11    12    1
    12    11    13    1
    13    13    14    1
    14    15    14    1
    15    15    16    1
    16    16    17    1
    17    16    18    1
    18    16    19    1
    19    19    20    2
    20    19    21    1
    21    21    41    1
    22    41    42    3
    23    21    22    2
    24    22    23    1
    25    23    24    1
    26    23    25    1
    27    25    26    2
    28    26    27    1
    29    27    28    2
    30    27    29    1
    31    29    30    1
    32    30    31    1
    33    29    32    1
    34    32    35    1
    35    35    36    1
    36    36    37    1
    37    37    38    1
    38    38    39    1
    39    39    40    1
    40    32    33   am
    41    33    34    2
    42    31     2    1
    43    40    35    1
    44    30     6    1
    45    33     6    1
    46    29     9    1
    47    25    11    1
    48    23    15    1
