@<TRIPOS>MOLECULE
*****
 34 38 0 0 0
SMALL
GASTEIGER

@<TRIPOS>ATOM
      1 C           7.9138   -1.7630   23.3321 C.2     1  UNL1        0.2463
      2 O           9.1427   -1.7715   24.1924 O.2     1  UNL1       -0.2730
      3 N           7.8618   -0.8990   22.1071 N.am    1  UNL1       -0.2781
      4 C           9.0387   -0.0435   21.7422 C.3     1  UNL1        0.0935
      5 C           8.9866    0.8206   20.5171 C.3     1  UNL1        0.0219
      6 C           7.7578    0.8291   19.6570 C.3     1  UNL1        0.0078
      7 C           6.5810   -0.0264   20.0219 C.3     1  UNL1        0.0419
      8 C           6.6329   -0.8904   21.2469 C.3     1  UNL1        0.0953
      9 C           5.3521   -0.0179   19.1618 C.ar    1  UNL1       -0.0209
     10 C           5.3458   -0.7553   17.8555 C.ar    1  UNL1       -0.0042
     11 C           4.1170   -0.7468   16.9954 C.ar    1  UNL1       -0.0003
     12 C           2.8944   -0.0009   17.4414 C.ar    1  UNL1       -0.0000
     13 C           2.9007    0.7365   18.7476 C.ar    1  UNL1       -0.0003
     14 C           4.1296    0.7280   19.6078 C.ar    1  UNL1       -0.0042
     15 C           6.7369   -2.6185   23.6970 C.3     1  UNL1        0.1835
     16 O           5.4976   -0.7712   25.7099 O.2     1  UNL1       -0.2705
     17 C           5.9299   -2.1474   26.1213 C.2     1  UNL1        0.2744
     18 C           5.7426   -2.5999   27.5390 C.3     1  UNL1        0.2900
     19 O           6.1749   -3.9761   27.9504 O.3     1  UNL1       -0.4643
     20 C           6.7945   -4.8998   26.9440 C.ar    1  UNL1        0.1537
     21 C           7.2268   -6.2759   27.3553 C.ar    1  UNL1        0.0504
     22 C           7.8465   -7.1996   26.3490 C.ar    1  UNL1        0.0713
     23 CL          8.2788   -8.5758   26.7603 Cl      1  UNL1       -0.0813
     24 C           8.0339   -6.7471   24.9311 C.ar    1  UNL1        0.0696
     25 CL          8.6535   -7.6707   23.9247 Cl      1  UNL1       -0.0813
     26 C           7.6016   -5.3709   24.5198 C.ar    1  UNL1        0.0302
     27 C           6.9819   -4.4472   25.5262 C.ar    1  UNL1        0.0894
     28 N           6.5496   -3.0710   25.1149 N.am    1  UNL1       -0.2439
     29 C           5.4561   -1.7459   21.6118 C.3     1  UNL1        0.0924
     30 N           4.9372   -2.7623   20.6383 N.3     1  UNL1       -0.2713
     31 C           3.5169   -2.8935   20.1739 C.3     1  UNL1        0.0722
     32 C           3.4493   -4.0381   19.2069 C.3     1  UNL1        0.0188
     33 C           4.8278   -4.6145   19.0737 C.3     1  UNL1        0.0188
     34 C           5.7473   -3.8259   19.9583 C.3     1  UNL1        0.0722
@<TRIPOS>BOND
     1    16    17    2
     2    17    18    1
     3    18    19    1
     4    19    20    1
     5    20    21   ar
     6    21    22   ar
     7    22    23    1
     8    22    24   ar
     9    24    25    1
    10    24    26   ar
    11    26    27   ar
    12    27    28    1
    13    28    15    1
    14    15     1    1
    15     1     2    2
    16     1     3   am
    17     3     4    1
    18     4     5    1
    19     5     6    1
    20     6     7    1
    21     7     9    1
    22     9    10   ar
    23    10    11   ar
    24    11    12   ar
    25    12    13   ar
    26    13    14   ar
    27     7     8    1
    28     8    29    1
    29    29    30    1
    30    30    31    1
    31    31    32    1
    32    32    33    1
    33    33    34    1
    34    28    17   am
    35     8     3    1
    36    34    30    1
    37    27    20   ar
    38    14     9   ar
@<TRIPOS>MOLECULE
*****
 34 38 0 0 0
SMALL
GASTEIGER

@<TRIPOS>ATOM
      1 C           8.1994   -2.3034   22.9624 C.2     1  UNL1        0.2463
      2 O           9.5359   -2.4111   23.6350 O.2     1  UNL1       -0.2730
      3 N           7.9590   -1.2338   21.9386 N.am    1  UNL1       -0.2781
      4 C           9.0550   -0.2718   21.5875 C.3     1  UNL1        0.0935
      5 C           8.8145    0.7978   20.5637 C.3     1  UNL1        0.0219
      6 C           7.4781    0.9054   19.8911 C.3     1  UNL1        0.0078
      7 C           6.3822   -0.0566   20.2422 C.3     1  UNL1        0.0419
      8 C           6.6226   -1.1262   21.2660 C.3     1  UNL1        0.0953
      9 C           5.0458    0.0510   19.5696 C.ar    1  UNL1       -0.0209
     10 C           4.8723   -0.4404   18.1630 C.ar    1  UNL1       -0.0042
     11 C           3.5359   -0.3328   17.4904 C.ar    1  UNL1       -0.0003
     12 C           2.3729    0.2661   18.2244 C.ar    1  UNL1       -0.0000
     13 C           2.5463    0.7574   19.6309 C.ar    1  UNL1       -0.0003
     14 C           3.8828    0.6499   20.3036 C.ar    1  UNL1       -0.0042
     15 C           7.1034   -3.2655   23.3135 C.3     1  UNL1        0.1835
     16 O           8.1856   -5.5623   21.7155 O.2     1  UNL1       -0.2705
     17 C           7.9737   -5.7105   23.1930 C.2     1  UNL1        0.2744
     18 C           8.3028   -7.0072   23.8715 C.3     1  UNL1        0.2900
     19 O           8.0908   -7.1554   25.3490 O.3     1  UNL1       -0.4643
     20 C           7.5497   -6.0071   26.1480 C.ar    1  UNL1        0.1537
     21 C           7.3378   -6.1554   27.6256 C.ar    1  UNL1        0.0504
     22 C           6.7967   -5.0070   28.4246 C.ar    1  UNL1        0.0713
     23 CL          6.5847   -5.1553   29.9021 Cl      1  UNL1       -0.0813
     24 C           6.4675   -3.7103   27.7461 C.ar    1  UNL1        0.0696
     25 CL          5.9264   -2.5620   28.5451 Cl      1  UNL1       -0.0813
     26 C           6.6795   -3.5620   26.2686 C.ar    1  UNL1        0.0302
     27 C           7.2206   -4.7105   25.4695 C.ar    1  UNL1        0.0894
     28 N           7.4326   -4.5622   23.9920 N.am    1  UNL1       -0.2439
     29 C           5.5266   -2.0883   21.6171 C.3     1  UNL1        0.0924
     30 N           4.9617   -2.9976   20.5665 N.3     1  UNL1       -0.2713
     31 C           5.7433   -3.9540   19.7153 C.3     1  UNL1        0.0722
     32 C           4.7808   -4.6577   18.8053 C.3     1  UNL1        0.0188
     33 C           3.4042   -4.1364   19.0940 C.3     1  UNL1        0.0188
     34 C           3.5161   -3.1104   20.1825 C.3     1  UNL1        0.0722
@<TRIPOS>BOND
     1    16    17    2
     2    17    18    1
     3    18    19    1
     4    19    20    1
     5    20    21   ar
     6    21    22   ar
     7    22    23    1
     8    22    24   ar
     9    24    25    1
    10    24    26   ar
    11    26    27   ar
    12    27    28    1
    13    28    15    1
    14    15     1    1
    15     1     2    2
    16     1     3   am
    17     3     4    1
    18     4     5    1
    19     5     6    1
    20     6     7    1
    21     7     9    1
    22     9    10   ar
    23    10    11   ar
    24    11    12   ar
    25    12    13   ar
    26    13    14   ar
    27     7     8    1
    28     8    29    1
    29    29    30    1
    30    30    31    1
    31    31    32    1
    32    32    33    1
    33    33    34    1
    34    28    17   am
    35     8     3    1
    36    34    30    1
    37    27    20   ar
    38    14     9   ar
@<TRIPOS>MOLECULE
*****
 34 38 0 0 0
SMALL
GASTEIGER

@<TRIPOS>ATOM
      1 C           7.0004   -1.8110   23.5302 C.2     1  UNL1        0.2463
      2 O           8.2532   -1.7460   24.3526 O.2     1  UNL1       -0.2730
      3 N           6.3322   -0.5458   23.0800 N.am    1  UNL1       -0.2781
      4 C           6.9168    0.7845   23.4521 C.3     1  UNL1        0.0935
      5 C           6.2486    2.0498   23.0018 C.3     1  UNL1        0.0219
      6 C           4.9958    1.9846   22.1794 C.3     1  UNL1        0.0078
      7 C           4.4113    0.6543   21.8073 C.3     1  UNL1        0.0419
      8 C           5.0794   -0.6109   22.2575 C.3     1  UNL1        0.0953
      9 C           3.1585    0.5892   20.9849 C.ar    1  UNL1       -0.0209
     10 C           3.2301    0.7497   19.4952 C.ar    1  UNL1       -0.0042
     11 C           1.9774    0.6846   18.6728 C.ar    1  UNL1       -0.0003
     12 C           0.6530    0.4590   19.3401 C.ar    1  UNL1       -0.0000
     13 C           0.5814    0.2985   20.8297 C.ar    1  UNL1       -0.0003
     14 C           1.8342    0.3636   21.6522 C.ar    1  UNL1       -0.0042
     15 C           6.4158   -3.1414   23.1580 C.3     1  UNL1        0.1835
     16 O           7.8424   -3.7682   20.5945 O.2     1  UNL1       -0.2705
     17 C           8.0128   -4.6635   21.7859 C.2     1  UNL1        0.2744
     18 C           8.8965   -5.8721   21.6956 C.3     1  UNL1        0.2900
     19 O           9.0669   -6.7674   22.8870 O.3     1  UNL1       -0.4643
     20 C           8.3537   -6.4540   24.1688 C.ar    1  UNL1        0.1537
     21 C           8.5241   -7.3492   25.3602 C.ar    1  UNL1        0.0504
     22 C           7.8108   -7.0358   26.6420 C.ar    1  UNL1        0.0713
     23 CL          7.9812   -7.9310   27.8334 Cl      1  UNL1       -0.0813
     24 C           6.9270   -5.8271   26.7323 C.ar    1  UNL1        0.0696
     25 CL          6.2138   -5.5137   28.0141 Cl      1  UNL1       -0.0813
     26 C           6.7566   -4.9318   25.5409 C.ar    1  UNL1        0.0302
     27 C           7.4700   -5.2453   24.2591 C.ar    1  UNL1        0.0894
     28 N           7.2996   -4.3501   23.0677 N.am    1  UNL1       -0.2439
     29 C           4.4948   -1.9412   21.8854 C.3     1  UNL1        0.0924
     30 N           4.7253   -2.5047   20.5145 N.3     1  UNL1       -0.2713
     31 C           4.2541   -3.8399   20.0194 C.3     1  UNL1        0.0722
     32 C           4.7051   -3.9923   18.5969 C.3     1  UNL1        0.0188
     33 C           5.4550   -2.7512   18.2129 C.3     1  UNL1        0.0188
     34 C           5.4675   -1.8318   19.3980 C.3     1  UNL1        0.0722
@<TRIPOS>BOND
     1    16    17    2
     2    17    18    1
     3    18    19    1
     4    19    20    1
     5    20    21   ar
     6    21    22   ar
     7    22    23    1
     8    22    24   ar
     9    24    25    1
    10    24    26   ar
    11    26    27   ar
    12    27    28    1
    13    28    15    1
    14    15     1    1
    15     1     2    2
    16     1     3   am
    17     3     4    1
    18     4     5    1
    19     5     6    1
    20     6     7    1
    21     7     9    1
    22     9    10   ar
    23    10    11   ar
    24    11    12   ar
    25    12    13   ar
    26    13    14   ar
    27     7     8    1
    28     8    29    1
    29    29    30    1
    30    30    31    1
    31    31    32    1
    32    32    33    1
    33    33    34    1
    34    28    17   am
    35     8     3    1
    36    34    30    1
    37    27    20   ar
    38    14     9   ar
@<TRIPOS>MOLECULE
*****
 34 38 0 0 0
SMALL
GASTEIGER

@<TRIPOS>ATOM
      1 C         -14.5267   -0.4490   18.2029 C.2     1  UNL1        0.2463
      2 O         -15.0872    0.8874   17.8154 O.2     1  UNL1       -0.2730
      3 N         -13.2442   -0.9301   17.5918 N.am    1  UNL1       -0.2781
      4 C         -12.5220   -0.0749   16.5932 C.3     1  UNL1        0.0935
      5 C         -11.2394   -0.5562   15.9821 C.3     1  UNL1        0.0219
      6 C         -10.6790   -1.8925   16.3695 C.3     1  UNL1        0.0078
      7 C         -11.4012   -2.7477   17.3681 C.3     1  UNL1        0.0419
      8 C         -12.6837   -2.2665   17.9792 C.3     1  UNL1        0.0953
      9 C         -10.8408   -4.0840   17.7555 C.ar    1  UNL1       -0.0209
     10 C         -11.0245   -5.2655   16.8497 C.ar    1  UNL1       -0.0042
     11 C         -10.4641   -6.6018   17.2371 C.ar    1  UNL1       -0.0003
     12 C          -9.7201   -6.7568   18.5304 C.ar    1  UNL1       -0.0000
     13 C          -9.5364   -5.5754   19.4362 C.ar    1  UNL1       -0.0003
     14 C         -10.0968   -4.2389   19.0487 C.ar    1  UNL1       -0.0042
     15 C         -15.2489   -1.3042   19.2014 C.3     1  UNL1        0.1835
     16 O         -16.7048   -3.3435   17.5515 O.2     1  UNL1       -0.2705
     17 C         -17.4763   -2.3634   18.3847 C.2     1  UNL1        0.2744
     18 C         -18.9757   -2.4030   18.3930 C.3     1  UNL1        0.2900
     19 O         -19.7473   -1.4229   19.2261 O.3     1  UNL1       -0.4643
     20 C         -19.0194   -0.4033   20.0511 C.ar    1  UNL1        0.1537
     21 C         -19.7910    0.5768   20.8842 C.ar    1  UNL1        0.0504
     22 C         -19.0631    1.5964   21.7091 C.ar    1  UNL1        0.0713
     23 CL        -19.8346    2.5765   22.5423 Cl      1  UNL1       -0.0813
     24 C         -17.5636    1.6360   21.7009 C.ar    1  UNL1        0.0696
     25 CL        -16.8357    2.6556   22.5258 Cl      1  UNL1       -0.0813
     26 C         -16.7920    0.6559   20.8678 C.ar    1  UNL1        0.0302
     27 C         -17.5200   -0.3637   20.0428 C.ar    1  UNL1        0.0894
     28 N         -16.7484   -1.3438   19.2096 N.am    1  UNL1       -0.2439
     29 C         -13.4059   -3.1217   18.9777 C.3     1  UNL1        0.0924
     30 N         -13.7349   -4.5470   18.6457 N.3     1  UNL1       -0.2713
     31 C         -14.3242   -5.0387   17.3570 C.3     1  UNL1        0.0722
     32 C         -14.4859   -6.5264   17.4589 C.3     1  UNL1        0.0188
     33 C         -13.9965   -6.9543   18.8108 C.3     1  UNL1        0.0188
     34 C         -13.5324   -5.7310   19.5443 C.3     1  UNL1        0.0722
@<TRIPOS>BOND
     1    16    17    2
     2    17    18    1
     3    18    19    1
     4    19    20    1
     5    20    21   ar
     6    21    22   ar
     7    22    23    1
     8    22    24   ar
     9    24    25    1
    10    24    26   ar
    11    26    27   ar
    12    27    28    1
    13    28    15    1
    14    15     1    1
    15     1     2    2
    16     1     3   am
    17     3     4    1
    18     4     5    1
    19     5     6    1
    20     6     7    1
    21     7     9    1
    22     9    10   ar
    23    10    11   ar
    24    11    12   ar
    25    12    13   ar
    26    13    14   ar
    27     7     8    1
    28     8    29    1
    29    29    30    1
    30    30    31    1
    31    31    32    1
    32    32    33    1
    33    33    34    1
    34    28    17   am
    35     8     3    1
    36    34    30    1
    37    27    20   ar
    38    14     9   ar
@<TRIPOS>MOLECULE
*****
 34 38 0 0 0
SMALL
GASTEIGER

@<TRIPOS>ATOM
      1 C           8.1082   -4.5690   24.9206 C.2     1  UNL1        0.2463
      2 O           9.3108   -5.0663   25.6666 O.2     1  UNL1       -0.2730
      3 N           8.1832   -4.3483   23.4388 N.am    1  UNL1       -0.2781
      4 C           9.4608   -4.6248   22.7031 C.3     1  UNL1        0.0935
      5 C           9.5358   -4.4040   21.2212 C.3     1  UNL1        0.0219
      6 C           8.3332   -3.9068   20.4752 C.3     1  UNL1        0.0078
      7 C           7.0556   -3.6303   21.2110 C.3     1  UNL1        0.0419
      8 C           6.9806   -3.8511   22.6927 C.3     1  UNL1        0.0953
      9 C           5.8530   -3.1331   20.4650 C.ar    1  UNL1       -0.0209
     10 C           4.7529   -4.0840   20.0966 C.ar    1  UNL1       -0.0042
     11 C           3.5504   -3.5868   19.3506 C.ar    1  UNL1       -0.0003
     12 C           3.4478   -2.1387   18.9730 C.ar    1  UNL1       -0.0000
     13 C           4.5478   -1.1879   19.3414 C.ar    1  UNL1       -0.0003
     14 C           5.7505   -1.6851   20.0874 C.ar    1  UNL1       -0.0042
     15 C           6.8306   -4.2925   25.6563 C.3     1  UNL1        0.1835
     16 O           7.1107   -6.9353   27.0483 O.2     1  UNL1       -0.2705
     17 C           6.9387   -5.6795   27.8505 C.2     1  UNL1        0.2744
     18 C           6.9068   -5.7451   29.3487 C.3     1  UNL1        0.2900
     19 O           6.7348   -4.4894   30.1510 O.3     1  UNL1       -0.4643
     20 C           6.5947   -3.1681   29.4550 C.ar    1  UNL1        0.1537
     21 C           6.4227   -1.9124   30.2572 C.ar    1  UNL1        0.0504
     22 C           6.2827   -0.5910   29.5613 C.ar    1  UNL1        0.0713
     23 CL          6.1107    0.6647   30.3635 Cl      1  UNL1       -0.0813
     24 C           6.3146   -0.5254   28.0630 C.ar    1  UNL1        0.0696
     25 CL          6.1746    0.7960   27.3670 Cl      1  UNL1       -0.0813
     26 C           6.4866   -1.7811   27.2608 C.ar    1  UNL1        0.0302
     27 C           6.6267   -3.1025   27.9568 C.ar    1  UNL1        0.0894
     28 N           6.7987   -4.3582   27.1546 N.am    1  UNL1       -0.2439
     29 C           5.7030   -3.5746   23.4285 C.3     1  UNL1        0.0924
     30 N           5.1498   -2.1810   23.4733 N.3     1  UNL1       -0.2713
     31 C           5.9208   -0.9366   23.8002 C.3     1  UNL1        0.0722
     32 C           4.9760    0.2263   23.7281 C.3     1  UNL1        0.0188
     33 C           3.6212   -0.2995   23.3566 C.3     1  UNL1        0.0188
     34 C           3.7286   -1.7873   23.1992 C.3     1  UNL1        0.0722
@<TRIPOS>BOND
     1    16    17    2
     2    17    18    1
     3    18    19    1
     4    19    20    1
     5    20    21   ar
     6    21    22   ar
     7    22    23    1
     8    22    24   ar
     9    24    25    1
    10    24    26   ar
    11    26    27   ar
    12    27    28    1
    13    28    15    1
    14    15     1    1
    15     1     2    2
    16     1     3   am
    17     3     4    1
    18     4     5    1
    19     5     6    1
    20     6     7    1
    21     7     9    1
    22     9    10   ar
    23    10    11   ar
    24    11    12   ar
    25    12    13   ar
    26    13    14   ar
    27     7     8    1
    28     8    29    1
    29    29    30    1
    30    30    31    1
    31    31    32    1
    32    32    33    1
    33    33    34    1
    34    28    17   am
    35     8     3    1
    36    34    30    1
    37    27    20   ar
    38    14     9   ar
@<TRIPOS>MOLECULE
*****
 34 38 0 0 0
SMALL
GASTEIGER

@<TRIPOS>ATOM
      1 C           0.4314    4.2407   20.2524 C.2     1  UNL1        0.2463
      2 O          -0.1401    5.6231   20.3635 O.2     1  UNL1       -0.2730
      3 N           1.6972    4.0123   19.4807 N.am    1  UNL1       -0.2781
      4 C           2.3915    5.1662   18.8200 C.3     1  UNL1        0.0935
      5 C           3.6573    4.9377   18.0483 C.3     1  UNL1        0.0219
      6 C           4.2288    3.5554   17.9372 C.3     1  UNL1        0.0078
      7 C           3.5346    2.4014   18.5978 C.3     1  UNL1        0.0419
      8 C           2.2688    2.6298   19.3695 C.3     1  UNL1        0.0953
      9 C           4.1061    1.0190   18.4867 C.ar    1  UNL1       -0.0209
     10 C           3.4681    0.0149   17.5730 C.ar    1  UNL1       -0.0042
     11 C           4.0396   -1.3675   17.4619 C.ar    1  UNL1       -0.0003
     12 C           5.2491   -1.7458   18.2645 C.ar    1  UNL1       -0.0000
     13 C           5.8870   -0.7417   19.1782 C.ar    1  UNL1       -0.0003
     14 C           5.3155    0.6407   19.2893 C.ar    1  UNL1       -0.0042
     15 C          -0.2628    3.0868   20.9130 C.3     1  UNL1        0.1835
     16 O           0.1622    3.1749   23.8814 O.2     1  UNL1       -0.2705
     17 C          -1.2112    3.3793   23.3140 C.2     1  UNL1        0.2744
     18 C          -2.3721    3.6278   24.2309 C.3     1  UNL1        0.2900
     19 O          -3.7455    3.8321   23.6635 O.3     1  UNL1       -0.4643
     20 C          -3.9581    3.7880   22.1793 C.ar    1  UNL1        0.1537
     21 C          -5.3315    3.9924   21.6119 C.ar    1  UNL1        0.0504
     22 C          -5.5440    3.9483   20.1278 C.ar    1  UNL1        0.0713
     23 CL         -6.9175    4.1527   19.5604 Cl      1  UNL1       -0.0813
     24 C          -4.3831    3.6999   19.2109 C.ar    1  UNL1        0.0696
     25 CL         -4.5957    3.6558   17.7267 Cl      1  UNL1       -0.0813
     26 C          -3.0097    3.4955   19.7782 C.ar    1  UNL1        0.0302
     27 C          -2.7972    3.5396   21.2625 C.ar    1  UNL1        0.0894
     28 N          -1.4237    3.3352   21.8299 N.am    1  UNL1       -0.2439
     29 C           1.5745    1.4759   20.0301 C.3     1  UNL1        0.0924
     30 N           2.2880    0.6695   21.0744 N.3     1  UNL1       -0.2713
     31 C           2.3966   -0.8260   21.1118 C.3     1  UNL1        0.0722
     32 C           3.1940   -1.2028   22.3252 C.3     1  UNL1        0.0188
     33 C           3.5781    0.0600   23.0378 C.3     1  UNL1        0.0188
     34 C           3.0182    1.2172   22.2648 C.3     1  UNL1        0.0722
@<TRIPOS>BOND
     1    16    17    2
     2    17    18    1
     3    18    19    1
     4    19    20    1
     5    20    21   ar
     6    21    22   ar
     7    22    23    1
     8    22    24   ar
     9    24    25    1
    10    24    26   ar
    11    26    27   ar
    12    27    28    1
    13    28    15    1
    14    15     1    1
    15     1     2    2
    16     1     3   am
    17     3     4    1
    18     4     5    1
    19     5     6    1
    20     6     7    1
    21     7     9    1
    22     9    10   ar
    23    10    11   ar
    24    11    12   ar
    25    12    13   ar
    26    13    14   ar
    27     7     8    1
    28     8    29    1
    29    29    30    1
    30    30    31    1
    31    31    32    1
    32    32    33    1
    33    33    34    1
    34    28    17   am
    35     8     3    1
    36    34    30    1
    37    27    20   ar
    38    14     9   ar
@<TRIPOS>MOLECULE
*****
 34 38 0 0 0
SMALL
GASTEIGER

@<TRIPOS>ATOM
      1 C           3.2621    1.8402   23.6285 C.2     1  UNL1        0.2463
      2 O           3.0973    3.2575   24.0913 O.2     1  UNL1       -0.2730
      3 N           3.6457    1.5554   22.2067 N.am    1  UNL1       -0.2781
      4 C           3.8645    2.6877   21.2476 C.3     1  UNL1        0.0935
      5 C           4.2481    2.4028   19.8257 C.3     1  UNL1        0.0219
      6 C           4.4128    0.9855   19.3629 C.3     1  UNL1        0.0078
      7 C           4.1940   -0.1468   20.3220 C.3     1  UNL1        0.0419
      8 C           3.8104    0.1380   21.7438 C.3     1  UNL1        0.0953
      9 C           4.3588   -1.5641   19.8592 C.ar    1  UNL1       -0.0209
     10 C           3.1509   -2.4239   19.6313 C.ar    1  UNL1       -0.0042
     11 C           3.3157   -3.8411   19.1685 C.ar    1  UNL1       -0.0003
     12 C           4.6882   -4.3987   18.9337 C.ar    1  UNL1       -0.0000
     13 C           5.8961   -3.5390   19.1616 C.ar    1  UNL1       -0.0003
     14 C           5.7314   -2.1216   19.6244 C.ar    1  UNL1       -0.0042
     15 C           3.0432    0.7078   24.5876 C.3     1  UNL1        0.1835
     16 O           0.3113    1.6886   23.8297 O.2     1  UNL1       -0.2705
     17 C           0.5994    1.2930   25.2476 C.2     1  UNL1        0.2744
     18 C          -0.4783    1.3877   26.2865 C.3     1  UNL1        0.2900
     19 O          -0.1901    0.9920   27.7044 O.3     1  UNL1       -0.4643
     20 C           1.1758    0.5016   28.0833 C.ar    1  UNL1        0.1537
     21 C           1.4640    0.1060   29.5012 C.ar    1  UNL1        0.0504
     22 C           2.8299   -0.3844   29.8802 C.ar    1  UNL1        0.0713
     23 CL          3.1181   -0.7801   31.2981 Cl      1  UNL1       -0.0813
     24 C           3.9078   -0.4792   28.8412 C.ar    1  UNL1        0.0696
     25 CL          5.2737   -0.9695   29.2202 Cl      1  UNL1       -0.0813
     26 C           3.6196   -0.0835   27.4233 C.ar    1  UNL1        0.0302
     27 C           2.2536    0.4069   27.0444 C.ar    1  UNL1        0.0894
     28 N           1.9654    0.8026   25.6265 N.am    1  UNL1       -0.2439
     29 C           3.5916   -0.9943   22.7029 C.3     1  UNL1        0.0924
     30 N           4.7354   -1.8873   23.0825 N.3     1  UNL1       -0.2713
     31 C           6.0621   -1.4401   23.6209 C.3     1  UNL1        0.0722
     32 C           6.9000   -2.6607   23.8616 C.3     1  UNL1        0.0188
     33 C           6.0913   -3.8624   23.4719 C.3     1  UNL1        0.0188
     34 C           4.7535   -3.3844   22.9904 C.3     1  UNL1        0.0722
@<TRIPOS>BOND
     1    16    17    2
     2    17    18    1
     3    18    19    1
     4    19    20    1
     5    20    21   ar
     6    21    22   ar
     7    22    23    1
     8    22    24   ar
     9    24    25    1
    10    24    26   ar
    11    26    27   ar
    12    27    28    1
    13    28    15    1
    14    15     1    1
    15     1     2    2
    16     1     3   am
    17     3     4    1
    18     4     5    1
    19     5     6    1
    20     6     7    1
    21     7     9    1
    22     9    10   ar
    23    10    11   ar
    24    11    12   ar
    25    12    13   ar
    26    13    14   ar
    27     7     8    1
    28     8    29    1
    29    29    30    1
    30    30    31    1
    31    31    32    1
    32    32    33    1
    33    33    34    1
    34    28    17   am
    35     8     3    1
    36    34    30    1
    37    27    20   ar
    38    14     9   ar
@<TRIPOS>MOLECULE
*****
 34 38 0 0 0
SMALL
GASTEIGER

@<TRIPOS>ATOM
      1 C          -1.7418    3.9632   18.1782 C.2     1  UNL1        0.2463
      2 O          -1.4609    3.8292   16.7108 O.2     1  UNL1       -0.2730
      3 N          -3.1569    3.9486   18.6753 N.am    1  UNL1       -0.2781
      4 C          -4.2912    3.7998   17.7051 C.3     1  UNL1        0.0935
      5 C          -5.7064    3.7852   18.2023 C.3     1  UNL1        0.0219
      6 C          -5.9872    3.9192   19.6697 C.3     1  UNL1        0.0078
      7 C          -4.8529    4.0679   20.6399 C.3     1  UNL1        0.0419
      8 C          -3.4378    4.0826   20.1427 C.3     1  UNL1        0.0953
      9 C          -5.1337    4.2020   22.1072 C.ar    1  UNL1       -0.0209
     10 C          -5.6925    5.4839   22.6499 C.ar    1  UNL1       -0.0042
     11 C          -5.9734    5.6180   24.1172 C.ar    1  UNL1       -0.0003
     12 C          -5.6954    4.4701   25.0420 C.ar    1  UNL1       -0.0000
     13 C          -5.1367    3.1882   24.4994 C.ar    1  UNL1       -0.0003
     14 C          -4.8558    3.0541   23.0320 C.ar    1  UNL1       -0.0042
     15 C          -0.6075    4.1119   19.1484 C.3     1  UNL1        0.1835
     16 O           0.6470    6.5322   17.8959 O.2     1  UNL1       -0.2705
     17 C           1.4368    5.2645   18.0338 C.2     1  UNL1        0.2744
     18 C           2.8539    5.2069   17.5454 C.3     1  UNL1        0.2900
     19 O           3.6437    3.9391   17.6832 O.3     1  UNL1       -0.4643
     20 C           3.0165    2.7290   18.3094 C.ar    1  UNL1        0.1537
     21 C           3.8064    1.4613   18.4472 C.ar    1  UNL1        0.0504
     22 C           3.1792    0.2512   19.0734 C.ar    1  UNL1        0.0713
     23 CL          3.9690   -1.0166   19.2112 Cl      1  UNL1       -0.0813
     24 C           1.7620    0.3087   19.5618 C.ar    1  UNL1        0.0696
     25 CL          1.1348   -0.9014   20.1880 Cl      1  UNL1       -0.0813
     26 C           0.9722    1.5765   19.4240 C.ar    1  UNL1        0.0302
     27 C           1.5995    2.7866   18.7978 C.ar    1  UNL1        0.0894
     28 N           0.8096    4.0544   18.6600 N.am    1  UNL1       -0.2439
     29 C          -2.3035    4.2313   21.1129 C.3     1  UNL1        0.0924
     30 N          -2.2448    5.4236   22.0211 N.3     1  UNL1       -0.2713
     31 C          -2.4164    6.8555   21.6085 C.3     1  UNL1        0.0722
     32 C          -2.2819    7.7103   22.8338 C.3     1  UNL1        0.0188
     33 C          -2.0272    6.8067   24.0037 C.3     1  UNL1        0.0188
     34 C          -2.0043    5.3935   23.5014 C.3     1  UNL1        0.0722
@<TRIPOS>BOND
     1    16    17    2
     2    17    18    1
     3    18    19    1
     4    19    20    1
     5    20    21   ar
     6    21    22   ar
     7    22    23    1
     8    22    24   ar
     9    24    25    1
    10    24    26   ar
    11    26    27   ar
    12    27    28    1
    13    28    15    1
    14    15     1    1
    15     1     2    2
    16     1     3   am
    17     3     4    1
    18     4     5    1
    19     5     6    1
    20     6     7    1
    21     7     9    1
    22     9    10   ar
    23    10    11   ar
    24    11    12   ar
    25    12    13   ar
    26    13    14   ar
    27     7     8    1
    28     8    29    1
    29    29    30    1
    30    30    31    1
    31    31    32    1
    32    32    33    1
    33    33    34    1
    34    28    17   am
    35     8     3    1
    36    34    30    1
    37    27    20   ar
    38    14     9   ar
@<TRIPOS>MOLECULE
*****
 34 38 0 0 0
SMALL
GASTEIGER

@<TRIPOS>ATOM
      1 C           1.4386    1.3489   23.0106 C.2     1  UNL1        0.2463
      2 O           0.2154    1.5153   22.1584 O.2     1  UNL1       -0.2730
      3 N           1.3054    1.2414   24.5008 N.am    1  UNL1       -0.2781
      4 C          -0.0509    1.3003   25.1388 C.3     1  UNL1        0.0935
      5 C          -0.1840    1.1928   26.6291 C.3     1  UNL1        0.0219
      6 C           1.0391    1.0263   27.4812 C.3     1  UNL1        0.0078
      7 C           2.3954    0.9674   26.8432 C.3     1  UNL1        0.0419
      8 C           2.5286    1.0749   25.3530 C.3     1  UNL1        0.0953
      9 C           3.6185    0.8009   27.6954 C.ar    1  UNL1       -0.0209
     10 C           3.9396   -0.5368   28.2934 C.ar    1  UNL1       -0.0042
     11 C           5.1627   -0.7033   29.1456 C.ar    1  UNL1       -0.0003
     12 C           6.0648    0.4679   29.3998 C.ar    1  UNL1       -0.0000
     13 C           5.7438    1.8055   28.8018 C.ar    1  UNL1       -0.0003
     14 C           4.5206    1.9721   27.9495 C.ar    1  UNL1       -0.0042
     15 C           2.7948    1.2899   22.3726 C.3     1  UNL1        0.1835
     16 O           2.1944    3.4726   20.4040 O.2     1  UNL1       -0.2705
     17 C           2.6204    2.1195   19.9167 C.2     1  UNL1        0.2744
     18 C           2.7462    1.8577   18.4451 C.3     1  UNL1        0.2900
     19 O           3.1723    0.5045   17.9578 O.3     1  UNL1       -0.4643
     20 C           3.4725   -0.5868   18.9420 C.ar    1  UNL1        0.1537
     21 C           3.8985   -1.9400   18.4547 C.ar    1  UNL1        0.0504
     22 C           4.1987   -3.0313   19.4389 C.ar    1  UNL1        0.0713
     23 CL          4.6248   -4.3845   18.9516 Cl      1  UNL1       -0.0813
     24 C           4.0729   -2.7695   20.9106 C.ar    1  UNL1        0.0696
     25 CL          4.3732   -3.8609   21.8948 Cl      1  UNL1       -0.0813
     26 C           3.6469   -1.4164   21.3979 C.ar    1  UNL1        0.0302
     27 C           3.3467   -0.3250   20.4136 C.ar    1  UNL1        0.0894
     28 N           2.9206    1.0281   20.9009 N.am    1  UNL1       -0.2439
     29 C           3.8848    1.0159   24.7150 C.3     1  UNL1        0.0924
     30 N           4.7711   -0.1721   24.9456 N.3     1  UNL1       -0.2713
     31 C           4.3593   -1.6112   24.8493 C.3     1  UNL1        0.0722
     32 C           5.5584   -2.4581   25.1571 C.3     1  UNL1        0.0188
     33 C           6.7115   -1.5423   25.4435 C.3     1  UNL1        0.0188
     34 C           6.2249   -0.1295   25.3128 C.3     1  UNL1        0.0722
@<TRIPOS>BOND
     1    16    17    2
     2    17    18    1
     3    18    19    1
     4    19    20    1
     5    20    21   ar
     6    21    22   ar
     7    22    23    1
     8    22    24   ar
     9    24    25    1
    10    24    26   ar
    11    26    27   ar
    12    27    28    1
    13    28    15    1
    14    15     1    1
    15     1     2    2
    16     1     3   am
    17     3     4    1
    18     4     5    1
    19     5     6    1
    20     6     7    1
    21     7     9    1
    22     9    10   ar
    23    10    11   ar
    24    11    12   ar
    25    12    13   ar
    26    13    14   ar
    27     7     8    1
    28     8    29    1
    29    29    30    1
    30    30    31    1
    31    31    32    1
    32    32    33    1
    33    33    34    1
    34    28    17   am
    35     8     3    1
    36    34    30    1
    37    27    20   ar
    38    14     9   ar
