@<TRIPOS>MOLECULE
*****
 29 32 0 0 0
SMALL
GASTEIGER

@<TRIPOS>ATOM
      1 N          -8.4459  -18.8960   20.4960 N.am    1  UNL1       -0.2863
      2 C          -7.1744  -18.4643   21.1643 C.2     1  UNL1        0.3047
      3 O          -7.2024  -17.3801   22.2005 O.2     1  UNL1       -0.2525
      4 N          -5.8748  -19.1168   20.7965 N.am    1  UNL1       -0.2683
      5 H          -8.4276  -19.6076   19.8159 H       1  UNL1        0.1512
      6 H          -5.8564  -19.8285   20.1164 H       1  UNL1        0.1564
      7 C         -12.8850  -15.7153   20.2100 C.3     1  UNL1        0.0437
      8 C         -11.6726  -16.5935   20.3036 C.3     1  UNL1        0.1352
      9 C         -11.4215  -15.9436   18.9752 C.3     1  UNL1        0.0437
     10 C         -10.3730  -17.2460   19.9358 C.3     1  UNL1        0.0642
     11 C          -9.7455  -18.2435   20.8638 C.3     1  UNL1        0.1020
     12 C         -10.4177  -18.5885   22.1597 C.ar    1  UNL1        0.0319
     13 C          -9.7902  -19.5860   23.0877 C.ar    1  UNL1        0.0300
     14 C         -10.4623  -19.9309   24.3835 C.ar    1  UNL1        0.1401
     15 F          -9.8348  -20.9284   25.3117 F       1  UNL1       -0.2042
     16 C         -11.7619  -19.2784   24.7513 C.ar    1  UNL1        0.0327
     17 C         -12.3894  -18.2809   23.8233 C.ar    1  UNL1        0.0389
     18 C         -11.7172  -17.9360   22.5275 C.ar    1  UNL1        0.1358
     19 O         -12.3447  -16.9385   21.5994 O.3     1  UNL1       -0.4828
     20 C          -4.6032  -18.6851   21.4649 C.ar    1  UNL1        0.0516
     21 C          -4.5609  -18.5092   22.9539 C.ar    1  UNL1        0.0147
     22 C          -3.2893  -18.0774   23.6223 C.ar    1  UNL1        0.0013
     23 C          -2.0601  -17.8216   22.8016 C.ar    1  UNL1        0.0016
     24 C          -2.1024  -17.9975   21.3126 C.ar    1  UNL1        0.0204
     25 C          -0.8732  -17.7417   20.4919 C.ar    1  UNL1        0.0989
     26 N          -0.9155  -17.9176   19.0029 N.ar    1  UNL1       -0.2423
     27 C          -2.1871  -18.3494   18.3345 C.ar    1  UNL1        0.0989
     28 C          -3.4163  -18.6052   19.1551 C.ar    1  UNL1        0.0219
     29 C          -3.3739  -18.4293   20.6442 C.ar    1  UNL1        0.0166
@<TRIPOS>BOND
     1     7     8    1
     2     8     9    1
     3     8    10    1
     4    10    11    1
     5    11     1    1
     6     1     2   am
     7     2     3    2
     8     2     4   am
     9     4    20    1
    10    20    21   ar
    11    21    22   ar
    12    22    23   ar
    13    23    24   ar
    14    24    25   ar
    15    25    26   ar
    16    26    27   ar
    17    27    28   ar
    18    28    29   ar
    19    11    12    1
    20    12    13   ar
    21    13    14   ar
    22    14    15    1
    23    14    16   ar
    24    16    17   ar
    25    17    18   ar
    26    18    19    1
    27    19     8    1
    28    29    20   ar
    29    18    12   ar
    30    29    24   ar
    31     1     5    1
    32     4     6    1
@<TRIPOS>MOLECULE
*****
 29 32 0 0 0
SMALL
GASTEIGER

@<TRIPOS>ATOM
      1 N         -14.4567   -4.5524   20.3989 N.am    1  UNL1       -0.2863
      2 C         -14.9982   -3.3403   19.7006 C.2     1  UNL1        0.3047
      3 O         -15.2424   -3.3737   18.2210 O.2     1  UNL1       -0.2525
      4 N         -15.2956   -2.0949   20.4820 N.am    1  UNL1       -0.2683
      5 H         -14.2965   -4.5305   21.3700 H       1  UNL1        0.1512
      6 H         -15.1354   -2.0730   21.4531 H       1  UNL1        0.1564
      7 C         -15.1584   -9.3620   17.8930 C.3     1  UNL1        0.0437
      8 C         -14.9496   -8.0428   18.5758 C.3     1  UNL1        0.1352
      9 C         -16.4071   -8.2551   18.8595 C.3     1  UNL1        0.0437
     10 C         -15.2470   -6.7974   19.3571 C.3     1  UNL1        0.0642
     11 C         -14.1594   -5.7978   19.6176 C.3     1  UNL1        0.1020
     12 C         -12.7743   -6.0436   19.0967 C.ar    1  UNL1        0.0319
     13 C         -11.6867   -5.0440   19.3572 C.ar    1  UNL1        0.0300
     14 C         -10.3017   -5.2899   18.8363 C.ar    1  UNL1        0.1401
     15 F          -9.2140   -4.2903   19.0968 F       1  UNL1       -0.2042
     16 C         -10.0043   -6.5353   18.0550 C.ar    1  UNL1        0.0327
     17 C         -11.0919   -7.5349   17.7945 C.ar    1  UNL1        0.0389
     18 C         -12.4769   -7.2891   18.3154 C.ar    1  UNL1        0.1358
     19 O         -13.5646   -8.2887   18.0549 O.3     1  UNL1       -0.4828
     20 C         -15.8372   -0.8828   19.7836 C.ar    1  UNL1        0.0516
     21 C         -17.2929   -0.5397   19.8970 C.ar    1  UNL1        0.0147
     22 C         -17.8344    0.6724   19.1987 C.ar    1  UNL1        0.0013
     23 C         -16.9201    1.5413   18.3869 C.ar    1  UNL1        0.0016
     24 C         -15.4643    1.1982   18.2735 C.ar    1  UNL1        0.0204
     25 C         -14.5499    2.0671   17.4618 C.ar    1  UNL1        0.0989
     26 N         -13.0942    1.7240   17.3484 N.ar    1  UNL1       -0.2423
     27 C         -12.5526    0.5119   18.0467 C.ar    1  UNL1        0.0989
     28 C         -13.4670   -0.3570   18.8585 C.ar    1  UNL1        0.0219
     29 C         -14.9228   -0.0138   18.9719 C.ar    1  UNL1        0.0166
@<TRIPOS>BOND
     1     7     8    1
     2     8     9    1
     3     8    10    1
     4    10    11    1
     5    11     1    1
     6     1     2   am
     7     2     3    2
     8     2     4   am
     9     4    20    1
    10    20    21   ar
    11    21    22   ar
    12    22    23   ar
    13    23    24   ar
    14    24    25   ar
    15    25    26   ar
    16    26    27   ar
    17    27    28   ar
    18    28    29   ar
    19    11    12    1
    20    12    13   ar
    21    13    14   ar
    22    14    15    1
    23    14    16   ar
    24    16    17   ar
    25    17    18   ar
    26    18    19    1
    27    19     8    1
    28    29    20   ar
    29    18    12   ar
    30    29    24   ar
    31     1     5    1
    32     4     6    1
@<TRIPOS>MOLECULE
*****
 29 32 0 0 0
SMALL
GASTEIGER

@<TRIPOS>ATOM
      1 N         -14.5286   -4.5068   20.3817 N.am    1  UNL1       -0.2863
      2 C         -15.0440   -3.3067   19.6441 C.2     1  UNL1        0.3047
      3 O         -15.2184   -3.3594   18.1551 O.2     1  UNL1       -0.2525
      4 N         -15.3850   -2.0540   20.3953 N.am    1  UNL1       -0.2683
      5 H         -14.4142   -4.4722   21.3589 H       1  UNL1        0.1512
      6 H         -15.2706   -2.0194   21.3725 H       1  UNL1        0.1564
      7 C         -15.0625   -9.3939   17.9871 C.3     1  UNL1        0.0437
      8 C         -14.8997   -8.0531   18.6394 C.3     1  UNL1        0.1352
      9 C         -16.3504   -8.3068   18.9241 C.3     1  UNL1        0.0437
     10 C         -15.2407   -6.8004   19.3906 C.3     1  UNL1        0.0642
     11 C         -14.1876   -5.7595   19.6305 C.3     1  UNL1        0.1020
     12 C         -12.7934   -5.9714   19.1192 C.ar    1  UNL1        0.0319
     13 C         -11.7403   -4.9306   19.3591 C.ar    1  UNL1        0.0300
     14 C         -10.3462   -5.1425   18.8478 C.ar    1  UNL1        0.1401
     15 F          -9.2930   -4.1017   19.0877 F       1  UNL1       -0.2042
     16 C         -10.0052   -6.3953   18.0965 C.ar    1  UNL1        0.0327
     17 C         -11.0583   -7.4361   17.8566 C.ar    1  UNL1        0.0389
     18 C         -12.4524   -7.2242   18.3679 C.ar    1  UNL1        0.1358
     19 O         -13.5056   -8.2650   18.1280 O.3     1  UNL1       -0.4828
     20 C         -15.9004   -0.8539   19.6576 C.ar    1  UNL1        0.0516
     21 C         -14.9391    0.0999   19.0125 C.ar    1  UNL1        0.0147
     22 C         -15.4546    1.2999   18.2749 C.ar    1  UNL1        0.0013
     23 C         -16.9313    1.5462   18.1823 C.ar    1  UNL1        0.0016
     24 C         -17.8926    0.5924   18.8273 C.ar    1  UNL1        0.0204
     25 C         -19.3694    0.8387   18.7347 C.ar    1  UNL1        0.0989
     26 N         -20.3307   -0.1151   19.3798 N.ar    1  UNL1       -0.2423
     27 C         -19.8153   -1.3152   20.1175 C.ar    1  UNL1        0.0989
     28 C         -18.3385   -1.5615   20.2101 C.ar    1  UNL1        0.0219
     29 C         -17.3772   -0.6076   19.5650 C.ar    1  UNL1        0.0166
@<TRIPOS>BOND
     1     7     8    1
     2     8     9    1
     3     8    10    1
     4    10    11    1
     5    11     1    1
     6     1     2   am
     7     2     3    2
     8     2     4   am
     9     4    20    1
    10    20    21   ar
    11    21    22   ar
    12    22    23   ar
    13    23    24   ar
    14    24    25   ar
    15    25    26   ar
    16    26    27   ar
    17    27    28   ar
    18    28    29   ar
    19    11    12    1
    20    12    13   ar
    21    13    14   ar
    22    14    15    1
    23    14    16   ar
    24    16    17   ar
    25    17    18   ar
    26    18    19    1
    27    19     8    1
    28    29    20   ar
    29    18    12   ar
    30    29    24   ar
    31     1     5    1
    32     4     6    1
@<TRIPOS>MOLECULE
*****
 29 32 0 0 0
SMALL
GASTEIGER

@<TRIPOS>ATOM
      1 N          -8.2769  -18.8405   20.9632 N.am    1  UNL1       -0.2863
      2 C          -6.9397  -18.5599   21.5820 C.2     1  UNL1        0.3047
      3 O          -6.8576  -18.0386   22.9862 O.2     1  UNL1       -0.2525
      4 N          -5.6845  -18.8005   20.7968 N.am    1  UNL1       -0.2683
      5 H          -8.3308  -19.1826   20.0417 H       1  UNL1        0.1512
      6 H          -5.7384  -19.1426   19.8752 H       1  UNL1        0.1564
      7 C         -12.0566  -19.2279   24.8962 C.3     1  UNL1        0.0437
      8 C         -11.0294  -19.1100   23.8095 C.3     1  UNL1        0.1352
      9 C         -10.3731  -20.1425   24.6774 C.3     1  UNL1        0.0437
     10 C          -9.7742  -19.3507   23.0242 C.3     1  UNL1        0.0642
     11 C          -9.5321  -18.5998   21.7485 C.3     1  UNL1        0.1020
     12 C         -10.5452  -17.6082   21.2580 C.ar    1  UNL1        0.0319
     13 C         -10.3031  -16.8574   19.9822 C.ar    1  UNL1        0.0300
     14 C         -11.3161  -15.8659   19.4918 C.ar    1  UNL1        0.1401
     15 F         -11.0740  -15.1150   18.2159 F       1  UNL1       -0.2042
     16 C         -12.5713  -15.6252   20.2770 C.ar    1  UNL1        0.0327
     17 C         -12.8134  -16.3761   21.5528 C.ar    1  UNL1        0.0389
     18 C         -11.8004  -17.3676   22.0432 C.ar    1  UNL1        0.1358
     19 O         -12.0424  -18.1185   23.3190 O.3     1  UNL1       -0.4828
     20 C          -4.3472  -18.5199   21.4157 C.ar    1  UNL1        0.0516
     21 C          -4.2116  -18.4480   22.9077 C.ar    1  UNL1        0.0147
     22 C          -2.8743  -18.1673   23.5266 C.ar    1  UNL1        0.0013
     23 C          -1.6727  -17.9587   22.6533 C.ar    1  UNL1        0.0016
     24 C          -1.8084  -18.0306   21.1612 C.ar    1  UNL1        0.0204
     25 C          -0.6068  -17.8219   20.2879 C.ar    1  UNL1        0.0989
     26 N          -0.7424  -17.8939   18.7958 N.ar    1  UNL1       -0.2423
     27 C          -2.0797  -18.1745   18.1769 C.ar    1  UNL1        0.0989
     28 C          -3.2813  -18.3832   19.0502 C.ar    1  UNL1        0.0219
     29 C          -3.1456  -18.3112   20.5424 C.ar    1  UNL1        0.0166
@<TRIPOS>BOND
     1     7     8    1
     2     8     9    1
     3     8    10    1
     4    10    11    1
     5    11     1    1
     6     1     2   am
     7     2     3    2
     8     2     4   am
     9     4    20    1
    10    20    21   ar
    11    21    22   ar
    12    22    23   ar
    13    23    24   ar
    14    24    25   ar
    15    25    26   ar
    16    26    27   ar
    17    27    28   ar
    18    28    29   ar
    19    11    12    1
    20    12    13   ar
    21    13    14   ar
    22    14    15    1
    23    14    16   ar
    24    16    17   ar
    25    17    18   ar
    26    18    19    1
    27    19     8    1
    28    29    20   ar
    29    18    12   ar
    30    29    24   ar
    31     1     5    1
    32     4     6    1
@<TRIPOS>MOLECULE
*****
 29 32 0 0 0
SMALL
GASTEIGER

@<TRIPOS>ATOM
      1 N         -13.7527   -4.4553   20.2822 N.am    1  UNL1       -0.2863
      2 C         -14.4775   -3.3300   19.6052 C.2     1  UNL1        0.3047
      3 O         -14.7504   -3.3925   18.1316 O.2     1  UNL1       -0.2525
      4 N         -14.9295   -2.1422   20.4019 N.am    1  UNL1       -0.2683
      5 H         -13.5736   -4.4143   21.2493 H       1  UNL1        0.1512
      6 H         -14.7503   -2.1011   21.3691 H       1  UNL1        0.1564
      7 C         -10.5273   -7.8458   17.4528 C.3     1  UNL1        0.0437
      8 C         -11.4250   -6.9264   18.2266 C.3     1  UNL1        0.1352
      9 C         -10.1413   -6.1532   18.2924 C.3     1  UNL1        0.0437
     10 C         -11.8769   -5.7386   19.0233 C.3     1  UNL1        0.0642
     11 C         -13.3007   -5.6432   19.4854 C.3     1  UNL1        0.1020
     12 C         -14.2727   -6.7357   19.1509 C.ar    1  UNL1        0.0319
     13 C         -15.6965   -6.6403   19.6130 C.ar    1  UNL1        0.0300
     14 C         -16.6684   -7.7327   19.2785 C.ar    1  UNL1        0.1401
     15 F         -18.0923   -7.6374   19.7406 F       1  UNL1       -0.2042
     16 C         -16.2164   -8.9206   18.4818 C.ar    1  UNL1        0.0327
     17 C         -14.7926   -9.0160   18.0196 C.ar    1  UNL1        0.0389
     18 C         -13.8207   -7.9235   18.3542 C.ar    1  UNL1        0.1358
     19 O         -12.3968   -8.0189   17.8920 O.3     1  UNL1       -0.4828
     20 C         -15.6543   -1.0168   19.7250 C.ar    1  UNL1        0.0516
     21 C         -17.1337   -0.8563   19.9139 C.ar    1  UNL1        0.0147
     22 C         -17.8584    0.2690   19.2370 C.ar    1  UNL1        0.0013
     23 C         -17.1039    1.2338   18.3710 C.ar    1  UNL1        0.0016
     24 C         -15.6246    1.0733   18.1820 C.ar    1  UNL1        0.0204
     25 C         -14.8700    2.0380   17.3161 C.ar    1  UNL1        0.0989
     26 N         -13.3907    1.8775   17.1271 N.ar    1  UNL1       -0.2423
     27 C         -12.6658    0.7522   17.8041 C.ar    1  UNL1        0.0989
     28 C         -13.4204   -0.2126   18.6700 C.ar    1  UNL1        0.0219
     29 C         -14.8998   -0.0520   18.8590 C.ar    1  UNL1        0.0166
@<TRIPOS>BOND
     1     7     8    1
     2     8     9    1
     3     8    10    1
     4    10    11    1
     5    11     1    1
     6     1     2   am
     7     2     3    2
     8     2     4   am
     9     4    20    1
    10    20    21   ar
    11    21    22   ar
    12    22    23   ar
    13    23    24   ar
    14    24    25   ar
    15    25    26   ar
    16    26    27   ar
    17    27    28   ar
    18    28    29   ar
    19    11    12    1
    20    12    13   ar
    21    13    14   ar
    22    14    15    1
    23    14    16   ar
    24    16    17   ar
    25    17    18   ar
    26    18    19    1
    27    19     8    1
    28    29    20   ar
    29    18    12   ar
    30    29    24   ar
    31     1     5    1
    32     4     6    1
@<TRIPOS>MOLECULE
*****
 29 32 0 0 0
SMALL
GASTEIGER

@<TRIPOS>ATOM
      1 N          -5.9661  -17.8376   22.4863 N.am    1  UNL1       -0.2863
      2 C          -7.4306  -18.1496   22.5763 C.2     1  UNL1        0.3047
      3 O          -8.0069  -19.2808   21.7773 O.2     1  UNL1       -0.2525
      4 N          -8.3187  -17.3303   23.4651 N.am    1  UNL1       -0.2683
      5 H          -5.5879  -17.0952   23.0107 H       1  UNL1        0.1512
      6 H          -7.9404  -16.5879   23.9895 H       1  UNL1        0.1564
      7 C          -4.2138  -21.9063   19.2803 C.3     1  UNL1        0.0437
      8 C          -4.6796  -20.7824   20.1576 C.3     1  UNL1        0.1352
      9 C          -5.8957  -21.6599   20.1908 C.3     1  UNL1        0.0437
     10 C          -5.5677  -19.9632   21.0465 C.3     1  UNL1        0.0642
     11 C          -5.0780  -18.6569   21.5975 C.3     1  UNL1        0.1020
     12 C          -3.7001  -18.1697   21.2596 C.ar    1  UNL1        0.0319
     13 C          -3.2104  -16.8634   21.8106 C.ar    1  UNL1        0.0300
     14 C          -1.8325  -16.3762   21.4727 C.ar    1  UNL1        0.1401
     15 F          -1.3428  -15.0698   22.0237 F       1  UNL1       -0.2042
     16 C          -0.9444  -17.1955   20.5838 C.ar    1  UNL1        0.0327
     17 C          -1.4341  -18.5018   20.0328 C.ar    1  UNL1        0.0389
     18 C          -2.8120  -18.9889   20.3707 C.ar    1  UNL1        0.1358
     19 O          -3.3017  -20.2953   19.8197 O.3     1  UNL1       -0.4828
     20 C          -9.7832  -17.6423   23.5550 C.ar    1  UNL1        0.0516
     21 C         -10.3131  -18.4257   24.7193 C.ar    1  UNL1        0.0147
     22 C         -11.7775  -18.7376   24.8091 C.ar    1  UNL1        0.0013
     23 C         -12.7120  -18.2662   23.7347 C.ar    1  UNL1        0.0016
     24 C         -12.1822  -17.4828   22.5704 C.ar    1  UNL1        0.0204
     25 C         -13.1167  -17.0114   21.4960 C.ar    1  UNL1        0.0989
     26 N         -12.5869  -16.2280   20.3318 N.ar    1  UNL1       -0.2423
     27 C         -11.1224  -15.9160   20.2419 C.ar    1  UNL1        0.0989
     28 C         -10.1878  -16.3875   21.3163 C.ar    1  UNL1        0.0219
     29 C         -10.7177  -17.1709   22.4806 C.ar    1  UNL1        0.0166
@<TRIPOS>BOND
     1     7     8    1
     2     8     9    1
     3     8    10    1
     4    10    11    1
     5    11     1    1
     6     1     2   am
     7     2     3    2
     8     2     4   am
     9     4    20    1
    10    20    21   ar
    11    21    22   ar
    12    22    23   ar
    13    23    24   ar
    14    24    25   ar
    15    25    26   ar
    16    26    27   ar
    17    27    28   ar
    18    28    29   ar
    19    11    12    1
    20    12    13   ar
    21    13    14   ar
    22    14    15    1
    23    14    16   ar
    24    16    17   ar
    25    17    18   ar
    26    18    19    1
    27    19     8    1
    28    29    20   ar
    29    18    12   ar
    30    29    24   ar
    31     1     5    1
    32     4     6    1
@<TRIPOS>MOLECULE
*****
 29 32 0 0 0
SMALL
GASTEIGER

@<TRIPOS>ATOM
      1 N          -8.4806  -19.5778   20.5209 N.am    1  UNL1       -0.2863
      2 C          -7.1218  -18.9426   20.5155 C.2     1  UNL1        0.3047
      3 O          -6.9654  -17.5028   20.9062 O.2     1  UNL1       -0.2525
      4 N          -5.9194  -19.7471   20.1193 N.am    1  UNL1       -0.2683
      5 H          -8.5833  -20.5227   20.2645 H       1  UNL1        0.1512
      6 H          -6.0220  -20.6920   19.8628 H       1  UNL1        0.1564
      7 C         -12.5979  -15.9878   20.2693 C.3     1  UNL1        0.0437
      8 C         -11.4733  -16.9767   20.3541 C.3     1  UNL1        0.1352
      9 C         -11.2493  -16.4456   18.9693 C.3     1  UNL1        0.0437
     10 C         -10.2709  -17.7812   19.9579 C.3     1  UNL1        0.0642
     11 C          -9.6830  -18.7733   20.9171 C.3     1  UNL1        0.1020
     12 C         -10.2976  -18.9610   22.2725 C.ar    1  UNL1        0.0319
     13 C          -9.7098  -19.9531   23.2317 C.ar    1  UNL1        0.0300
     14 C         -10.3244  -20.1407   24.5871 C.ar    1  UNL1        0.1401
     15 F          -9.7365  -21.1329   25.5463 F       1  UNL1       -0.2042
     16 C         -11.5268  -19.3363   24.9832 C.ar    1  UNL1        0.0327
     17 C         -12.1146  -18.3441   24.0241 C.ar    1  UNL1        0.0389
     18 C         -11.5001  -18.1565   22.6687 C.ar    1  UNL1        0.1358
     19 O         -12.0879  -17.1643   21.7094 O.3     1  UNL1       -0.4828
     20 C          -4.5605  -19.1118   20.1139 C.ar    1  UNL1        0.0516
     21 C          -3.7820  -19.0170   18.8353 C.ar    1  UNL1        0.0147
     22 C          -2.4232  -18.3818   18.8299 C.ar    1  UNL1        0.0013
     23 C          -1.8429  -17.8412   20.1031 C.ar    1  UNL1        0.0016
     24 C          -2.6214  -17.9360   21.3817 C.ar    1  UNL1        0.0204
     25 C          -2.0412  -17.3954   22.6550 C.ar    1  UNL1        0.0989
     26 N          -2.8197  -17.4902   23.9336 N.ar    1  UNL1       -0.2423
     27 C          -4.1786  -18.1255   23.9390 C.ar    1  UNL1        0.0989
     28 C          -4.7588  -18.6660   22.6658 C.ar    1  UNL1        0.0219
     29 C          -3.9802  -18.5712   21.3871 C.ar    1  UNL1        0.0166
@<TRIPOS>BOND
     1     7     8    1
     2     8     9    1
     3     8    10    1
     4    10    11    1
     5    11     1    1
     6     1     2   am
     7     2     3    2
     8     2     4   am
     9     4    20    1
    10    20    21   ar
    11    21    22   ar
    12    22    23   ar
    13    23    24   ar
    14    24    25   ar
    15    25    26   ar
    16    26    27   ar
    17    27    28   ar
    18    28    29   ar
    19    11    12    1
    20    12    13   ar
    21    13    14   ar
    22    14    15    1
    23    14    16   ar
    24    16    17   ar
    25    17    18   ar
    26    18    19    1
    27    19     8    1
    28    29    20   ar
    29    18    12   ar
    30    29    24   ar
    31     1     5    1
    32     4     6    1
@<TRIPOS>MOLECULE
*****
 29 32 0 0 0
SMALL
GASTEIGER

@<TRIPOS>ATOM
      1 N          -0.4381    3.5609   20.6238 N.am    1  UNL1       -0.2863
      2 C           0.2337    2.2361   20.8327 C.2     1  UNL1        0.3047
      3 O          -0.5783    0.9748   20.8308 O.2     1  UNL1       -0.2525
      4 N           1.7174    2.1725   21.0436 N.am    1  UNL1       -0.2683
      5 H           0.0948    4.3887   20.6251 H       1  UNL1        0.1512
      6 H           2.2504    3.0003   21.0449 H       1  UNL1        0.1564
      7 C          -5.2823    3.8998   18.1093 C.3     1  UNL1        0.0437
      8 C          -3.9615    3.8060   18.8140 C.3     1  UNL1        0.1352
      9 C          -3.4923    3.8930   17.3919 C.3     1  UNL1        0.0437
     10 C          -2.4778    3.7424   19.0249 C.3     1  UNL1        0.0642
     11 C          -1.9218    3.6244   20.4130 C.3     1  UNL1        0.1020
     12 C          -2.8497    3.5700   21.5904 C.ar    1  UNL1        0.0319
     13 C          -2.2938    3.4520   22.9785 C.ar    1  UNL1        0.0300
     14 C          -3.2216    3.3975   24.1559 C.ar    1  UNL1        0.1401
     15 F          -2.6658    3.2795   25.5441 F       1  UNL1       -0.2042
     16 C          -4.7054    3.4611   23.9450 C.ar    1  UNL1        0.0327
     17 C          -5.2613    3.5791   22.5569 C.ar    1  UNL1        0.0389
     18 C          -4.3335    3.6335   21.3796 C.ar    1  UNL1        0.1358
     19 O          -4.8893    3.7516   19.9913 O.3     1  UNL1       -0.4828
     20 C           2.3892    0.8477   21.2525 C.ar    1  UNL1        0.0516
     21 C           2.5379    0.2924   22.6379 C.ar    1  UNL1        0.0147
     22 C           3.2096   -1.0324   22.8467 C.ar    1  UNL1        0.0013
     23 C           3.7327   -1.8019   21.6701 C.ar    1  UNL1        0.0016
     24 C           3.5840   -1.2465   20.2847 C.ar    1  UNL1        0.0204
     25 C           4.1071   -2.0160   19.1081 C.ar    1  UNL1        0.0989
     26 N           3.9584   -1.4607   17.7227 N.ar    1  UNL1       -0.2423
     27 C           3.2866   -0.1358   17.5138 C.ar    1  UNL1        0.0989
     28 C           2.7635    0.6337   18.6904 C.ar    1  UNL1        0.0219
     29 C           2.9123    0.0782   20.0759 C.ar    1  UNL1        0.0166
@<TRIPOS>BOND
     1     7     8    1
     2     8     9    1
     3     8    10    1
     4    10    11    1
     5    11     1    1
     6     1     2   am
     7     2     3    2
     8     2     4   am
     9     4    20    1
    10    20    21   ar
    11    21    22   ar
    12    22    23   ar
    13    23    24   ar
    14    24    25   ar
    15    25    26   ar
    16    26    27   ar
    17    27    28   ar
    18    28    29   ar
    19    11    12    1
    20    12    13   ar
    21    13    14   ar
    22    14    15    1
    23    14    16   ar
    24    16    17   ar
    25    17    18   ar
    26    18    19    1
    27    19     8    1
    28    29    20   ar
    29    18    12   ar
    30    29    24   ar
    31     1     5    1
    32     4     6    1
@<TRIPOS>MOLECULE
*****
 29 32 0 0 0
SMALL
GASTEIGER

@<TRIPOS>ATOM
      1 N           7.0251   -2.4649   24.7310 N.am    1  UNL1       -0.2863
      2 C           5.9064   -2.3877   23.7347 C.2     1  UNL1        0.3047
      3 O           4.8677   -3.4689   23.6881 O.2     1  UNL1       -0.2525
      4 N           5.8265   -1.2295   22.7850 N.am    1  UNL1       -0.2683
      5 H           7.7068   -1.7553   24.7616 H       1  UNL1        0.1512
      6 H           6.5082   -0.5199   22.8155 H       1  UNL1        0.1564
      7 C           6.6957   -5.3910   29.3390 C.3     1  UNL1        0.0437
      8 C           6.7917   -4.6021   28.0668 C.3     1  UNL1        0.1352
      9 C           6.2851   -3.5385   28.9953 C.3     1  UNL1        0.0437
     10 C           6.7117   -3.4438   27.1171 C.3     1  UNL1        0.0642
     11 C           7.1050   -3.6231   25.6808 C.3     1  UNL1        0.1020
     12 C           7.5783   -4.9608   25.1941 C.ar    1  UNL1        0.0319
     13 C           7.9716   -5.1401   23.7577 C.ar    1  UNL1        0.0300
     14 C           8.4449   -6.4777   23.2711 C.ar    1  UNL1        0.1401
     15 F           8.8382   -6.6571   21.8347 F       1  UNL1       -0.2042
     16 C           8.5249   -7.6360   24.2209 C.ar    1  UNL1        0.0327
     17 C           8.1316   -7.4567   25.6572 C.ar    1  UNL1        0.0389
     18 C           7.6583   -6.1191   26.1438 C.ar    1  UNL1        0.1358
     19 O           7.2650   -5.9397   27.5802 O.3     1  UNL1       -0.4828
     20 C           4.7078   -1.1524   21.7886 C.ar    1  UNL1        0.0516
     21 C           3.3391   -0.7253   22.2293 C.ar    1  UNL1        0.0147
     22 C           2.2204   -0.6483   21.2330 C.ar    1  UNL1        0.0013
     23 C           2.4705   -0.9983   19.7960 C.ar    1  UNL1        0.0016
     24 C           3.8392   -1.4253   19.3553 C.ar    1  UNL1        0.0204
     25 C           4.0893   -1.7753   17.9183 C.ar    1  UNL1        0.0989
     26 N           5.4580   -2.2023   17.4776 N.ar    1  UNL1       -0.2423
     27 C           6.5767   -2.2794   18.4740 C.ar    1  UNL1        0.0989
     28 C           6.3266   -1.9294   19.9110 C.ar    1  UNL1        0.0219
     29 C           4.9578   -1.5024   20.3516 C.ar    1  UNL1        0.0166
@<TRIPOS>BOND
     1     7     8    1
     2     8     9    1
     3     8    10    1
     4    10    11    1
     5    11     1    1
     6     1     2   am
     7     2     3    2
     8     2     4   am
     9     4    20    1
    10    20    21   ar
    11    21    22   ar
    12    22    23   ar
    13    23    24   ar
    14    24    25   ar
    15    25    26   ar
    16    26    27   ar
    17    27    28   ar
    18    28    29   ar
    19    11    12    1
    20    12    13   ar
    21    13    14   ar
    22    14    15    1
    23    14    16   ar
    24    16    17   ar
    25    17    18   ar
    26    18    19    1
    27    19     8    1
    28    29    20   ar
    29    18    12   ar
    30    29    24   ar
    31     1     5    1
    32     4     6    1
