@<TRIPOS>MOLECULE
*****
 34 39 0 0 0
SMALL
GASTEIGER

@<TRIPOS>ATOM
      1 C           1.2489    4.8050   32.2062 C.3     1  UNL1        0.0896
      2 N           0.9472    3.9457   31.0144 N.3     1  UNL1       -0.2715
      3 C           0.7825    2.4640   31.1804 C.3     1  UNL1        0.0729
      4 C           0.4809    1.6047   29.9885 C.3     1  UNL1        0.0301
      5 C           0.3438    2.2270   28.6306 C.3     1  UNL1        0.0917
      6 C           0.5084    3.7087   28.4645 C.3     1  UNL1        0.0301
      7 C           0.8101    4.5680   29.6564 C.3     1  UNL1        0.0729
      8 C           0.1536    0.7392   28.6419 C.2     1  UNL1        0.2291
      9 O           0.2317   -0.1506   29.8470 O.2     1  UNL1       -0.2745
     10 N          -0.1284    0.2973   27.2364 N.am    1  UNL1       -0.2839
     11 C          -0.1126    1.5120   26.3566 C.ar    1  UNL1        0.0467
     12 C          -0.3261    1.6862   24.8821 C.ar    1  UNL1        0.0144
     13 C          -0.2478    3.0531   24.2694 C.ar    1  UNL1        0.0012
     14 C           0.0440    4.2458   25.1309 C.ar    1  UNL1       -0.0002
     15 C           0.2576    4.0716   26.6054 C.ar    1  UNL1       -0.0026
     16 C           0.1793    2.7047   27.2183 C.ar    1  UNL1       -0.0010
     17 H          -0.2948   -0.6276   26.9430 H       1  UNL1        0.1549
     18 C          -0.4614    3.2274   22.7949 C.2     1  UNL1        0.0001
     19 C          -1.8276    3.5533   22.2682 C.2     1  UNL1        0.0027
     20 C          -2.9089    3.6829   23.2998 C.ar    1  UNL1       -0.0004
     21 C          -2.3771    3.4516   24.6831 C.ar    1  UNL1       -0.0002
     22 C          -3.2979    3.5352   25.8642 C.ar    1  UNL1       -0.0000
     23 C          -4.7505    3.8500   25.6620 C.ar    1  UNL1       -0.0002
     24 C          -5.2823    4.0813   24.2786 C.ar    1  UNL1       -0.0007
     25 C          -4.3614    3.9977   23.0975 C.ar    1  UNL1        0.0212
     26 C          -5.0914    4.2606   21.8138 C.3     1  UNL1        0.2320
     27 O          -4.5493    4.2737   20.4152 O.3     1  UNL1       -0.4706
     28 C          -3.1431    4.0270   19.9551 C.ar    1  UNL1        0.1412
     29 C          -3.0276    4.1356   18.4635 C.ar    1  UNL1        0.0665
     30 C          -1.7009    3.9235   17.7965 C.ar    1  UNL1        0.1432
     31 F          -1.5854    4.0320   16.3049 F       1  UNL1       -0.2041
     32 C          -0.4897    3.6029   18.6211 C.ar    1  UNL1        0.0298
     33 C          -0.6051    3.4943   20.1127 C.ar    1  UNL1        0.0053
     34 C          -1.9318    3.7064   20.7797 C.ar    1  UNL1        0.0341
@<TRIPOS>BOND
     1     1     2    1
     2     2     3    1
     3     3     4    1
     4     4     5    1
     5     5     6    1
     6     6     7    1
     7     5     8    1
     8     8     9    2
     9     8    10   am
    10    10    11    1
    11    11    12   ar
    12    12    13   ar
    13    13    18    1
    14    18    19    2
    15    19    20    1
    16    20    21   ar
    17    21    22   ar
    18    22    23   ar
    19    23    24   ar
    20    24    25   ar
    21    25    26    1
    22    26    27    1
    23    27    28    1
    24    28    29   ar
    25    29    30   ar
    26    30    31    1
    27    30    32   ar
    28    32    33   ar
    29    33    34   ar
    30    13    14   ar
    31    14    15   ar
    32    15    16   ar
    33     7     2    1
    34    16    11   ar
    35    16     5    1
    36    34    19    1
    37    25    20   ar
    38    34    28   ar
    39    10    17    1
@<TRIPOS>MOLECULE
*****
 34 39 0 0 0
SMALL
GASTEIGER

@<TRIPOS>ATOM
      1 C           8.0282    1.2566   17.3174 C.3     1  UNL1        0.0896
      2 N           7.2993    0.2943   18.2076 N.3     1  UNL1       -0.2715
      3 C           6.0886   -0.4296   17.6974 C.3     1  UNL1        0.0729
      4 C           5.3597   -1.3920   18.5875 C.3     1  UNL1        0.0301
      5 C           5.8413   -1.6305   19.9879 C.3     1  UNL1        0.0917
      6 C           7.0519   -0.9066   20.4982 C.3     1  UNL1        0.0301
      7 C           7.7809    0.0558   19.6080 C.3     1  UNL1        0.0729
      8 C           4.6224   -2.4229   19.6187 C.2     1  UNL1        0.2291
      9 O           3.9184   -2.3920   18.2945 O.2     1  UNL1       -0.2745
     10 N           4.2310   -3.2516   20.8062 N.am    1  UNL1       -0.2839
     11 C           5.2080   -2.9714   21.9093 C.ar    1  UNL1        0.0467
     12 C           5.3200   -3.4991   23.3090 C.ar    1  UNL1        0.0144
     13 C           6.4273   -3.0248   24.2028 C.ar    1  UNL1        0.0012
     14 C           7.4225   -2.0230   23.6972 C.ar    1  UNL1       -0.0002
     15 C           7.3105   -1.4953   22.2975 C.ar    1  UNL1       -0.0026
     16 C           6.2033   -1.9695   21.4036 C.ar    1  UNL1       -0.0010
     17 H           3.4670   -3.8708   20.8533 H       1  UNL1        0.1549
     18 C           6.5394   -3.5525   25.6025 C.2     1  UNL1        0.0001
     19 C           7.2957   -4.8204   25.8678 C.2     1  UNL1        0.0027
     20 C           7.9007   -5.4811   24.6647 C.ar    1  UNL1       -0.0004
     21 C           7.6115   -4.7088   23.4118 C.ar    1  UNL1       -0.0002
     22 C           8.1281   -5.1998   22.0920 C.ar    1  UNL1       -0.0000
     23 C           8.9339   -6.4632   22.0251 C.ar    1  UNL1       -0.0002
     24 C           9.2231   -7.2356   23.2780 C.ar    1  UNL1       -0.0007
     25 C           8.7065   -6.7446   24.5978 C.ar    1  UNL1        0.0212
     26 C           9.1062   -7.6593   25.7174 C.3     1  UNL1        0.2320
     27 O           8.7990   -7.5365   27.1805 O.3     1  UNL1       -0.4706
     28 C           8.0160   -6.4686   27.8853 C.ar    1  UNL1        0.1412
     29 C           7.9453   -6.7250   29.3615 C.ar    1  UNL1        0.0665
     30 C           7.2056   -5.7726   30.2535 C.ar    1  UNL1        0.1432
     31 F           7.1348   -6.0290   31.7298 F       1  UNL1       -0.2041
     32 C           6.5366   -4.5639   29.6694 C.ar    1  UNL1        0.0298
     33 C           6.6073   -4.3075   28.1932 C.ar    1  UNL1        0.0053
     34 C           7.3470   -5.2598   27.3011 C.ar    1  UNL1        0.0341
@<TRIPOS>BOND
     1     1     2    1
     2     2     3    1
     3     3     4    1
     4     4     5    1
     5     5     6    1
     6     6     7    1
     7     5     8    1
     8     8     9    2
     9     8    10   am
    10    10    11    1
    11    11    12   ar
    12    12    13   ar
    13    13    18    1
    14    18    19    2
    15    19    20    1
    16    20    21   ar
    17    21    22   ar
    18    22    23   ar
    19    23    24   ar
    20    24    25   ar
    21    25    26    1
    22    26    27    1
    23    27    28    1
    24    28    29   ar
    25    29    30   ar
    26    30    31    1
    27    30    32   ar
    28    32    33   ar
    29    33    34   ar
    30    13    14   ar
    31    14    15   ar
    32    15    16   ar
    33     7     2    1
    34    16    11   ar
    35    16     5    1
    36    34    19    1
    37    25    20   ar
    38    34    28   ar
    39    10    17    1
@<TRIPOS>MOLECULE
*****
 34 39 0 0 0
SMALL
GASTEIGER

@<TRIPOS>ATOM
      1 C           1.2734    0.6741   18.2491 C.3     1  UNL1        0.0896
      2 N           2.5311   -0.0692   18.5892 N.3     1  UNL1       -0.2715
      3 C           3.6922   -0.0527   17.6396 C.3     1  UNL1        0.0729
      4 C           4.9498   -0.7959   17.9797 C.3     1  UNL1        0.0301
      5 C           5.0466   -1.5558   19.2694 C.3     1  UNL1        0.0917
      6 C           3.8856   -1.5724   20.2190 C.3     1  UNL1        0.0301
      7 C           2.6278   -0.8290   19.8789 C.3     1  UNL1        0.0729
      8 C           6.2830   -1.6300   18.4233 C.2     1  UNL1        0.2291
      9 O           6.4787   -0.9740   17.0886 O.2     1  UNL1       -0.2745
     10 N           7.2893   -2.4754   19.1463 N.am    1  UNL1       -0.2839
     11 C           6.6748   -2.9237   20.4391 C.ar    1  UNL1        0.0467
     12 C           7.1984   -3.7760   21.5570 C.ar    1  UNL1        0.0144
     13 C           6.3357   -4.0599   22.7508 C.ar    1  UNL1        0.0012
     14 C           4.9497   -3.4915   22.8270 C.ar    1  UNL1       -0.0002
     15 C           4.4262   -2.6392   21.7091 C.ar    1  UNL1       -0.0026
     16 C           5.2887   -2.3553   20.5152 C.ar    1  UNL1       -0.0010
     17 H           8.1942   -2.6972   18.8281 H       1  UNL1        0.1549
     18 C           6.8592   -4.9122   23.8687 C.2     1  UNL1        0.0001
     19 C           7.5647   -4.2762   25.0297 C.2     1  UNL1        0.0027
     20 C           7.6931   -2.7828   24.9744 C.ar    1  UNL1       -0.0004
     21 C           7.0688   -2.2247   23.7299 C.ar    1  UNL1       -0.0002
     22 C           7.0884   -0.7460   23.4792 C.ar    1  UNL1       -0.0000
     23 C           7.7323    0.1747   24.4731 C.ar    1  UNL1       -0.0002
     24 C           8.3566   -0.3833   25.7175 C.ar    1  UNL1       -0.0007
     25 C           8.3371   -1.8620   25.9682 C.ar    1  UNL1        0.0212
     26 C           9.0115   -2.2075   27.2627 C.3     1  UNL1        0.2320
     27 O           9.2087   -3.5588   27.8833 O.3     1  UNL1       -0.4706
     28 C           8.7800   -4.8986   27.3624 C.ar    1  UNL1        0.1412
     29 C           9.1763   -6.0024   28.2975 C.ar    1  UNL1        0.0665
     30 C           8.8409   -7.4256   27.9626 C.ar    1  UNL1        0.1432
     31 F           9.2372   -8.5295   28.8977 F       1  UNL1       -0.2041
     32 C           8.1093   -7.7449   26.6927 C.ar    1  UNL1        0.0298
     33 C           7.7130   -6.6411   25.7576 C.ar    1  UNL1        0.0053
     34 C           8.0483   -5.2179   26.0924 C.ar    1  UNL1        0.0341
@<TRIPOS>BOND
     1     1     2    1
     2     2     3    1
     3     3     4    1
     4     4     5    1
     5     5     6    1
     6     6     7    1
     7     5     8    1
     8     8     9    2
     9     8    10   am
    10    10    11    1
    11    11    12   ar
    12    12    13   ar
    13    13    18    1
    14    18    19    2
    15    19    20    1
    16    20    21   ar
    17    21    22   ar
    18    22    23   ar
    19    23    24   ar
    20    24    25   ar
    21    25    26    1
    22    26    27    1
    23    27    28    1
    24    28    29   ar
    25    29    30   ar
    26    30    31    1
    27    30    32   ar
    28    32    33   ar
    29    33    34   ar
    30    13    14   ar
    31    14    15   ar
    32    15    16   ar
    33     7     2    1
    34    16    11   ar
    35    16     5    1
    36    34    19    1
    37    25    20   ar
    38    34    28   ar
    39    10    17    1
@<TRIPOS>MOLECULE
*****
 34 39 0 0 0
SMALL
GASTEIGER

@<TRIPOS>ATOM
      1 C           8.5481    2.6851   16.2221 C.3     1  UNL1        0.0896
      2 N           7.8220    1.5281   16.8418 N.3     1  UNL1       -0.2715
      3 C           6.4699    1.1295   16.3287 C.3     1  UNL1        0.0729
      4 C           5.7439   -0.0276   16.9483 C.3     1  UNL1        0.0301
      5 C           6.3698   -0.7861   18.0810 C.3     1  UNL1        0.0917
      6 C           7.7218   -0.3876   18.5941 C.3     1  UNL1        0.0301
      7 C           8.4479    0.7695   17.9744 C.3     1  UNL1        0.0729
      8 C           5.0191   -1.2981   17.6765 C.2     1  UNL1        0.2291
      9 O           4.1574   -0.7429   16.5814 O.2     1  UNL1       -0.2745
     10 N           4.6814   -2.4628   18.5595 N.am    1  UNL1       -0.2839
     11 C           5.8234   -2.6706   19.5095 C.ar    1  UNL1        0.0467
     12 C           6.0478   -3.6696   20.6058 C.ar    1  UNL1        0.0144
     13 C           7.3158   -3.6323   21.4063 C.ar    1  UNL1        0.0012
     14 C           8.3593   -2.5961   21.1106 C.ar    1  UNL1       -0.0002
     15 C           8.1348   -1.5971   20.0144 C.ar    1  UNL1       -0.0026
     16 C           6.8668   -1.6344   19.2139 C.ar    1  UNL1       -0.0010
     17 H           3.8553   -2.9970   18.5219 H       1  UNL1        0.1549
     18 C           7.5404   -4.6312   22.5025 C.2     1  UNL1        0.0001
     19 C           7.1471   -4.2996   23.9116 C.2     1  UNL1        0.0027
     20 C           6.5383   -2.9440   24.1154 C.ar    1  UNL1       -0.0004
     21 C           6.4492   -2.1836   22.8255 C.ar    1  UNL1       -0.0002
     22 C           5.8685   -0.8007   22.8087 C.ar    1  UNL1       -0.0000
     23 C           5.3769   -0.1782   24.0817 C.ar    1  UNL1       -0.0002
     24 C           5.4659   -0.9385   25.3716 C.ar    1  UNL1       -0.0007
     25 C           6.0466   -2.3214   25.3885 C.ar    1  UNL1        0.0212
     26 C           6.0424   -2.9008   26.7721 C.3     1  UNL1        0.2320
     27 O           6.5288   -4.2457   27.2244 O.3     1  UNL1       -0.4706
     28 C           7.1395   -5.3435   26.4047 C.ar    1  UNL1        0.1412
     29 C           7.4884   -6.5309   27.2522 C.ar    1  UNL1        0.0665
     30 C           8.1125   -7.7424   26.6254 C.ar    1  UNL1        0.1432
     31 F           8.4613   -8.9299   27.4729 F       1  UNL1       -0.2041
     32 C           8.3876   -7.7664   25.1511 C.ar    1  UNL1        0.0298
     33 C           8.0388   -6.5790   24.3036 C.ar    1  UNL1        0.0053
     34 C           7.4147   -5.3675   24.9304 C.ar    1  UNL1        0.0341
@<TRIPOS>BOND
     1     1     2    1
     2     2     3    1
     3     3     4    1
     4     4     5    1
     5     5     6    1
     6     6     7    1
     7     5     8    1
     8     8     9    2
     9     8    10   am
    10    10    11    1
    11    11    12   ar
    12    12    13   ar
    13    13    18    1
    14    18    19    2
    15    19    20    1
    16    20    21   ar
    17    21    22   ar
    18    22    23   ar
    19    23    24   ar
    20    24    25   ar
    21    25    26    1
    22    26    27    1
    23    27    28    1
    24    28    29   ar
    25    29    30   ar
    26    30    31    1
    27    30    32   ar
    28    32    33   ar
    29    33    34   ar
    30    13    14   ar
    31    14    15   ar
    32    15    16   ar
    33     7     2    1
    34    16    11   ar
    35    16     5    1
    36    34    19    1
    37    25    20   ar
    38    34    28   ar
    39    10    17    1
@<TRIPOS>MOLECULE
*****
 34 39 0 0 0
SMALL
GASTEIGER

@<TRIPOS>ATOM
      1 C           6.7205   -3.3014   25.3218 C.3     1  UNL1        0.0896
      2 N           5.8701   -3.0412   24.1138 N.3     1  UNL1       -0.2715
      3 C           5.9689   -3.9424   22.9188 C.3     1  UNL1        0.0729
      4 C           5.1186   -3.6822   21.7109 C.3     1  UNL1        0.0301
      5 C           4.1693   -2.5209   21.6979 C.3     1  UNL1        0.0917
      6 C           4.0704   -1.6196   22.8929 C.3     1  UNL1        0.0301
      7 C           4.9209   -1.8798   24.1009 C.3     1  UNL1        0.0729
      8 C           4.1590   -3.3313   20.4358 C.2     1  UNL1        0.2291
      9 O           4.9973   -4.5443   20.1600 O.2     1  UNL1       -0.2745
     10 N           3.1632   -2.7159   19.4978 N.am    1  UNL1       -0.2839
     11 C           2.5582   -1.5251   20.1802 C.ar    1  UNL1        0.0467
     12 C           1.5213   -0.5349   19.7392 C.ar    1  UNL1        0.0144
     13 C           1.1063    0.5758   20.6579 C.ar    1  UNL1        0.0012
     14 C           1.7280    0.6964   22.0176 C.ar    1  UNL1       -0.0002
     15 C           2.7649   -0.2938   22.4587 C.ar    1  UNL1       -0.0026
     16 C           3.1800   -1.4045   21.5400 C.ar    1  UNL1       -0.0010
     17 H           2.9451   -3.0371   18.5931 H       1  UNL1        0.1549
     18 C           0.0694    1.5660   20.2169 C.2     1  UNL1        0.0001
     19 C           0.4670    2.7463   19.3810 C.2     1  UNL1        0.0027
     20 C           1.9252    2.8422   19.0422 C.ar    1  UNL1       -0.0004
     21 C           2.7006    1.7008   19.6303 C.ar    1  UNL1       -0.0002
     22 C           4.1813    1.6074   19.4093 C.ar    1  UNL1       -0.0000
     23 C           4.8865    2.6553   18.6002 C.ar    1  UNL1       -0.0002
     24 C           4.1110    3.7967   18.0122 C.ar    1  UNL1       -0.0007
     25 C           2.6303    3.8902   18.2332 C.ar    1  UNL1        0.0212
     26 C           2.0515    5.1010   17.5631 C.3     1  UNL1        0.2320
     27 O           0.6247    5.5629   17.5365 O.3     1  UNL1       -0.4706
     28 C          -0.5758    4.9281   18.1735 C.ar    1  UNL1        0.1412
     29 C          -1.8221    5.7173   17.9017 C.ar    1  UNL1        0.0665
     30 C          -3.1386    5.2531   18.4509 C.ar    1  UNL1        0.1432
     31 F          -4.3848    6.0424   18.1791 F       1  UNL1       -0.2041
     32 C          -3.2087    3.9997   19.2717 C.ar    1  UNL1        0.0298
     33 C          -1.9625    3.2104   19.5435 C.ar    1  UNL1        0.0053
     34 C          -0.6460    3.6746   18.9944 C.ar    1  UNL1        0.0341
@<TRIPOS>BOND
     1     1     2    1
     2     2     3    1
     3     3     4    1
     4     4     5    1
     5     5     6    1
     6     6     7    1
     7     5     8    1
     8     8     9    2
     9     8    10   am
    10    10    11    1
    11    11    12   ar
    12    12    13   ar
    13    13    18    1
    14    18    19    2
    15    19    20    1
    16    20    21   ar
    17    21    22   ar
    18    22    23   ar
    19    23    24   ar
    20    24    25   ar
    21    25    26    1
    22    26    27    1
    23    27    28    1
    24    28    29   ar
    25    29    30   ar
    26    30    31    1
    27    30    32   ar
    28    32    33   ar
    29    33    34   ar
    30    13    14   ar
    31    14    15   ar
    32    15    16   ar
    33     7     2    1
    34    16    11   ar
    35    16     5    1
    36    34    19    1
    37    25    20   ar
    38    34    28   ar
    39    10    17    1
@<TRIPOS>MOLECULE
*****
 34 39 0 0 0
SMALL
GASTEIGER

@<TRIPOS>ATOM
      1 C           5.2892    3.7028   32.0848 C.3     1  UNL1        0.0896
      2 N           4.1772    2.9906   31.3733 N.3     1  UNL1       -0.2715
      3 C           3.9990    1.5118   31.5508 C.3     1  UNL1        0.0729
      4 C           2.8870    0.7997   30.8393 C.3     1  UNL1        0.0301
      5 C           1.9531    1.5662   29.9504 C.3     1  UNL1        0.0917
      6 C           2.1312    3.0451   29.7729 C.3     1  UNL1        0.0301
      7 C           3.2433    3.7572   30.4844 C.3     1  UNL1        0.0729
      8 C           1.6525    0.0989   30.0303 C.2     1  UNL1        0.2291
      9 O           2.4111   -0.9140   30.8357 O.2     1  UNL1       -0.2745
     10 N           0.4600   -0.1779   29.1634 N.am    1  UNL1       -0.2839
     11 C           0.0237    1.1185   28.5477 C.ar    1  UNL1        0.0467
     12 C          -1.0947    1.4566   27.6070 C.ar    1  UNL1        0.0144
     13 C          -1.2903    2.8727   27.1528 C.ar    1  UNL1        0.0012
     14 C          -0.3675    3.9507   27.6391 C.ar    1  UNL1       -0.0002
     15 C           0.7509    3.6125   28.5798 C.ar    1  UNL1       -0.0026
     16 C           0.9465    2.1964   29.0341 C.ar    1  UNL1       -0.0010
     17 H           0.0378   -1.0561   29.0231 H       1  UNL1        0.1549
     18 C          -2.4086    3.2110   26.2120 C.2     1  UNL1        0.0001
     19 C          -2.1791    3.1750   24.7301 C.2     1  UNL1        0.0027
     20 C          -0.7965    2.7889   24.2950 C.ar    1  UNL1       -0.0004
     21 C           0.0912    2.5118   25.4720 C.ar    1  UNL1       -0.0002
     22 C           1.5195    2.1082   25.2555 C.ar    1  UNL1       -0.0000
     23 C           2.0602    1.9816   23.8621 C.ar    1  UNL1       -0.0002
     24 C           1.1726    2.2587   22.6851 C.ar    1  UNL1       -0.0007
     25 C          -0.2558    2.6623   22.9016 C.ar    1  UNL1        0.0212
     26 C          -0.9641    2.8907   21.5992 C.3     1  UNL1        0.2320
     27 O          -2.3881    3.3020   21.3685 O.3     1  UNL1       -0.4706
     28 C          -3.4554    3.5865   22.3834 C.ar    1  UNL1        0.1412
     29 C          -4.7484    3.9689   21.7263 C.ar    1  UNL1        0.0665
     30 C          -5.9484    4.2949   22.5652 C.ar    1  UNL1        0.1432
     31 F          -7.2415    4.6773   21.9080 F       1  UNL1       -0.2041
     32 C          -5.8554    4.2384   24.0612 C.ar    1  UNL1        0.0298
     33 C          -4.5624    3.8560   24.7183 C.ar    1  UNL1        0.0053
     34 C          -3.3624    3.5300   23.8795 C.ar    1  UNL1        0.0341
@<TRIPOS>BOND
     1     1     2    1
     2     2     3    1
     3     3     4    1
     4     4     5    1
     5     5     6    1
     6     6     7    1
     7     5     8    1
     8     8     9    2
     9     8    10   am
    10    10    11    1
    11    11    12   ar
    12    12    13   ar
    13    13    18    1
    14    18    19    2
    15    19    20    1
    16    20    21   ar
    17    21    22   ar
    18    22    23   ar
    19    23    24   ar
    20    24    25   ar
    21    25    26    1
    22    26    27    1
    23    27    28    1
    24    28    29   ar
    25    29    30   ar
    26    30    31    1
    27    30    32   ar
    28    32    33   ar
    29    33    34   ar
    30    13    14   ar
    31    14    15   ar
    32    15    16   ar
    33     7     2    1
    34    16    11   ar
    35    16     5    1
    36    34    19    1
    37    25    20   ar
    38    34    28   ar
    39    10    17    1
@<TRIPOS>MOLECULE
*****
 34 39 0 0 0
SMALL
GASTEIGER

@<TRIPOS>ATOM
      1 C          -5.1628    5.1176   26.4397 C.3     1  UNL1        0.0896
      2 N          -3.7314    4.9610   26.0195 N.3     1  UNL1       -0.2715
      3 C          -2.9166    6.1701   25.6672 C.3     1  UNL1        0.0729
      4 C          -1.4852    6.0135   25.2470 C.3     1  UNL1        0.0301
      5 C          -0.8686    4.6478   25.1791 C.3     1  UNL1        0.0917
      6 C          -1.6834    3.4386   25.5314 C.3     1  UNL1        0.0301
      7 C          -3.1148    3.5953   25.9516 C.3     1  UNL1        0.0729
      8 C           0.0653    5.7584   24.7993 C.2     1  UNL1        0.2291
      9 O          -0.2682    7.2207   24.7729 O.2     1  UNL1       -0.2745
     10 N           1.3913    5.1501   24.4504 N.am    1  UNL1       -0.2839
     11 C           1.2769    3.6636   24.6145 C.ar    1  UNL1        0.0467
     12 C           2.2641    2.5525   24.4121 C.ar    1  UNL1        0.0144
     13 C           1.8545    1.1310   24.6601 C.ar    1  UNL1        0.0012
     14 C           0.4579    0.8205   25.1105 C.ar    1  UNL1       -0.0002
     15 C          -0.5294    1.9315   25.3129 C.ar    1  UNL1       -0.0026
     16 C          -0.1198    3.3531   25.0649 C.ar    1  UNL1       -0.0010
     17 H           2.1955    5.6405   24.1639 H       1  UNL1        0.1549
     18 C           2.8417    0.0198   24.4577 C.2     1  UNL1        0.0001
     19 C           2.9649   -0.6388   23.1157 C.2     1  UNL1        0.0027
     20 C           2.0555   -0.1112   22.0459 C.ar    1  UNL1       -0.0004
     21 C           1.1883    0.9985   22.5620 C.ar    1  UNL1       -0.0002
     22 C           0.2034    1.6670   21.6493 C.ar    1  UNL1       -0.0000
     23 C           0.0858    1.2258   20.2204 C.ar    1  UNL1       -0.0002
     24 C           0.9530    0.1161   19.7043 C.ar    1  UNL1       -0.0007
     25 C           1.9379   -0.5524   20.6171 C.ar    1  UNL1        0.0212
     26 C           2.7006   -1.6302   19.9053 C.3     1  UNL1        0.2320
     27 O           3.7693   -2.5330   20.4464 O.3     1  UNL1       -0.4706
     28 C           4.3392   -2.5809   21.8331 C.ar    1  UNL1        0.1412
     29 C           5.3968   -3.6377   21.9547 C.ar    1  UNL1        0.0665
     30 C           6.0964   -3.8515   23.2642 C.ar    1  UNL1        0.1432
     31 F           7.1540   -4.9083   23.3858 F       1  UNL1       -0.2041
     32 C           5.7385   -3.0085   24.4521 C.ar    1  UNL1        0.0298
     33 C           4.6809   -1.9518   24.3306 C.ar    1  UNL1        0.0053
     34 C           3.9813   -1.7379   23.0211 C.ar    1  UNL1        0.0341
@<TRIPOS>BOND
     1     1     2    1
     2     2     3    1
     3     3     4    1
     4     4     5    1
     5     5     6    1
     6     6     7    1
     7     5     8    1
     8     8     9    2
     9     8    10   am
    10    10    11    1
    11    11    12   ar
    12    12    13   ar
    13    13    18    1
    14    18    19    2
    15    19    20    1
    16    20    21   ar
    17    21    22   ar
    18    22    23   ar
    19    23    24   ar
    20    24    25   ar
    21    25    26    1
    22    26    27    1
    23    27    28    1
    24    28    29   ar
    25    29    30   ar
    26    30    31    1
    27    30    32   ar
    28    32    33   ar
    29    33    34   ar
    30    13    14   ar
    31    14    15   ar
    32    15    16   ar
    33     7     2    1
    34    16    11   ar
    35    16     5    1
    36    34    19    1
    37    25    20   ar
    38    34    28   ar
    39    10    17    1
@<TRIPOS>MOLECULE
*****
 34 39 0 0 0
SMALL
GASTEIGER

@<TRIPOS>ATOM
      1 C          -0.4086    7.1177   25.6353 C.3     1  UNL1        0.0896
      2 N          -0.5780    6.0977   24.5487 N.3     1  UNL1       -0.2715
      3 C          -1.7211    6.2121   23.5841 C.3     1  UNL1        0.0729
      4 C          -1.8905    5.1921   22.4975 C.3     1  UNL1        0.0301
      5 C          -0.9167    4.0577   22.3753 C.3     1  UNL1        0.0917
      6 C           0.2264    3.9432   23.3398 C.3     1  UNL1        0.0301
      7 C           0.3957    4.9633   24.4265 C.3     1  UNL1        0.0729
      8 C          -2.0050    4.0414   21.3432 C.2     1  UNL1        0.2291
      9 O          -3.1151    5.0423   21.2165 O.2     1  UNL1       -0.2745
     10 N          -1.7884    2.8484   20.4599 N.am    1  UNL1       -0.2839
     11 C          -0.5663    2.1275   20.9462 C.ar    1  UNL1        0.0467
     12 C           0.1256    0.8870   20.4640 C.ar    1  UNL1        0.0144
     13 C           1.3562    0.3939   21.1657 C.ar    1  UNL1        0.0012
     14 C           1.8950    1.1411   22.3494 C.ar    1  UNL1       -0.0002
     15 C           1.2031    2.3816   22.8316 C.ar    1  UNL1       -0.0026
     16 C          -0.0275    2.8748   22.1300 C.ar    1  UNL1       -0.0010
     17 H          -2.3499    2.5850   19.6953 H       1  UNL1        0.1549
     18 C           2.0482   -0.8467   20.6836 C.2     1  UNL1        0.0001
     19 C           3.1567   -0.7446   19.6782 C.2     1  UNL1        0.0027
     20 C           3.4944    0.6435   19.2206 C.ar    1  UNL1       -0.0004
     21 C           2.6239    1.6672   19.8870 C.ar    1  UNL1       -0.0002
     22 C           2.7988    3.1224   19.5679 C.ar    1  UNL1       -0.0000
     23 C           3.8442    3.5538   18.5824 C.ar    1  UNL1       -0.0002
     24 C           4.7146    2.5300   17.9160 C.ar    1  UNL1       -0.0007
     25 C           4.5398    1.0749   18.2351 C.ar    1  UNL1        0.0212
     26 C           5.5056    0.2248   17.4639 C.3     1  UNL1        0.2320
     27 O           5.6646   -1.2666   17.4877 O.3     1  UNL1       -0.4706
     28 C           4.8970   -2.2762   18.2886 C.ar    1  UNL1        0.1412
     29 C           5.3756   -3.6712   18.0150 C.ar    1  UNL1        0.0665
     30 C           4.7381   -4.8340   18.7163 C.ar    1  UNL1        0.1432
     31 F           5.2168   -6.2290   18.4426 F       1  UNL1       -0.2041
     32 C           3.6221   -4.6017   19.6911 C.ar    1  UNL1        0.0298
     33 C           3.1434   -3.2067   19.9647 C.ar    1  UNL1        0.0053
     34 C           3.7809   -2.0440   19.2635 C.ar    1  UNL1        0.0341
@<TRIPOS>BOND
     1     1     2    1
     2     2     3    1
     3     3     4    1
     4     4     5    1
     5     5     6    1
     6     6     7    1
     7     5     8    1
     8     8     9    2
     9     8    10   am
    10    10    11    1
    11    11    12   ar
    12    12    13   ar
    13    13    18    1
    14    18    19    2
    15    19    20    1
    16    20    21   ar
    17    21    22   ar
    18    22    23   ar
    19    23    24   ar
    20    24    25   ar
    21    25    26    1
    22    26    27    1
    23    27    28    1
    24    28    29   ar
    25    29    30   ar
    26    30    31    1
    27    30    32   ar
    28    32    33   ar
    29    33    34   ar
    30    13    14   ar
    31    14    15   ar
    32    15    16   ar
    33     7     2    1
    34    16    11   ar
    35    16     5    1
    36    34    19    1
    37    25    20   ar
    38    34    28   ar
    39    10    17    1
@<TRIPOS>MOLECULE
*****
 34 39 0 0 0
SMALL
GASTEIGER

@<TRIPOS>ATOM
      1 C         -15.9336    4.9124   16.1577 C.3     1  UNL1        0.0896
      2 N         -16.1200    3.7659   17.1067 N.3     1  UNL1       -0.2715
      3 C         -16.3318    4.0287   18.5682 C.3     1  UNL1        0.0729
      4 C         -16.5183    2.8822   19.5172 C.3     1  UNL1        0.0301
      5 C         -16.4930    1.4727   19.0046 C.3     1  UNL1        0.0917
      6 C         -16.2812    1.2097   17.5431 C.3     1  UNL1        0.0301
      7 C         -16.0947    2.3564   16.5942 C.3     1  UNL1        0.0729
      8 C         -16.7134    1.5799   20.4845 C.2     1  UNL1        0.2291
      9 O         -16.7859    2.8525   21.2752 O.2     1  UNL1       -0.2745
     10 N         -16.8484    0.1910   21.0348 N.am    1  UNL1       -0.2839
     11 C         -16.7115   -0.7745   19.8951 C.ar    1  UNL1        0.0467
     12 C         -16.7585   -2.2727   19.8378 C.ar    1  UNL1        0.0144
     13 C         -16.5858   -2.9787   18.5256 C.ar    1  UNL1        0.0012
     14 C         -16.3662   -2.1867   17.2709 C.ar    1  UNL1       -0.0002
     15 C         -16.3192   -0.6885   17.3282 C.ar    1  UNL1       -0.0026
     16 C         -16.4919    0.0176   18.6404 C.ar    1  UNL1       -0.0010
     17 H         -17.0002   -0.0453   21.9784 H       1  UNL1        0.1549
     18 C         -16.6328   -4.4769   18.4682 C.2     1  UNL1        0.0001
     19 C         -15.3641   -5.2714   18.5644 C.2     1  UNL1        0.0027
     20 C         -14.1048   -4.4707   18.7160 C.ar    1  UNL1       -0.0004
     21 C         -14.3910   -2.9984   18.7399 C.ar    1  UNL1       -0.0002
     22 C         -13.2652   -2.0179   18.8848 C.ar    1  UNL1       -0.0000
     23 C         -11.8532   -2.5095   19.0058 C.ar    1  UNL1       -0.0002
     24 C         -11.5670   -3.9817   18.9819 C.ar    1  UNL1       -0.0007
     25 C         -12.6928   -4.9623   18.8370 C.ar    1  UNL1        0.0212
     26 C         -12.1915   -6.3761   18.8363 C.3     1  UNL1        0.2320
     27 O         -12.9782   -7.6474   18.7143 O.3     1  UNL1       -0.4706
     28 C         -14.4607   -7.8188   18.5631 C.ar    1  UNL1        0.1412
     29 C         -14.8386   -9.2678   18.4749 C.ar    1  UNL1        0.0665
     30 C         -16.2783   -9.6593   18.3201 C.ar    1  UNL1        0.1432
     31 F         -16.6562  -11.1082   18.2320 F       1  UNL1       -0.2041
     32 C         -17.3401   -8.6019   18.2534 C.ar    1  UNL1        0.0298
     33 C         -16.9622   -7.1530   18.3415 C.ar    1  UNL1        0.0053
     34 C         -15.5226   -6.7614   18.4963 C.ar    1  UNL1        0.0341
@<TRIPOS>BOND
     1     1     2    1
     2     2     3    1
     3     3     4    1
     4     4     5    1
     5     5     6    1
     6     6     7    1
     7     5     8    1
     8     8     9    2
     9     8    10   am
    10    10    11    1
    11    11    12   ar
    12    12    13   ar
    13    13    18    1
    14    18    19    2
    15    19    20    1
    16    20    21   ar
    17    21    22   ar
    18    22    23   ar
    19    23    24   ar
    20    24    25   ar
    21    25    26    1
    22    26    27    1
    23    27    28    1
    24    28    29   ar
    25    29    30   ar
    26    30    31    1
    27    30    32   ar
    28    32    33   ar
    29    33    34   ar
    30    13    14   ar
    31    14    15   ar
    32    15    16   ar
    33     7     2    1
    34    16    11   ar
    35    16     5    1
    36    34    19    1
    37    25    20   ar
    38    34    28   ar
    39    10    17    1
