@<TRIPOS>MOLECULE
*****
 28 31 0 0 0
SMALL
GASTEIGER

@<TRIPOS>ATOM
      1 C          -4.5725  -17.8223   22.9497 C.ar    1  UNL1        0.0527
      2 C          -5.3323  -18.8562   22.1729 C.ar    1  UNL1        0.1414
      3 F          -4.6113  -20.0335   21.5863 F       1  UNL1       -0.2043
      4 C          -6.8133  -18.7130   21.9826 C.ar    1  UNL1        0.0486
      5 C          -7.5345  -17.5358   22.5691 C.ar    1  UNL1        0.0869
      6 C          -6.7745  -16.5017   23.3460 C.ar    1  UNL1        0.0486
      7 C          -5.2936  -16.6450   23.5362 C.ar    1  UNL1        0.1414
      8 F          -4.5338  -15.6110   24.3130 F       1  UNL1       -0.2043
      9 N          -9.0154  -17.3925   22.3789 N.ar    1  UNL1       -0.2338
     10 N          -9.6937  -16.6523   21.2644 N.ar    1  UNL1       -0.1617
     11 C         -11.1756  -16.7667   21.4665 C.ar    1  UNL1        0.1720
     12 C         -11.4132  -17.5775   22.7059 C.ar    1  UNL1        0.0443
     13 C         -10.0782  -17.9643   23.2698 C.ar    1  UNL1        0.0628
     14 C         -10.0026  -18.7872   24.5216 C.3     1  UNL1        0.0777
     15 C         -11.2622  -19.2233   25.2095 C.3     1  UNL1        0.1489
     16 O         -12.5973  -18.8365   24.6457 O.3     1  UNL1       -0.3485
     17 C         -12.6728  -18.0136   23.3938 C.3     1  UNL1        0.1713
     18 C         -12.2341  -16.1742   20.5842 C.3     1  UNL1        0.4363
     19 F         -13.2926  -15.5816   19.7019 F       1  UNL1       -0.1644
     20 F         -12.8660  -15.5237   21.7790 F       1  UNL1       -0.1644
     21 F         -11.6022  -16.8246   19.3894 F       1  UNL1       -0.1644
     22 C          -3.0915  -17.9655   23.1399 C.3     1  UNL1        0.1246
     23 O          -1.7025  -20.3119   21.3469 O.2     1  UNL1       -0.2749
     24 C          -1.5243  -18.8348   21.1565 C.2     1  UNL1        0.2259
     25 C          -0.6765  -18.1769   20.1087 C.3     1  UNL1        0.0870
     26 C          -0.7908  -16.6916   20.2851 C.3     1  UNL1        0.0311
     27 C          -1.7094  -16.4316   21.4421 C.3     1  UNL1        0.0942
     28 N          -2.1628  -17.7562   21.9807 N.am    1  UNL1       -0.2753
@<TRIPOS>BOND
     1    23    24    2
     2    24    25    1
     3    25    26    1
     4    26    27    1
     5    27    28    1
     6    28    22    1
     7    22     1    1
     8     1     2   ar
     9     2     3    1
    10     2     4   ar
    11     4     5   ar
    12     5     9    1
    13     9    10   ar
    14    10    11   ar
    15    11    18    1
    16    18    19    1
    17    18    20    1
    18    18    21    1
    19    11    12   ar
    20    12    13   ar
    21    13    14    1
    22    14    15    1
    23    15    16    1
    24    16    17    1
    25     5     6   ar
    26     6     7   ar
    27     7     8    1
    28    28    24   am
    29     7     1   ar
    30    13     9   ar
    31    17    12    1
@<TRIPOS>MOLECULE
*****
 28 31 0 0 0
SMALL
GASTEIGER

@<TRIPOS>ATOM
      1 C          -4.9413  -17.7508   22.9882 C.ar    1  UNL1        0.0527
      2 C          -5.7187  -18.8667   22.3554 C.ar    1  UNL1        0.1414
      3 F          -4.9970  -20.0310   21.7441 F       1  UNL1       -0.2043
      4 C          -7.2178  -18.8183   22.3338 C.ar    1  UNL1        0.0486
      5 C          -7.9395  -17.6541   22.9450 C.ar    1  UNL1        0.0869
      6 C          -7.1621  -16.5382   23.5778 C.ar    1  UNL1        0.0486
      7 C          -5.6630  -16.5866   23.5994 C.ar    1  UNL1        0.1414
      8 F          -4.8857  -15.4706   24.2322 F       1  UNL1       -0.2043
      9 N          -9.4386  -17.6057   22.9234 N.ar    1  UNL1       -0.2338
     10 N         -10.3532  -18.1373   23.9868 N.ar    1  UNL1       -0.1617
     11 C         -11.7661  -17.8774   23.5552 C.ar    1  UNL1        0.1720
     12 C         -11.7246  -17.1851   22.2251 C.ar    1  UNL1        0.0443
     13 C         -10.2861  -17.0173   21.8346 C.ar    1  UNL1        0.0628
     14 C          -9.9338  -16.3503   20.5381 C.3     1  UNL1        0.0777
     15 C         -11.0200  -15.8511   19.6321 C.3     1  UNL1        0.1489
     16 O         -12.4585  -16.0190   20.0226 O.3     1  UNL1       -0.3485
     17 C         -12.8108  -16.6860   21.3191 C.3     1  UNL1        0.1713
     18 C         -13.0033  -18.2451   24.3195 C.3     1  UNL1        0.4363
     19 F         -14.2404  -18.6129   25.0839 F       1  UNL1       -0.1644
     20 F         -12.2552  -19.3552   24.9963 F       1  UNL1       -0.1644
     21 F         -13.7513  -17.1350   23.6428 F       1  UNL1       -0.1644
     22 C          -3.4422  -17.7992   23.0097 C.3     1  UNL1        0.1246
     23 O          -2.0303  -20.3990   21.6324 O.2     1  UNL1       -0.2749
     24 C          -2.0245  -19.0011   21.0886 C.2     1  UNL1        0.2259
     25 C          -1.3687  -18.5528   19.8163 C.3     1  UNL1        0.0870
     26 C          -1.6124  -17.0806   19.6629 C.3     1  UNL1        0.0311
     27 C          -2.4188  -16.6191   20.8405 C.3     1  UNL1        0.0942
     28 N          -2.6736  -17.8060   21.7217 N.am    1  UNL1       -0.2753
@<TRIPOS>BOND
     1    23    24    2
     2    24    25    1
     3    25    26    1
     4    26    27    1
     5    27    28    1
     6    28    22    1
     7    22     1    1
     8     1     2   ar
     9     2     3    1
    10     2     4   ar
    11     4     5   ar
    12     5     9    1
    13     9    10   ar
    14    10    11   ar
    15    11    18    1
    16    18    19    1
    17    18    20    1
    18    18    21    1
    19    11    12   ar
    20    12    13   ar
    21    13    14    1
    22    14    15    1
    23    15    16    1
    24    16    17    1
    25     5     6   ar
    26     6     7   ar
    27     7     8    1
    28    28    24   am
    29     7     1   ar
    30    13     9   ar
    31    17    12    1
@<TRIPOS>MOLECULE
*****
 28 31 0 0 0
SMALL
GASTEIGER

@<TRIPOS>ATOM
      1 C          -0.2822    2.8549   19.8107 C.ar    1  UNL1        0.0527
      2 C           0.2644    2.5427   18.4492 C.ar    1  UNL1        0.1414
      3 F          -0.1379    3.3778   17.2699 F       1  UNL1       -0.2043
      4 C           1.2133    1.3953   18.2670 C.ar    1  UNL1        0.0486
      5 C           1.6157    0.5603   19.4462 C.ar    1  UNL1        0.0869
      6 C           1.0691    0.8725   20.8078 C.ar    1  UNL1        0.0486
      7 C           0.1202    2.0199   20.9900 C.ar    1  UNL1        0.1414
      8 F          -0.4264    2.3320   22.3515 F       1  UNL1       -0.2043
      9 N           2.5646   -0.5871   19.2640 N.ar    1  UNL1       -0.2338
     10 N           2.3707   -1.9821   19.7802 N.ar    1  UNL1       -0.1617
     11 C           3.5603   -2.7979   19.3688 C.ar    1  UNL1        0.1720
     12 C           4.4894   -1.9072   18.5984 C.ar    1  UNL1        0.0443
     13 C           3.8740   -0.5408   18.5336 C.ar    1  UNL1        0.0628
     14 C           4.5854    0.5690   17.8180 C.3     1  UNL1        0.0777
     15 C           5.9122    0.3124   17.1671 C.3     1  UNL1        0.1489
     16 O           6.5276   -1.0541   17.2318 O.3     1  UNL1       -0.3485
     17 C           5.8162   -2.1638   17.9475 C.3     1  UNL1        0.1713
     18 C           3.7820   -4.2497   19.6742 C.3     1  UNL1        0.4363
     19 F           4.0037   -5.7015   19.9796 F       1  UNL1       -0.1644
     20 F           4.8639   -3.8802   20.6452 F       1  UNL1       -0.1644
     21 F           2.7001   -4.6192   18.7032 F       1  UNL1       -0.1644
     22 C          -1.2311    4.0023   19.9929 C.3     1  UNL1        0.1246
     23 O          -3.8122    2.9586   21.6952 O.2     1  UNL1       -0.2749
     24 C          -3.8253    3.4193   20.2678 C.2     1  UNL1        0.2259
     25 C          -5.0269    3.4812   19.3723 C.3     1  UNL1        0.0870
     26 C          -4.5832    3.9992   18.0362 C.3     1  UNL1        0.0311
     27 C          -3.1073    4.2575   18.1061 C.3     1  UNL1        0.0942
     28 N          -2.6387    3.8991   19.4853 N.am    1  UNL1       -0.2753
@<TRIPOS>BOND
     1    23    24    2
     2    24    25    1
     3    25    26    1
     4    26    27    1
     5    27    28    1
     6    28    22    1
     7    22     1    1
     8     1     2   ar
     9     2     3    1
    10     2     4   ar
    11     4     5   ar
    12     5     9    1
    13     9    10   ar
    14    10    11   ar
    15    11    18    1
    16    18    19    1
    17    18    20    1
    18    18    21    1
    19    11    12   ar
    20    12    13   ar
    21    13    14    1
    22    14    15    1
    23    15    16    1
    24    16    17    1
    25     5     6   ar
    26     6     7   ar
    27     7     8    1
    28    28    24   am
    29     7     1   ar
    30    13     9   ar
    31    17    12    1
@<TRIPOS>MOLECULE
*****
 28 31 0 0 0
SMALL
GASTEIGER

@<TRIPOS>ATOM
      1 C          -0.2510    2.8371   19.8156 C.ar    1  UNL1        0.0527
      2 C           0.1440    1.9951   20.9925 C.ar    1  UNL1        0.1414
      3 F          -0.4045    2.3044   22.3538 F       1  UNL1       -0.2043
      4 C           1.0876    0.8437   20.8079 C.ar    1  UNL1        0.0486
      5 C           1.6361    0.5343   19.4466 C.ar    1  UNL1        0.0869
      6 C           1.2411    1.3764   18.2697 C.ar    1  UNL1        0.0486
      7 C           0.2976    2.5278   18.4543 C.ar    1  UNL1        0.1414
      8 F          -0.0974    3.3697   17.2774 F       1  UNL1       -0.2043
      9 N           2.5797   -0.6171   19.2621 N.ar    1  UNL1       -0.2338
     10 N           2.3813   -2.0111   19.7790 N.ar    1  UNL1       -0.1617
     11 C           3.5663   -2.8321   19.3646 C.ar    1  UNL1        0.1720
     12 C           4.4971   -1.9454   18.5915 C.ar    1  UNL1        0.0443
     13 C           3.8873   -0.5764   18.5282 C.ar    1  UNL1        0.0628
     14 C           4.6015    0.5302   17.8105 C.3     1  UNL1        0.0777
     15 C           5.9254    0.2679   17.1561 C.3     1  UNL1        0.1489
     16 O           6.5352   -1.1011   17.2194 O.3     1  UNL1       -0.3485
     17 C           5.8210   -2.2078   17.9371 C.3     1  UNL1        0.1713
     18 C           3.7826   -4.2847   19.6696 C.3     1  UNL1        0.4363
     19 F           3.9990   -5.7374   19.9747 F       1  UNL1       -0.1644
     20 F           4.9083   -3.9233   20.5927 F       1  UNL1       -0.1644
     21 F           2.6570   -4.6462   18.7465 F       1  UNL1       -0.1644
     22 C          -1.1945    3.9885   20.0002 C.3     1  UNL1        0.1246
     23 O          -3.7789    2.9354   21.6919 O.2     1  UNL1       -0.2749
     24 C          -3.7903    3.4093   20.2688 C.2     1  UNL1        0.2259
     25 C          -4.9914    3.4824   19.3735 C.3     1  UNL1        0.0870
     26 C          -4.5460    4.0117   18.0424 C.3     1  UNL1        0.0311
     27 C          -3.0695    4.2657   18.1152 C.3     1  UNL1        0.0942
     28 N          -2.6023    3.8934   19.4912 N.am    1  UNL1       -0.2753
@<TRIPOS>BOND
     1    23    24    2
     2    24    25    1
     3    25    26    1
     4    26    27    1
     5    27    28    1
     6    28    22    1
     7    22     1    1
     8     1     2   ar
     9     2     3    1
    10     2     4   ar
    11     4     5   ar
    12     5     9    1
    13     9    10   ar
    14    10    11   ar
    15    11    18    1
    16    18    19    1
    17    18    20    1
    18    18    21    1
    19    11    12   ar
    20    12    13   ar
    21    13    14    1
    22    14    15    1
    23    15    16    1
    24    16    17    1
    25     5     6   ar
    26     6     7   ar
    27     7     8    1
    28    28    24   am
    29     7     1   ar
    30    13     9   ar
    31    17    12    1
@<TRIPOS>MOLECULE
*****
 28 31 0 0 0
SMALL
GASTEIGER

@<TRIPOS>ATOM
      1 C          -0.3554    2.8238   20.0704 C.ar    1  UNL1        0.0527
      2 C           0.3474    2.3002   18.8531 C.ar    1  UNL1        0.1414
      3 F           0.1600    2.9790   17.5287 F       1  UNL1       -0.2043
      4 C           1.2377    1.0976   18.9602 C.ar    1  UNL1        0.0486
      5 C           1.4251    0.4188   20.2845 C.ar    1  UNL1        0.0869
      6 C           0.7223    0.9424   21.5019 C.ar    1  UNL1        0.0486
      7 C          -0.1679    2.1449   21.3948 C.ar    1  UNL1        0.1414
      8 F          -0.8707    2.6685   22.6121 F       1  UNL1       -0.2043
      9 N           2.3154   -0.7838   20.3915 N.ar    1  UNL1       -0.2338
     10 N           2.6428   -1.7399   19.2831 N.ar    1  UNL1       -0.1617
     11 C           3.5642   -2.7883   19.8324 C.ar    1  UNL1        0.1720
     12 C           3.8063   -2.4802   21.2803 C.ar    1  UNL1        0.0443
     13 C           3.0344   -1.2413   21.6259 C.ar    1  UNL1        0.0628
     14 C           3.0861   -0.6899   23.0199 C.3     1  UNL1        0.0777
     15 C           3.9096   -1.3773   24.0683 C.3     1  UNL1        0.1489
     16 O           4.6815   -2.6162   23.7227 O.3     1  UNL1       -0.3485
     17 C           4.6298   -3.1676   22.3287 C.3     1  UNL1        0.1713
     18 C           4.1422   -3.9423   19.0680 C.3     1  UNL1        0.4363
     19 F           4.7202   -5.0962   18.3036 F       1  UNL1       -0.1644
     20 F           5.4970   -3.3009   19.1240 F       1  UNL1       -0.1644
     21 F           2.7875   -4.5836   19.0119 F       1  UNL1       -0.1644
     22 C          -1.2456    4.0263   19.9634 C.3     1  UNL1        0.1246
     23 O          -3.8966    2.9536   21.5353 O.2     1  UNL1       -0.2749
     24 C          -3.8400    3.3983   20.1039 C.2     1  UNL1        0.2259
     25 C          -4.9920    3.4280   19.1437 C.3     1  UNL1        0.0870
     26 C          -4.4854    3.9395   17.8276 C.3     1  UNL1        0.0311
     27 C          -3.0204    4.2258   17.9745 C.3     1  UNL1        0.0942
     28 N          -2.6214    3.8914   19.3813 N.am    1  UNL1       -0.2753
@<TRIPOS>BOND
     1    23    24    2
     2    24    25    1
     3    25    26    1
     4    26    27    1
     5    27    28    1
     6    28    22    1
     7    22     1    1
     8     1     2   ar
     9     2     3    1
    10     2     4   ar
    11     4     5   ar
    12     5     9    1
    13     9    10   ar
    14    10    11   ar
    15    11    18    1
    16    18    19    1
    17    18    20    1
    18    18    21    1
    19    11    12   ar
    20    12    13   ar
    21    13    14    1
    22    14    15    1
    23    15    16    1
    24    16    17    1
    25     5     6   ar
    26     6     7   ar
    27     7     8    1
    28    28    24   am
    29     7     1   ar
    30    13     9   ar
    31    17    12    1
@<TRIPOS>MOLECULE
*****
 28 31 0 0 0
SMALL
GASTEIGER

@<TRIPOS>ATOM
      1 C           2.4858    0.6523   25.3655 C.ar    1  UNL1        0.0527
      2 C           1.7385    1.0005   24.1124 C.ar    1  UNL1        0.1414
      3 F           0.6576    2.0399   24.1481 F       1  UNL1       -0.2043
      4 C           2.0721    0.3093   22.8236 C.ar    1  UNL1        0.0486
      5 C           3.1530   -0.7301   22.7879 C.ar    1  UNL1        0.0869
      6 C           3.9004   -1.0783   24.0410 C.ar    1  UNL1        0.0486
      7 C           3.5668   -0.3871   25.3298 C.ar    1  UNL1        0.1414
      8 F           4.3141   -0.7353   26.5829 F       1  UNL1       -0.2043
      9 N           3.4866   -1.4213   21.4991 N.ar    1  UNL1       -0.2338
     10 N           3.7999   -2.8791   21.3359 N.ar    1  UNL1       -0.1617
     11 C           4.0724   -3.1347   19.8832 C.ar    1  UNL1        0.1720
     12 C           3.9275   -1.8350   19.1486 C.ar    1  UNL1        0.0443
     13 C           3.5654   -0.7760   20.1473 C.ar    1  UNL1        0.0628
     14 C           3.3544    0.6391   19.6967 C.3     1  UNL1        0.0777
     15 C           3.5053    0.9951   18.2475 C.3     1  UNL1        0.1489
     16 O           3.8674   -0.0639   17.2488 O.3     1  UNL1       -0.3485
     17 C           4.0785   -1.4789   17.6993 C.3     1  UNL1        0.1713
     18 C           4.4275   -4.4579   19.2723 C.3     1  UNL1        0.4363
     19 F           4.7826   -5.7811   18.6614 F       1  UNL1       -0.1644
     20 F           5.8433   -4.2937   19.7395 F       1  UNL1       -0.1644
     21 F           3.0117   -4.6221   18.8050 F       1  UNL1       -0.1644
     22 C           2.1522    1.3435   26.6543 C.3     1  UNL1        0.1246
     23 O           2.2039   -0.9407   28.9844 O.2     1  UNL1       -0.2749
     24 C           1.0013   -0.1628   28.5389 C.2     1  UNL1        0.2259
     25 C          -0.3887   -0.2983   29.0861 C.3     1  UNL1        0.0870
     26 C          -1.2716    0.6680   28.3533 C.3     1  UNL1        0.0311
     27 C          -0.4273    1.4006   27.3531 C.3     1  UNL1        0.0942
     28 N           0.9775    0.8872   27.4678 N.am    1  UNL1       -0.2753
@<TRIPOS>BOND
     1    23    24    2
     2    24    25    1
     3    25    26    1
     4    26    27    1
     5    27    28    1
     6    28    22    1
     7    22     1    1
     8     1     2   ar
     9     2     3    1
    10     2     4   ar
    11     4     5   ar
    12     5     9    1
    13     9    10   ar
    14    10    11   ar
    15    11    18    1
    16    18    19    1
    17    18    20    1
    18    18    21    1
    19    11    12   ar
    20    12    13   ar
    21    13    14    1
    22    14    15    1
    23    15    16    1
    24    16    17    1
    25     5     6   ar
    26     6     7   ar
    27     7     8    1
    28    28    24   am
    29     7     1   ar
    30    13     9   ar
    31    17    12    1
@<TRIPOS>MOLECULE
*****
 28 31 0 0 0
SMALL
GASTEIGER

@<TRIPOS>ATOM
      1 C           2.4250    0.7334   25.2557 C.ar    1  UNL1        0.0527
      2 C           3.5978   -0.2010   25.2205 C.ar    1  UNL1        0.1414
      3 F           4.4151   -0.4258   26.4581 F       1  UNL1       -0.2043
      4 C           3.9535   -0.9107   23.9477 C.ar    1  UNL1        0.0486
      5 C           3.1363   -0.6860   22.7102 C.ar    1  UNL1        0.0869
      6 C           1.9633    0.2485   22.7454 C.ar    1  UNL1        0.0486
      7 C           1.6077    0.9581   24.0182 C.ar    1  UNL1        0.1414
      8 F           0.4349    1.8925   24.0533 F       1  UNL1       -0.2043
      9 N           3.4919   -1.3956   21.4374 N.ar    1  UNL1       -0.2338
     10 N           3.7768   -2.8614   21.2952 N.ar    1  UNL1       -0.1617
     11 C           4.0860   -3.1357   19.8533 C.ar    1  UNL1        0.1720
     12 C           3.9922   -1.8394   19.1043 C.ar    1  UNL1        0.0443
     13 C           3.6250   -0.7640   20.0834 C.ar    1  UNL1        0.0628
     14 C           3.4593    0.6515   19.6155 C.3     1  UNL1        0.0777
     15 C           3.6608    0.9915   18.1686 C.3     1  UNL1        0.1489
     16 O           4.0280   -0.0840   17.1895 O.3     1  UNL1       -0.3485
     17 C           4.1937   -1.4994   17.6574 C.3     1  UNL1        0.1713
     18 C           4.4288   -4.4717   19.2638 C.3     1  UNL1        0.4363
     19 F           4.7716   -5.8078   18.6742 F       1  UNL1       -0.1644
     20 F           2.9941   -4.6672   18.8724 F       1  UNL1       -0.1644
     21 F           5.8635   -4.2763   19.6551 F       1  UNL1       -0.1644
     22 C           2.0694    1.4430   26.5285 C.3     1  UNL1        0.1246
     23 O           2.2392   -0.9658   28.7236 O.2     1  UNL1       -0.2749
     24 C           1.0162   -0.1661   28.3851 C.2     1  UNL1        0.2259
     25 C          -0.3434   -0.3332   28.9960 C.3     1  UNL1        0.0870
     26 C          -1.2619    0.6708   28.3647 C.3     1  UNL1        0.0311
     27 C          -0.4699    1.4583   27.3635 C.3     1  UNL1        0.0942
     28 N           0.9381    0.9412   27.3760 N.am    1  UNL1       -0.2753
@<TRIPOS>BOND
     1    23    24    2
     2    24    25    1
     3    25    26    1
     4    26    27    1
     5    27    28    1
     6    28    22    1
     7    22     1    1
     8     1     2   ar
     9     2     3    1
    10     2     4   ar
    11     4     5   ar
    12     5     9    1
    13     9    10   ar
    14    10    11   ar
    15    11    18    1
    16    18    19    1
    17    18    20    1
    18    18    21    1
    19    11    12   ar
    20    12    13   ar
    21    13    14    1
    22    14    15    1
    23    15    16    1
    24    16    17    1
    25     5     6   ar
    26     6     7   ar
    27     7     8    1
    28    28    24   am
    29     7     1   ar
    30    13     9   ar
    31    17    12    1
@<TRIPOS>MOLECULE
*****
 28 31 0 0 0
SMALL
GASTEIGER

@<TRIPOS>ATOM
      1 C           3.3997    0.1996   19.5108 C.ar    1  UNL1        0.0527
      2 C           3.0274    0.8878   20.7905 C.ar    1  UNL1        0.1414
      3 F           3.9243    0.7806   21.9881 F       1  UNL1       -0.2043
      4 C           1.7583    1.6832   20.8727 C.ar    1  UNL1        0.0486
      5 C           0.8615    1.7904   19.6752 C.ar    1  UNL1        0.0869
      6 C           1.2338    1.1021   18.3954 C.ar    1  UNL1        0.0486
      7 C           2.5029    0.3067   18.3132 C.ar    1  UNL1        0.1414
      8 F           2.8751   -0.3814   17.0335 F       1  UNL1       -0.2043
      9 N          -0.4077    2.5857   19.7574 N.ar    1  UNL1       -0.2338
     10 N          -1.5051    2.3936   20.7617 N.ar    1  UNL1       -0.1617
     11 C          -2.5778    3.4020   20.4746 C.ar    1  UNL1        0.1720
     12 C          -2.1433    4.2174   19.2929 C.ar    1  UNL1        0.0443
     13 C          -0.8020    3.7129   18.8497 C.ar    1  UNL1        0.0628
     14 C          -0.1131    4.3451   17.6768 C.3     1  UNL1        0.0777
     15 C          -0.7655    5.4818   16.9472 C.3     1  UNL1        0.1489
     16 O          -2.1067    5.9863   17.3905 O.3     1  UNL1       -0.3485
     17 C          -2.7957    5.3541   18.5633 C.3     1  UNL1        0.1713
     18 C          -3.8600    3.5662   21.2356 C.3     1  UNL1        0.4363
     19 F          -5.1422    3.7304   21.9965 F       1  UNL1       -0.1644
     20 F          -4.6153    2.9485   20.0963 F       1  UNL1       -0.1644
     21 F          -3.1047    4.1838   22.3748 F       1  UNL1       -0.1644
     22 C           4.6688   -0.5958   19.4286 C.3     1  UNL1        0.1246
     23 O           6.5823   -2.3995   17.4962 O.2     1  UNL1       -0.2749
     24 C           5.4904   -2.9158   18.3856 C.2     1  UNL1        0.2259
     25 C           5.0863   -4.3517   18.5429 C.3     1  UNL1        0.0870
     26 C           3.9569   -4.4101   19.5285 C.3     1  UNL1        0.0311
     27 C           3.6631   -3.0103   19.9802 C.3     1  UNL1        0.0942
     28 N           4.6108   -2.0866   19.2739 N.am    1  UNL1       -0.2753
@<TRIPOS>BOND
     1    23    24    2
     2    24    25    1
     3    25    26    1
     4    26    27    1
     5    27    28    1
     6    28    22    1
     7    22     1    1
     8     1     2   ar
     9     2     3    1
    10     2     4   ar
    11     4     5   ar
    12     5     9    1
    13     9    10   ar
    14    10    11   ar
    15    11    18    1
    16    18    19    1
    17    18    20    1
    18    18    21    1
    19    11    12   ar
    20    12    13   ar
    21    13    14    1
    22    14    15    1
    23    15    16    1
    24    16    17    1
    25     5     6   ar
    26     6     7   ar
    27     7     8    1
    28    28    24   am
    29     7     1   ar
    30    13     9   ar
    31    17    12    1
