@<TRIPOS>MOLECULE
*****
 29 32 0 0 0
SMALL
GASTEIGER

@<TRIPOS>ATOM
      1 C          -7.6750  -18.9931   20.5256 C.ar    1  UNL1        0.0351
      2 C          -7.9525  -19.9595   19.4126 C.ar    1  UNL1        0.0030
      3 C          -9.3544  -20.1446   18.9122 C.ar    1  UNL1        0.0003
      4 C         -10.4787  -19.3631   19.5247 C.ar    1  UNL1        0.0063
      5 C         -10.2012  -18.3967   20.6378 C.ar    1  UNL1        0.0740
      6 C         -11.3255  -17.6152   21.2503 C.ar    1  UNL1        0.2643
      7 O         -12.7273  -17.8003   20.7499 O.2     1  UNL1       -0.2668
      8 N         -11.0479  -16.6488   22.3633 N.ar    1  UNL1       -0.2669
      9 C         -12.1723  -15.8673   22.9759 C.3     1  UNL1        0.1363
     10 C          -9.6460  -16.4637   22.8638 C.ar    1  UNL1        0.2000
     11 N          -8.5217  -17.2451   22.2513 N.ar    1  UNL1       -0.2150
     12 C          -8.7993  -18.2116   21.1382 C.ar    1  UNL1        0.0901
     13 C          -1.4375  -18.5276   19.9606 C.3     1  UNL1        0.0237
     14 C          -2.3634  -18.4564   21.1386 C.3     1  UNL1        0.0985
     15 N          -1.9585  -18.2384   22.5664 N.am    1  UNL1       -0.3004
     16 C          -3.2016  -18.2379   23.4058 C.2     1  UNL1        0.2438
     17 O          -3.2611  -18.0523   24.8931 O.2     1  UNL1       -0.2704
     18 C          -4.3748  -18.4557   22.4969 C.2     1  UNL1        0.0563
     19 C          -5.8681  -18.5900   22.4539 C.2     1  UNL1        0.0209
     20 C          -6.2730  -18.8080   21.0261 C.2     1  UNL1        0.0777
     21 N          -5.0299  -18.8084   20.1867 N.2     1  UNL1       -0.2660
     22 C          -3.8567  -18.5907   21.0956 C.3     1  UNL1        0.1476
     23 H          -1.0384  -18.1169   22.8948 H       1  UNL1        0.1498
     24 N          -9.3685  -15.4972   23.9769 N.pl3   1  UNL1       -0.3074
     25 H          -9.9994  -14.7642   24.1611 H       1  UNL1        0.1495
     26 C          -8.1297  -15.6474   24.8092 C.3     1  UNL1        0.0570
     27 C          -7.4222  -14.6545   23.9354 C.3     1  UNL1        0.0196
     28 C          -8.8371  -16.6404   25.6830 C.3     1  UNL1        0.0196
     29 C          -6.8908  -15.7976   25.6415 C.3     1  UNL1        0.0196
@<TRIPOS>BOND
     1    14    13    1
     2    14    15    1
     3    15    16   am
     4    16    17    2
     5    16    18    1
     6    18    19    2
     7    19    20    1
     8    20     1    1
     9     1     2   ar
    10     2     3   ar
    11     3     4   ar
    12     4     5   ar
    13     5     6   ar
    14     6     7    2
    15     6     8   ar
    16     8     9    1
    17     8    10   ar
    18    10    24    1
    19    24    26    1
    20    26    27    1
    21    26    28    1
    22    26    29    1
    23    10    11   ar
    24    11    12   ar
    25    20    21    2
    26    21    22    1
    27    22    14    1
    28    22    18    1
    29    12     1   ar
    30    12     5   ar
    31    15    23    1
    32    24    25    1
@<TRIPOS>MOLECULE
*****
 29 32 0 0 0
SMALL
GASTEIGER

@<TRIPOS>ATOM
      1 C          -7.2050  -19.6178   21.0428 C.ar    1  UNL1        0.0351
      2 C          -7.1304  -20.8685   20.2183 C.ar    1  UNL1        0.0030
      3 C          -5.7987  -21.4885   19.9148 C.ar    1  UNL1        0.0003
      4 C          -4.5415  -20.8576   20.4358 C.ar    1  UNL1        0.0063
      5 C          -4.6160  -19.6068   21.2604 C.ar    1  UNL1        0.0740
      6 C          -3.3589  -18.9759   21.7814 C.ar    1  UNL1        0.2643
      7 O          -2.0271  -19.5959   21.4779 O.2     1  UNL1       -0.2668
      8 N          -3.4334  -17.7251   22.6060 N.ar    1  UNL1       -0.2669
      9 C          -2.1762  -17.0943   23.1270 C.3     1  UNL1        0.1363
     10 C          -4.7652  -17.1051   22.9095 C.ar    1  UNL1        0.2000
     11 N          -6.0224  -17.7360   22.3884 N.ar    1  UNL1       -0.2150
     12 C          -5.9478  -18.9869   21.5638 C.ar    1  UNL1        0.0901
     13 C         -12.1947  -15.9834   19.8872 C.3     1  UNL1        0.0237
     14 C         -11.8207  -16.8661   21.0408 C.3     1  UNL1        0.0985
     15 N         -12.6354  -17.0896   22.2803 N.am    1  UNL1       -0.3004
     16 C         -11.8845  -18.0420   23.1631 C.2     1  UNL1        0.2438
     17 O         -12.3335  -18.5415   24.5043 O.2     1  UNL1       -0.2704
     18 C         -10.6057  -18.4071   22.4692 C.2     1  UNL1        0.0563
     19 C          -9.3514  -19.2213   22.5858 C.2     1  UNL1        0.0209
     20 C          -8.5367  -18.9978   21.3463 C.2     1  UNL1        0.0777
     21 N          -9.2876  -18.0454   20.4636 N.2     1  UNL1       -0.2660
     22 C         -10.5664  -17.6803   21.1575 C.3     1  UNL1        0.1476
     23 H         -13.5094  -16.6827   22.4795 H       1  UNL1        0.1498
     24 N          -4.8397  -15.8544   23.7340 N.pl3   1  UNL1       -0.3074
     25 H          -4.1890  -15.1299   23.5894 H       1  UNL1        0.1495
     26 C          -5.9058  -15.7073   24.7790 C.3     1  UNL1        0.0570
     27 C          -6.8477  -15.1702   23.7424 C.3     1  UNL1        0.0196
     28 C          -4.9639  -16.2444   25.8155 C.3     1  UNL1        0.0196
     29 C          -6.9719  -15.5602   25.8239 C.3     1  UNL1        0.0196
@<TRIPOS>BOND
     1    14    13    1
     2    14    15    1
     3    15    16   am
     4    16    17    2
     5    16    18    1
     6    18    19    2
     7    19    20    1
     8    20     1    1
     9     1     2   ar
    10     2     3   ar
    11     3     4   ar
    12     4     5   ar
    13     5     6   ar
    14     6     7    2
    15     6     8   ar
    16     8     9    1
    17     8    10   ar
    18    10    24    1
    19    24    26    1
    20    26    27    1
    21    26    28    1
    22    26    29    1
    23    10    11   ar
    24    11    12   ar
    25    20    21    2
    26    21    22    1
    27    22    14    1
    28    22    18    1
    29    12     1   ar
    30    12     5   ar
    31    15    23    1
    32    24    25    1
@<TRIPOS>MOLECULE
*****
 29 32 0 0 0
SMALL
GASTEIGER

@<TRIPOS>ATOM
      1 C          -5.1048  -16.5470   23.9407 C.ar    1  UNL1        0.0351
      2 C          -4.5306  -15.9736   25.2022 C.ar    1  UNL1        0.0030
      3 C          -5.4327  -15.3241   26.2094 C.ar    1  UNL1        0.0003
      4 C          -6.9090  -15.2481   25.9550 C.ar    1  UNL1        0.0063
      5 C          -7.4833  -15.8215   24.6935 C.ar    1  UNL1        0.0740
      6 C          -8.9596  -15.7455   24.4392 C.ar    1  UNL1        0.2643
      7 O          -9.8617  -15.0960   25.4463 O.2     1  UNL1       -0.2668
      8 N          -9.5338  -16.3189   23.1777 N.ar    1  UNL1       -0.2669
      9 C         -11.0101  -16.2428   22.9233 C.3     1  UNL1        0.1363
     10 C          -8.6317  -16.9684   22.1705 C.ar    1  UNL1        0.2000
     11 N          -7.1554  -17.0444   22.4248 N.ar    1  UNL1       -0.2150
     12 C          -6.5812  -16.4710   23.6864 C.ar    1  UNL1        0.0901
     13 C          -0.1379  -16.8697   20.1110 C.3     1  UNL1        0.0237
     14 C          -1.2487  -17.8278   20.4241 C.3     1  UNL1        0.0985
     15 N          -1.4263  -19.1953   19.8337 N.am    1  UNL1       -0.3004
     16 C          -2.6644  -19.7992   20.4273 C.2     1  UNL1        0.2438
     17 O          -3.2178  -21.1587   20.1180 O.2     1  UNL1       -0.2704
     18 C          -3.2520  -18.8051   21.3846 C.2     1  UNL1        0.0563
     19 C          -4.3803  -18.5639   22.3431 C.2     1  UNL1        0.0209
     20 C          -4.2027  -17.1965   22.9335 C.2     1  UNL1        0.0777
     21 N          -2.9646  -16.5925   22.3399 N.2     1  UNL1       -0.2660
     22 C          -2.3770  -17.5867   21.3826 C.3     1  UNL1        0.1476
     23 H          -0.8343  -19.6215   19.1726 H       1  UNL1        0.1498
     24 N          -9.2059  -17.5418   20.9090 N.pl3   1  UNL1       -0.3074
     25 H          -9.0079  -17.1199   20.0418 H       1  UNL1        0.1495
     26 C         -10.0818  -18.7580   20.9687 C.3     1  UNL1        0.0570
     27 C          -9.1528  -19.3779   21.9700 C.3     1  UNL1        0.0196
     28 C         -11.0109  -18.1381   19.9674 C.3     1  UNL1        0.0196
     29 C         -10.9578  -19.9742   21.0285 C.3     1  UNL1        0.0196
@<TRIPOS>BOND
     1    14    13    1
     2    14    15    1
     3    15    16   am
     4    16    17    2
     5    16    18    1
     6    18    19    2
     7    19    20    1
     8    20     1    1
     9     1     2   ar
    10     2     3   ar
    11     3     4   ar
    12     4     5   ar
    13     5     6   ar
    14     6     7    2
    15     6     8   ar
    16     8     9    1
    17     8    10   ar
    18    10    24    1
    19    24    26    1
    20    26    27    1
    21    26    28    1
    22    26    29    1
    23    10    11   ar
    24    11    12   ar
    25    20    21    2
    26    21    22    1
    27    22    14    1
    28    22    18    1
    29    12     1   ar
    30    12     5   ar
    31    15    23    1
    32    24    25    1
@<TRIPOS>MOLECULE
*****
 29 32 0 0 0
SMALL
GASTEIGER

@<TRIPOS>ATOM
      1 C          -7.5336  -16.2920   23.8972 C.ar    1  UNL1        0.0351
      2 C          -7.4421  -15.5416   25.1928 C.ar    1  UNL1        0.0030
      3 C          -6.1219  -15.4124   25.8930 C.ar    1  UNL1        0.0003
      4 C          -4.8932  -16.0335   25.2976 C.ar    1  UNL1        0.0063
      5 C          -4.9847  -16.7839   24.0021 C.ar    1  UNL1        0.0740
      6 C          -3.7560  -17.4051   23.4067 C.ar    1  UNL1        0.2643
      7 O          -2.4358  -17.2759   24.1069 O.2     1  UNL1       -0.2668
      8 N          -3.8475  -18.1555   22.1112 N.ar    1  UNL1       -0.2669
      9 C          -2.6188  -18.7767   21.5158 C.3     1  UNL1        0.1363
     10 C          -5.1677  -18.2848   21.4109 C.ar    1  UNL1        0.2000
     11 N          -6.3964  -17.6636   22.0063 N.ar    1  UNL1       -0.2150
     12 C          -6.3049  -16.9132   23.3019 C.ar    1  UNL1        0.0901
     13 C         -11.5261  -15.6269   19.0952 C.3     1  UNL1        0.0237
     14 C         -11.6709  -16.2117   20.4689 C.3     1  UNL1        0.0985
     15 N         -12.9170  -16.8191   21.0417 N.am    1  UNL1       -0.3004
     16 C         -12.6111  -17.2745   22.4378 C.2     1  UNL1        0.2438
     17 O         -13.5718  -17.9392   23.3788 O.2     1  UNL1       -0.2704
     18 C         -11.1760  -16.9486   22.7278 C.2     1  UNL1        0.0563
     19 C         -10.1000  -17.0287   23.7698 C.2     1  UNL1        0.0209
     20 C          -8.8539  -16.4213   23.1970 C.2     1  UNL1        0.0777
     21 N          -9.1597  -15.9658   21.8009 N.2     1  UNL1       -0.2660
     22 C         -10.5949  -16.2917   21.5109 C.3     1  UNL1        0.1476
     23 H         -13.7835  -16.9039   20.5821 H       1  UNL1        0.1498
     24 N          -5.2592  -19.0352   20.1154 N.pl3   1  UNL1       -0.3074
     25 H          -4.9915  -18.5994   19.2741 H       1  UNL1        0.1495
     26 C          -5.7587  -20.4495   20.1015 C.3     1  UNL1        0.0570
     27 C          -7.1710  -19.9516   20.1889 C.3     1  UNL1        0.0196
     28 C          -4.3465  -20.9474   20.0141 C.3     1  UNL1        0.0196
     29 C          -6.2582  -21.8639   20.0876 C.3     1  UNL1        0.0196
@<TRIPOS>BOND
     1    14    13    1
     2    14    15    1
     3    15    16   am
     4    16    17    2
     5    16    18    1
     6    18    19    2
     7    19    20    1
     8    20     1    1
     9     1     2   ar
    10     2     3   ar
    11     3     4   ar
    12     4     5   ar
    13     5     6   ar
    14     6     7    2
    15     6     8   ar
    16     8     9    1
    17     8    10   ar
    18    10    24    1
    19    24    26    1
    20    26    27    1
    21    26    28    1
    22    26    29    1
    23    10    11   ar
    24    11    12   ar
    25    20    21    2
    26    21    22    1
    27    22    14    1
    28    22    18    1
    29    12     1   ar
    30    12     5   ar
    31    15    23    1
    32    24    25    1
@<TRIPOS>MOLECULE
*****
 29 32 0 0 0
SMALL
GASTEIGER

@<TRIPOS>ATOM
      1 C          -7.2774  -16.2642   23.7325 C.ar    1  UNL1        0.0351
      2 C          -7.1142  -15.3928   24.9424 C.ar    1  UNL1        0.0030
      3 C          -5.7858  -15.3110   25.6340 C.ar    1  UNL1        0.0003
      4 C          -4.6205  -16.1006   25.1158 C.ar    1  UNL1        0.0063
      5 C          -4.7837  -16.9721   23.9059 C.ar    1  UNL1        0.0740
      6 C          -3.6184  -17.7618   23.3877 C.ar    1  UNL1        0.2643
      7 O          -2.2900  -17.6800   24.0794 O.2     1  UNL1       -0.2668
      8 N          -3.7816  -18.6332   22.1778 N.ar    1  UNL1       -0.2669
      9 C          -2.6163  -19.4229   21.6596 C.3     1  UNL1        0.1363
     10 C          -5.1101  -18.7151   21.4861 C.ar    1  UNL1        0.2000
     11 N          -6.2754  -17.9254   22.0043 N.ar    1  UNL1       -0.2150
     12 C          -6.1122  -17.0539   23.2143 C.ar    1  UNL1        0.0901
     13 C         -13.3429  -17.8054   23.2069 C.3     1  UNL1        0.0237
     14 C         -12.3820  -17.1153   22.2848 C.3     1  UNL1        0.0985
     15 N         -12.6946  -16.5979   20.9120 N.am    1  UNL1       -0.3004
     16 C         -11.4455  -15.9843   20.3523 C.2     1  UNL1        0.2438
     17 O         -11.3056  -15.3448   19.0027 O.2     1  UNL1       -0.2704
     18 C         -10.3609  -16.1225   21.3792 C.2     1  UNL1        0.0563
     19 C          -8.9186  -15.8286   21.6680 C.2     1  UNL1        0.0209
     20 C          -8.6060  -16.3460   23.0407 C.2     1  UNL1        0.0777
     21 N          -9.8551  -16.9597   23.6004 N.2     1  UNL1       -0.2660
     22 C         -10.9397  -16.8215   22.5736 C.3     1  UNL1        0.1476
     23 H         -13.5666  -16.6516   20.4580 H       1  UNL1        0.1498
     24 N          -5.2733  -19.5865   20.2762 N.pl3   1  UNL1       -0.3074
     25 H          -4.5180  -19.7177   19.6585 H       1  UNL1        0.1495
     26 C          -6.5874  -20.2581   20.0073 C.3     1  UNL1        0.0570
     27 C          -5.9782  -21.5861   20.3472 C.3     1  UNL1        0.0196
     28 C          -7.1965  -18.9302   19.6675 C.3     1  UNL1        0.0196
     29 C          -7.9014  -20.9297   19.7385 C.3     1  UNL1        0.0196
@<TRIPOS>BOND
     1    14    13    1
     2    14    15    1
     3    15    16   am
     4    16    17    2
     5    16    18    1
     6    18    19    2
     7    19    20    1
     8    20     1    1
     9     1     2   ar
    10     2     3   ar
    11     3     4   ar
    12     4     5   ar
    13     5     6   ar
    14     6     7    2
    15     6     8   ar
    16     8     9    1
    17     8    10   ar
    18    10    24    1
    19    24    26    1
    20    26    27    1
    21    26    28    1
    22    26    29    1
    23    10    11   ar
    24    11    12   ar
    25    20    21    2
    26    21    22    1
    27    22    14    1
    28    22    18    1
    29    12     1   ar
    30    12     5   ar
    31    15    23    1
    32    24    25    1
@<TRIPOS>MOLECULE
*****
 29 32 0 0 0
SMALL
GASTEIGER

@<TRIPOS>ATOM
      1 C         -12.4268   -5.6932   18.7283 C.ar    1  UNL1        0.0351
      2 C         -11.0140   -6.1596   18.9186 C.ar    1  UNL1        0.0030
      3 C          -9.8825   -5.1785   18.8338 C.ar    1  UNL1        0.0003
      4 C         -10.1639   -3.7311   18.5587 C.ar    1  UNL1        0.0063
      5 C         -11.5767   -3.2647   18.3684 C.ar    1  UNL1        0.0740
      6 C         -11.8581   -1.8172   18.0934 C.ar    1  UNL1        0.2643
      7 O         -10.7266   -0.8362   18.0086 O.2     1  UNL1       -0.2668
      8 N         -13.2709   -1.3508   17.9031 N.ar    1  UNL1       -0.2669
      9 C         -13.5523    0.0967   17.6280 C.3     1  UNL1        0.1363
     10 C         -14.4025   -2.3319   17.9879 C.ar    1  UNL1        0.2000
     11 N         -14.1211   -3.7793   18.2630 N.ar    1  UNL1       -0.2150
     12 C         -12.7082   -4.2457   18.4532 C.ar    1  UNL1        0.0901
     13 C         -18.2505   -7.5660   20.1493 C.3     1  UNL1        0.0237
     14 C         -17.0768   -8.2647   19.5294 C.3     1  UNL1        0.0985
     15 N         -17.0410   -9.6935   19.0742 N.am    1  UNL1       -0.3004
     16 C         -15.6749   -9.9690   18.5192 C.2     1  UNL1        0.2438
     17 O         -15.2005  -11.2740   17.9517 O.2     1  UNL1       -0.2704
     18 C         -14.8665   -8.7106   18.6315 C.2     1  UNL1        0.0563
     19 C         -13.5226   -8.1030   18.3579 C.2     1  UNL1        0.0209
     20 C         -13.5584   -6.6743   18.8131 C.2     1  UNL1        0.0777
     21 N         -14.9245   -6.3987   19.3680 N.2     1  UNL1       -0.2660
     22 C         -15.7329   -7.6572   19.2558 C.3     1  UNL1        0.1476
     23 H         -17.7837  -10.3373   19.1298 H       1  UNL1        0.1498
     24 N         -15.8154   -1.8654   17.7976 N.pl3   1  UNL1       -0.3074
     25 H         -16.0551   -1.3316   17.0059 H       1  UNL1        0.1495
     26 C         -16.8630   -2.2124   18.8135 C.3     1  UNL1        0.0570
     27 C         -17.5127   -3.1376   17.8276 C.3     1  UNL1        0.0196
     28 C         -16.2133   -1.2872   19.7994 C.3     1  UNL1        0.0196
     29 C         -17.9106   -2.5594   19.8294 C.3     1  UNL1        0.0196
@<TRIPOS>BOND
     1    14    13    1
     2    14    15    1
     3    15    16   am
     4    16    17    2
     5    16    18    1
     6    18    19    2
     7    19    20    1
     8    20     1    1
     9     1     2   ar
    10     2     3   ar
    11     3     4   ar
    12     4     5   ar
    13     5     6   ar
    14     6     7    2
    15     6     8   ar
    16     8     9    1
    17     8    10   ar
    18    10    24    1
    19    24    26    1
    20    26    27    1
    21    26    28    1
    22    26    29    1
    23    10    11   ar
    24    11    12   ar
    25    20    21    2
    26    21    22    1
    27    22    14    1
    28    22    18    1
    29    12     1   ar
    30    12     5   ar
    31    15    23    1
    32    24    25    1
@<TRIPOS>MOLECULE
*****
 29 32 0 0 0
SMALL
GASTEIGER

@<TRIPOS>ATOM
      1 C         -15.2972   -6.1380   19.2168 C.ar    1  UNL1        0.0351
      2 C         -15.3811   -7.6282   19.0682 C.ar    1  UNL1        0.0030
      3 C         -16.7107   -8.3170   19.1560 C.ar    1  UNL1        0.0003
      4 C         -17.9564   -7.5155   19.3922 C.ar    1  UNL1        0.0063
      5 C         -17.8725   -6.0253   19.5408 C.ar    1  UNL1        0.0740
      6 C         -19.1182   -5.2238   19.7771 C.ar    1  UNL1        0.2643
      7 O         -20.4478   -5.9126   19.8648 O.2     1  UNL1       -0.2668
      8 N         -19.0344   -3.7336   19.9256 N.ar    1  UNL1       -0.2669
      9 C         -20.2801   -2.9321   20.1619 C.3     1  UNL1        0.1363
     10 C         -17.7047   -3.0447   19.8379 C.ar    1  UNL1        0.2000
     11 N         -16.4590   -3.8462   19.6016 N.ar    1  UNL1       -0.2150
     12 C         -16.5429   -5.3365   19.4530 C.ar    1  UNL1        0.0901
     13 C         -11.4582   -1.2624   18.2516 C.3     1  UNL1        0.0237
     14 C         -11.2141   -2.6957   18.6201 C.3     1  UNL1        0.0985
     15 N          -9.8756   -3.3291   18.8590 N.am    1  UNL1       -0.3004
     16 C         -10.1000   -4.7722   19.2010 C.2     1  UNL1        0.2438
     17 O          -9.0343   -5.7799   19.5153 O.2     1  UNL1       -0.2704
     18 C         -11.5773   -5.0308   19.1735 C.2     1  UNL1        0.0563
     19 C         -12.6290   -6.0825   19.3679 C.2     1  UNL1        0.0209
     20 C         -13.9676   -5.4492   19.1290 C.2     1  UNL1        0.0777
     21 N         -13.7431   -4.0060   18.7870 N.2     1  UNL1       -0.2660
     22 C         -12.2658   -3.7474   18.8145 C.3     1  UNL1        0.1476
     23 H          -9.0029   -2.8770   18.8014 H       1  UNL1        0.1498
     24 N         -17.6208   -1.5545   19.9864 N.pl3   1  UNL1       -0.3074
     25 H         -18.0683   -1.1091   20.7418 H       1  UNL1        0.1495
     26 C         -16.8552   -0.7428   18.9840 C.3     1  UNL1        0.0570
     27 C         -15.7782   -0.5035   20.0003 C.3     1  UNL1        0.0196
     28 C         -17.9321   -0.9820   17.9676 C.3     1  UNL1        0.0196
     29 C         -16.0895    0.0690   17.9816 C.3     1  UNL1        0.0196
@<TRIPOS>BOND
     1    14    13    1
     2    14    15    1
     3    15    16   am
     4    16    17    2
     5    16    18    1
     6    18    19    2
     7    19    20    1
     8    20     1    1
     9     1     2   ar
    10     2     3   ar
    11     3     4   ar
    12     4     5   ar
    13     5     6   ar
    14     6     7    2
    15     6     8   ar
    16     8     9    1
    17     8    10   ar
    18    10    24    1
    19    24    26    1
    20    26    27    1
    21    26    28    1
    22    26    29    1
    23    10    11   ar
    24    11    12   ar
    25    20    21    2
    26    21    22    1
    27    22    14    1
    28    22    18    1
    29    12     1   ar
    30    12     5   ar
    31    15    23    1
    32    24    25    1
@<TRIPOS>MOLECULE
*****
 29 32 0 0 0
SMALL
GASTEIGER

@<TRIPOS>ATOM
      1 C         -15.4299   -6.8416   19.2028 C.ar    1  UNL1        0.0351
      2 C         -15.7608   -8.3001   19.0868 C.ar    1  UNL1        0.0030
      3 C         -17.1847   -8.7575   19.2013 C.ar    1  UNL1        0.0003
      4 C         -18.2778   -7.7564   19.4318 C.ar    1  UNL1        0.0063
      5 C         -17.9469   -6.2980   19.5479 C.ar    1  UNL1        0.0740
      6 C         -19.0400   -5.2970   19.7784 C.ar    1  UNL1        0.2643
      7 O         -20.4639   -5.7544   19.8929 O.2     1  UNL1       -0.2668
      8 N         -18.7092   -3.8386   19.8944 N.ar    1  UNL1       -0.2669
      9 C         -19.8022   -2.8376   20.1250 C.3     1  UNL1        0.1363
     10 C         -17.2852   -3.3811   19.7799 C.ar    1  UNL1        0.2000
     11 N         -16.1921   -4.3821   19.5494 N.ar    1  UNL1       -0.2150
     12 C         -16.5230   -5.8406   19.4334 C.ar    1  UNL1        0.0901
     13 C          -9.2125   -7.6174   18.7739 C.3     1  UNL1        0.0237
     14 C         -10.0891   -6.4006   18.8060 C.3     1  UNL1        0.0985
     15 N          -9.6234   -4.9764   18.7359 N.am    1  UNL1       -0.3004
     16 C         -10.8318   -4.0900   18.8005 C.2     1  UNL1        0.2438
     17 O         -10.8283   -2.5905   18.7618 O.2     1  UNL1       -0.2704
     18 C         -12.0442   -4.9662   18.9104 C.2     1  UNL1        0.0563
     19 C         -13.5403   -4.9600   19.0183 C.2     1  UNL1        0.0209
     20 C         -14.0059   -6.3842   19.0883 C.2     1  UNL1        0.0777
     21 N         -12.7976   -7.2706   19.0238 N.2     1  UNL1       -0.2660
     22 C         -11.5851   -6.3943   18.9138 C.3     1  UNL1        0.1476
     23 H          -8.6888   -4.6762   18.6608 H       1  UNL1        0.1498
     24 N         -16.9543   -1.9227   19.8960 N.pl3   1  UNL1       -0.3074
     25 H         -17.2967   -1.3992   20.6562 H       1  UNL1        0.1495
     26 C         -16.1017   -1.2618   18.8537 C.3     1  UNL1        0.0570
     27 C         -17.2942   -1.1466   17.9512 C.3     1  UNL1        0.0196
     28 C         -14.9091   -1.3770   19.7563 C.3     1  UNL1        0.0196
     29 C         -15.2491   -0.6009   17.8115 C.3     1  UNL1        0.0196
@<TRIPOS>BOND
     1    14    13    1
     2    14    15    1
     3    15    16   am
     4    16    17    2
     5    16    18    1
     6    18    19    2
     7    19    20    1
     8    20     1    1
     9     1     2   ar
    10     2     3   ar
    11     3     4   ar
    12     4     5   ar
    13     5     6   ar
    14     6     7    2
    15     6     8   ar
    16     8     9    1
    17     8    10   ar
    18    10    24    1
    19    24    26    1
    20    26    27    1
    21    26    28    1
    22    26    29    1
    23    10    11   ar
    24    11    12   ar
    25    20    21    2
    26    21    22    1
    27    22    14    1
    28    22    18    1
    29    12     1   ar
    30    12     5   ar
    31    15    23    1
    32    24    25    1
@<TRIPOS>MOLECULE
*****
 29 32 0 0 0
SMALL
GASTEIGER

@<TRIPOS>ATOM
      1 C           1.4185    0.8291   20.3727 C.ar    1  UNL1        0.0351
      2 C           0.5450    1.6286   19.4521 C.ar    1  UNL1        0.0030
      3 C          -0.4307    2.6187   20.0158 C.ar    1  UNL1        0.0003
      4 C          -0.5328    2.8091   21.5002 C.ar    1  UNL1        0.0063
      5 C           0.3407    2.0096   22.4208 C.ar    1  UNL1        0.0740
      6 C           0.2386    2.2001   23.9051 C.ar    1  UNL1        0.2643
      7 O          -0.7371    3.1901   24.4688 O.2     1  UNL1       -0.2668
      8 N           1.1121    1.4006   24.8258 N.ar    1  UNL1       -0.2669
      9 C           1.0100    1.5910   26.3101 C.3     1  UNL1        0.1363
     10 C           2.0879    0.4105   24.2621 C.ar    1  UNL1        0.2000
     11 N           2.1900    0.2200   22.7777 N.ar    1  UNL1       -0.2150
     12 C           1.3164    1.0196   21.8571 C.ar    1  UNL1        0.0901
     13 C           3.7565   -4.9054   19.3283 C.3     1  UNL1        0.0237
     14 C           4.1946   -3.5332   18.9097 C.3     1  UNL1        0.0985
     15 N           5.3972   -3.2082   18.0743 N.am    1  UNL1       -0.3004
     16 C           5.4528   -1.7192   17.9014 C.2     1  UNL1        0.2438
     17 O           6.4939   -0.9589   17.1346 O.2     1  UNL1       -0.2704
     18 C           4.2846   -1.1240   18.6300 C.2     1  UNL1        0.0563
     19 C           3.5969    0.1641   18.9736 C.2     1  UNL1        0.0209
     20 C           2.3943   -0.1610   19.8090 C.2     1  UNL1        0.0777
     21 N           2.3387   -1.6500   19.9819 N.2     1  UNL1       -0.2660
     22 C           3.5070   -2.2452   19.2532 C.3     1  UNL1        0.1476
     23 H           6.0376   -3.8580   17.7043 H       1  UNL1        0.1498
     24 N           2.9614   -0.3891   25.1827 N.pl3   1  UNL1       -0.3074
     25 H           2.5617   -0.8843   25.9338 H       1  UNL1        0.1495
     26 C           4.4439   -0.4341   24.9589 C.3     1  UNL1        0.0570
     27 C           4.3310   -1.8565   24.4964 C.3     1  UNL1        0.0196
     28 C           4.5569    0.9884   25.4214 C.3     1  UNL1        0.0196
     29 C           5.9265   -0.4790   24.7351 C.3     1  UNL1        0.0196
@<TRIPOS>BOND
     1    14    13    1
     2    14    15    1
     3    15    16   am
     4    16    17    2
     5    16    18    1
     6    18    19    2
     7    19    20    1
     8    20     1    1
     9     1     2   ar
    10     2     3   ar
    11     3     4   ar
    12     4     5   ar
    13     5     6   ar
    14     6     7    2
    15     6     8   ar
    16     8     9    1
    17     8    10   ar
    18    10    24    1
    19    24    26    1
    20    26    27    1
    21    26    28    1
    22    26    29    1
    23    10    11   ar
    24    11    12   ar
    25    20    21    2
    26    21    22    1
    27    22    14    1
    28    22    18    1
    29    12     1   ar
    30    12     5   ar
    31    15    23    1
    32    24    25    1
