@<TRIPOS>MOLECULE
*****
 33 36 0 0 0
SMALL
GASTEIGER

@<TRIPOS>ATOM
      1 C         -11.1248  -18.9199   19.3283 C.3     1  UNL1        0.0203
      2 C          -9.8865  -19.2239   20.1184 C.3     1  UNL1        0.0888
      3 N          -9.8135  -18.8541   21.5702 N.3     1  UNL1       -0.2713
      4 C         -10.6442  -19.5952   22.5756 C.3     1  UNL1        0.0749
      5 C         -10.5712  -19.2254   24.0275 C.3     1  UNL1        0.0485
      6 C          -9.6676  -18.1145   24.4740 C.3     1  UNL1        0.1096
      7 O         -10.2553  -18.5185   25.7936 O.3     1  UNL1       -0.3826
      8 C          -8.8368  -17.3734   23.4686 C.3     1  UNL1        0.0485
      9 C          -8.9098  -17.7432   22.0167 C.3     1  UNL1        0.0749
     10 H         -10.8783  -19.2499   25.6598 H       1  UNL1        0.2107
     11 C          -8.9680  -17.1439   25.3788 C.ar    1  UNL1        0.0019
     12 C          -8.2338  -15.9722   24.7976 C.ar    1  UNL1        0.0003
     13 C          -7.5343  -15.0016   25.7023 C.ar    1  UNL1        0.0294
     14 C          -7.5690  -15.2028   27.1884 C.ar    1  UNL1        0.1401
     15 F          -6.8695  -14.2322   28.0931 F       1  UNL1       -0.2042
     16 C          -8.3033  -16.3745   27.7696 C.ar    1  UNL1        0.0294
     17 C          -9.0028  -17.3451   26.8648 C.ar    1  UNL1        0.0003
     18 C          -8.7212  -19.8978   19.4566 C.3     1  UNL1        0.1472
     19 O          -8.9169  -20.6403   18.1681 O.3     1  UNL1       -0.3787
     20 H          -8.0698  -21.0134   17.8780 H       1  UNL1        0.2108
     21 C          -7.3601  -19.8291   20.0833 C.ar    1  UNL1        0.0054
     22 C          -7.1290  -20.4220   21.4417 C.ar    1  UNL1       -0.0007
     23 C          -5.7680  -20.3533   22.0683 C.ar    1  UNL1        0.0142
     24 C          -4.6379  -19.6917   21.3367 C.ar    1  UNL1        0.0491
     25 C          -4.8690  -19.0988   19.9783 C.ar    1  UNL1        0.0110
     26 C          -6.2300  -19.1675   19.3517 C.ar    1  UNL1       -0.0033
     27 C          -3.7389  -18.4373   19.2467 C.3     1  UNL1        0.1230
     28 N          -2.3779  -18.3686   19.8733 N.am    1  UNL1       -0.2581
     29 C          -1.2478  -17.7070   19.1417 C.3     1  UNL1        0.1168
     30 C          -2.1468  -18.9614   21.2317 C.2     1  UNL1        0.3080
     31 O          -0.7857  -18.8927   21.8584 O.2     1  UNL1       -0.2522
     32 N          -3.2768  -19.6230   21.9634 N.am    1  UNL1       -0.2684
     33 H          -3.1252  -20.0121   22.8549 H       1  UNL1        0.1564
@<TRIPOS>BOND
     1     1     2    1
     2     2    18    1
     3    18    19    1
     4    18    21    1
     5    21    22   ar
     6    22    23   ar
     7    23    24   ar
     8    24    25   ar
     9    25    26   ar
    10    25    27    1
    11    27    28    1
    12    28    29    1
    13    28    30   am
    14    30    31    2
    15    30    32   am
    16     2     3    1
    17     3     4    1
    18     4     5    1
    19     5     6    1
    20     6     7    1
    21     6    11    1
    22    11    12   ar
    23    12    13   ar
    24    13    14   ar
    25    14    15    1
    26    14    16   ar
    27    16    17   ar
    28     6     8    1
    29     8     9    1
    30    26    21   ar
    31     9     3    1
    32    32    24    1
    33    17    11   ar
    34    19    20    1
    35    32    33    1
    36     7    10    1
@<TRIPOS>MOLECULE
*****
 33 36 0 0 0
SMALL
GASTEIGER

@<TRIPOS>ATOM
      1 C           9.0822   -2.8753   22.3352 C.3     1  UNL1        0.0203
      2 C           8.0738   -3.9288   21.9839 C.3     1  UNL1        0.0888
      3 N           6.8712   -3.5713   21.1617 N.3     1  UNL1       -0.2713
      4 C           6.2880   -4.5739   20.2105 C.3     1  UNL1        0.0749
      5 C           5.0855   -4.2165   19.3883 C.3     1  UNL1        0.0485
      6 C           4.4661   -2.8564   19.5172 C.3     1  UNL1        0.1096
      7 O           3.5583   -3.4594   18.4864 O.3     1  UNL1       -0.3826
      8 C           5.0493   -1.8538   20.4683 C.3     1  UNL1        0.0485
      9 C           6.2518   -2.2112   21.2906 C.3     1  UNL1        0.0749
     10 H           3.8436   -4.3666   18.2953 H       1  UNL1        0.2107
     11 C           3.5314   -1.7057   19.2881 C.ar    1  UNL1        0.0019
     12 C           3.7746   -0.7567   18.1523 C.ar    1  UNL1        0.0003
     13 C           2.8400    0.3940   17.9232 C.ar    1  UNL1        0.0294
     14 C           1.6621    0.5955   18.8300 C.ar    1  UNL1        0.1401
     15 F           0.7276    1.7462   18.6009 F       1  UNL1       -0.2042
     16 C           1.4190   -0.3536   19.9658 C.ar    1  UNL1        0.0294
     17 C           2.3537   -1.5042   20.1948 C.ar    1  UNL1        0.0003
     18 C           8.2679   -5.3396   22.4548 C.3     1  UNL1        0.1472
     19 O           8.7067   -6.3993   21.4881 O.3     1  UNL1       -0.3787
     20 H           8.7835   -7.2480   21.9516 H       1  UNL1        0.2108
     21 C           8.0233   -5.6908   23.8925 C.ar    1  UNL1        0.0054
     22 C           8.0996   -7.1208   24.3387 C.ar    1  UNL1       -0.0007
     23 C           7.8550   -7.4720   25.7763 C.ar    1  UNL1        0.0142
     24 C           7.5340   -6.3931   26.7678 C.ar    1  UNL1        0.0491
     25 C           7.4577   -4.9631   26.3216 C.ar    1  UNL1        0.0110
     26 C           7.7023   -4.6119   24.8840 C.ar    1  UNL1       -0.0033
     27 C           7.1367   -3.8842   27.3130 C.3     1  UNL1        0.1230
     28 N           6.8921   -4.2353   28.7507 N.am    1  UNL1       -0.2581
     29 C           6.5711   -3.1564   29.7421 C.3     1  UNL1        0.1168
     30 C           6.9684   -5.6654   29.1969 C.2     1  UNL1        0.3080
     31 O           6.7238   -6.0165   30.6345 O.2     1  UNL1       -0.2522
     32 N           7.2894   -6.7443   28.2055 N.am    1  UNL1       -0.2684
     33 H           7.3395   -7.6829   28.4983 H       1  UNL1        0.1564
@<TRIPOS>BOND
     1     1     2    1
     2     2    18    1
     3    18    19    1
     4    18    21    1
     5    21    22   ar
     6    22    23   ar
     7    23    24   ar
     8    24    25   ar
     9    25    26   ar
    10    25    27    1
    11    27    28    1
    12    28    29    1
    13    28    30   am
    14    30    31    2
    15    30    32   am
    16     2     3    1
    17     3     4    1
    18     4     5    1
    19     5     6    1
    20     6     7    1
    21     6    11    1
    22    11    12   ar
    23    12    13   ar
    24    13    14   ar
    25    14    15    1
    26    14    16   ar
    27    16    17   ar
    28     6     8    1
    29     8     9    1
    30    26    21   ar
    31     9     3    1
    32    32    24    1
    33    17    11   ar
    34    19    20    1
    35    32    33    1
    36     7    10    1
@<TRIPOS>MOLECULE
*****
 33 36 0 0 0
SMALL
GASTEIGER

@<TRIPOS>ATOM
      1 C          -0.3591    5.3614   19.0184 C.3     1  UNL1        0.0203
      2 C          -0.9086    3.9948   18.7342 C.3     1  UNL1        0.0888
      3 N          -0.1217    2.7760   19.1154 N.3     1  UNL1       -0.2713
      4 C          -0.3883    2.0895   20.4221 C.3     1  UNL1        0.0749
      5 C           0.3986    0.8707   20.8032 C.3     1  UNL1        0.0485
      6 C           1.4521    0.3383   19.8777 C.3     1  UNL1        0.1096
      7 O           1.5649   -0.6526   20.9981 O.3     1  UNL1       -0.3826
      8 C           1.7187    1.0248   18.5709 C.3     1  UNL1        0.0485
      9 C           0.9319    2.2437   18.1897 C.3     1  UNL1        0.0749
     10 H           0.9249   -0.4301   21.6922 H       1  UNL1        0.2107
     11 C           2.5448   -0.5382   19.3412 C.ar    1  UNL1        0.0019
     12 C           3.1961   -0.2078   18.0310 C.ar    1  UNL1        0.0003
     13 C           4.2888   -1.0842   17.4945 C.ar    1  UNL1        0.0294
     14 C           4.7302   -2.2912   18.2683 C.ar    1  UNL1        0.1401
     15 F           5.8229   -3.1676   17.7318 F       1  UNL1       -0.2042
     16 C           4.0789   -2.6215   19.5785 C.ar    1  UNL1        0.0294
     17 C           2.9861   -1.7450   20.1149 C.ar    1  UNL1        0.0003
     18 C          -2.2448    3.8471   18.0689 C.3     1  UNL1        0.1472
     19 O          -2.3233    3.5796   16.5950 O.3     1  UNL1       -0.3787
     20 H          -3.2533    3.5121   16.3277 H       1  UNL1        0.2108
     21 C          -3.5026    3.9670   18.8774 C.ar    1  UNL1        0.0054
     22 C          -4.8306    4.0696   18.1877 C.ar    1  UNL1       -0.0007
     23 C          -6.0883    4.1894   18.9963 C.ar    1  UNL1        0.0142
     24 C          -6.0179    4.2066   20.4945 C.ar    1  UNL1        0.0491
     25 C          -4.6899    4.1040   21.1842 C.ar    1  UNL1        0.0110
     26 C          -3.4322    3.9842   20.3757 C.ar    1  UNL1       -0.0033
     27 C          -4.6196    4.1213   22.6825 C.3     1  UNL1        0.1230
     28 N          -5.8773    4.2411   23.4910 N.am    1  UNL1       -0.2581
     29 C          -5.8069    4.2584   24.9893 C.3     1  UNL1        0.1168
     30 C          -7.2054    4.3437   22.8013 C.2     1  UNL1        0.3080
     31 O          -8.4631    4.4635   23.6098 O.2     1  UNL1       -0.2522
     32 N          -7.2757    4.3265   21.3031 N.am    1  UNL1       -0.2684
     33 H          -8.1474    4.3938   20.8504 H       1  UNL1        0.1564
@<TRIPOS>BOND
     1     1     2    1
     2     2    18    1
     3    18    19    1
     4    18    21    1
     5    21    22   ar
     6    22    23   ar
     7    23    24   ar
     8    24    25   ar
     9    25    26   ar
    10    25    27    1
    11    27    28    1
    12    28    29    1
    13    28    30   am
    14    30    31    2
    15    30    32   am
    16     2     3    1
    17     3     4    1
    18     4     5    1
    19     5     6    1
    20     6     7    1
    21     6    11    1
    22    11    12   ar
    23    12    13   ar
    24    13    14   ar
    25    14    15    1
    26    14    16   ar
    27    16    17   ar
    28     6     8    1
    29     8     9    1
    30    26    21   ar
    31     9     3    1
    32    32    24    1
    33    17    11   ar
    34    19    20    1
    35    32    33    1
    36     7    10    1
@<TRIPOS>MOLECULE
*****
 33 36 0 0 0
SMALL
GASTEIGER

@<TRIPOS>ATOM
      1 C           2.2520    2.7208   21.4860 C.3     1  UNL1        0.0203
      2 C           1.1897    1.7593   21.9301 C.3     1  UNL1        0.0888
      3 N           0.3042    2.1038   23.0908 N.3     1  UNL1       -0.2713
      4 C           0.5578    1.4899   24.4357 C.3     1  UNL1        0.0749
      5 C          -0.3277    1.8343   25.5964 C.3     1  UNL1        0.0485
      6 C          -1.4668    2.7927   25.4122 C.3     1  UNL1        0.1096
      7 O          -1.6283    2.4730   26.8689 O.3     1  UNL1       -0.3826
      8 C          -1.7205    3.4066   24.0673 C.3     1  UNL1        0.0485
      9 C          -0.8350    3.0622   22.9066 C.3     1  UNL1        0.0749
     10 H          -0.9405    1.8452   27.1403 H       1  UNL1        0.2107
     11 C          -2.6621    3.6400   25.7339 C.ar    1  UNL1        0.0019
     12 C          -3.9417    3.4510   24.9745 C.ar    1  UNL1        0.0003
     13 C          -5.1369    4.2983   25.2962 C.ar    1  UNL1        0.0294
     14 C          -5.0525    5.3347   26.3773 C.ar    1  UNL1        0.1401
     15 F          -6.2477    6.1820   26.6989 F       1  UNL1       -0.2042
     16 C          -3.7728    5.5238   27.1367 C.ar    1  UNL1        0.0294
     17 C          -2.5776    4.6764   26.8150 C.ar    1  UNL1        0.0003
     18 C           1.0129    0.4535   21.2135 C.3     1  UNL1        0.1472
     19 O          -0.2573    0.1740   20.4663 O.3     1  UNL1       -0.3787
     20 H          -0.2084   -0.7072   20.0638 H       1  UNL1        0.2108
     21 C           2.1064   -0.5729   21.2442 C.ar    1  UNL1        0.0054
     22 C           2.4733   -1.3155   19.9937 C.ar    1  UNL1       -0.0007
     23 C           3.5668   -2.3418   20.0244 C.ar    1  UNL1        0.0142
     24 C           4.2933   -2.6255   21.3057 C.ar    1  UNL1        0.0491
     25 C           3.9264   -1.8829   22.5562 C.ar    1  UNL1        0.0110
     26 C           2.8330   -0.8566   22.5255 C.ar    1  UNL1       -0.0033
     27 C           4.6530   -2.1666   23.8375 C.3     1  UNL1        0.1230
     28 N           5.7465   -3.1930   23.8682 N.am    1  UNL1       -0.2581
     29 C           6.4730   -3.4767   25.1494 C.3     1  UNL1        0.1168
     30 C           6.1134   -3.9357   22.6176 C.2     1  UNL1        0.3080
     31 O           7.2068   -4.9620   22.6483 O.2     1  UNL1       -0.2522
     32 N           5.3868   -3.6519   21.3363 N.am    1  UNL1       -0.2684
     33 H           5.6276   -4.1394   20.5156 H       1  UNL1        0.1564
@<TRIPOS>BOND
     1     1     2    1
     2     2    18    1
     3    18    19    1
     4    18    21    1
     5    21    22   ar
     6    22    23   ar
     7    23    24   ar
     8    24    25   ar
     9    25    26   ar
    10    25    27    1
    11    27    28    1
    12    28    29    1
    13    28    30   am
    14    30    31    2
    15    30    32   am
    16     2     3    1
    17     3     4    1
    18     4     5    1
    19     5     6    1
    20     6     7    1
    21     6    11    1
    22    11    12   ar
    23    12    13   ar
    24    13    14   ar
    25    14    15    1
    26    14    16   ar
    27    16    17   ar
    28     6     8    1
    29     8     9    1
    30    26    21   ar
    31     9     3    1
    32    32    24    1
    33    17    11   ar
    34    19    20    1
    35    32    33    1
    36     7    10    1
@<TRIPOS>MOLECULE
*****
 33 36 0 0 0
SMALL
GASTEIGER

@<TRIPOS>ATOM
      1 C           6.9089   -6.0811   26.2792 C.3     1  UNL1        0.0203
      2 C           7.0540   -4.7067   26.8625 C.3     1  UNL1        0.0888
      3 N           6.8823   -4.4960   28.3376 N.3     1  UNL1       -0.2713
      4 C           6.9713   -5.6619   29.2771 C.3     1  UNL1        0.0749
      5 C           6.7996   -5.4513   30.7523 C.3     1  UNL1        0.0485
      6 C           6.5389   -4.0747   31.2880 C.3     1  UNL1        0.1096
      7 O           6.5371   -4.8569   32.5679 O.3     1  UNL1       -0.3826
      8 C           6.4498   -2.9087   30.3485 C.3     1  UNL1        0.0485
      9 C           6.6215   -3.1193   28.8733 C.3     1  UNL1        0.0749
     10 H           6.6984   -5.7936   32.3746 H       1  UNL1        0.2107
     11 C           6.2775   -2.9697   32.2682 C.ar    1  UNL1        0.0019
     12 C           7.3700   -2.0030   32.6174 C.ar    1  UNL1        0.0003
     13 C           7.1087   -0.8980   33.5976 C.ar    1  UNL1        0.0294
     14 C           5.7548   -0.7598   34.2286 C.ar    1  UNL1        0.1401
     15 F           5.4936    0.3452   35.2088 F       1  UNL1       -0.2042
     16 C           4.6624   -1.7265   33.8793 C.ar    1  UNL1        0.0294
     17 C           4.9237   -2.8315   32.8991 C.ar    1  UNL1        0.0003
     18 C           7.3707   -3.5431   25.9705 C.3     1  UNL1        0.1472
     19 O           8.7513   -2.9566   25.9646 O.3     1  UNL1       -0.3787
     20 H           8.7859   -2.2174   25.3374 H       1  UNL1        0.2108
     21 C           6.3068   -2.9658   25.0845 C.ar    1  UNL1        0.0054
     22 C           5.3842   -1.9074   25.6121 C.ar    1  UNL1       -0.0007
     23 C           4.3204   -1.3302   24.7260 C.ar    1  UNL1        0.0142
     24 C           4.1792   -1.8115   23.3124 C.ar    1  UNL1        0.0491
     25 C           5.1018   -2.8699   22.7848 C.ar    1  UNL1        0.0110
     26 C           6.1656   -3.4471   23.6708 C.ar    1  UNL1       -0.0033
     27 C           4.9606   -3.3512   21.3711 C.3     1  UNL1        0.1230
     28 N           3.8968   -2.7740   20.4851 N.am    1  UNL1       -0.2581
     29 C           3.7555   -3.2553   19.0714 C.3     1  UNL1        0.1168
     30 C           2.9741   -1.7155   21.0127 C.2     1  UNL1        0.3080
     31 O           1.9103   -1.1383   20.1266 O.2     1  UNL1       -0.2522
     32 N           3.1153   -1.2342   22.4263 N.am    1  UNL1       -0.2684
     33 H           2.5097   -0.5395   22.7726 H       1  UNL1        0.1564
@<TRIPOS>BOND
     1     1     2    1
     2     2    18    1
     3    18    19    1
     4    18    21    1
     5    21    22   ar
     6    22    23   ar
     7    23    24   ar
     8    24    25   ar
     9    25    26   ar
    10    25    27    1
    11    27    28    1
    12    28    29    1
    13    28    30   am
    14    30    31    2
    15    30    32   am
    16     2     3    1
    17     3     4    1
    18     4     5    1
    19     5     6    1
    20     6     7    1
    21     6    11    1
    22    11    12   ar
    23    12    13   ar
    24    13    14   ar
    25    14    15    1
    26    14    16   ar
    27    16    17   ar
    28     6     8    1
    29     8     9    1
    30    26    21   ar
    31     9     3    1
    32    32    24    1
    33    17    11   ar
    34    19    20    1
    35    32    33    1
    36     7    10    1
@<TRIPOS>MOLECULE
*****
 33 36 0 0 0
SMALL
GASTEIGER

@<TRIPOS>ATOM
      1 C          -5.7100  -21.8839   19.9385 C.3     1  UNL1        0.0203
      2 C          -5.9730  -20.4687   20.3604 C.3     1  UNL1        0.0888
      3 N          -7.3828  -19.9907   20.5448 N.3     1  UNL1       -0.2713
      4 C          -8.2010  -19.5906   19.3531 C.3     1  UNL1        0.0749
      5 C          -9.6108  -19.1127   19.5375 C.3     1  UNL1        0.0485
      6 C         -10.2024  -19.0347   20.9136 C.3     1  UNL1        0.1096
      7 O         -11.3665  -18.5490   20.1018 O.3     1  UNL1       -0.3826
      8 C          -9.3841  -19.4348   22.1055 C.3     1  UNL1        0.0485
      9 C          -7.9743  -19.9128   21.9211 C.3     1  UNL1        0.0749
     10 H         -11.1261  -18.5448   19.1621 H       1  UNL1        0.2107
     11 C         -11.1983  -18.7881   22.0080 C.ar    1  UNL1        0.0019
     12 C         -10.9758  -19.3743   23.3706 C.ar    1  UNL1        0.0003
     13 C         -11.9716  -19.1278   24.4649 C.ar    1  UNL1        0.0294
     14 C         -13.1900  -18.2949   24.1965 C.ar    1  UNL1        0.1401
     15 F         -14.1858  -18.0483   25.2908 F       1  UNL1       -0.2042
     16 C         -13.4125  -17.7087   22.8339 C.ar    1  UNL1        0.0294
     17 C         -12.4166  -17.9553   21.7395 C.ar    1  UNL1        0.0003
     18 C          -4.8262  -19.5315   20.5980 C.3     1  UNL1        0.1472
     19 O          -3.6875  -19.4773   19.6231 O.3     1  UNL1       -0.3787
     20 H          -3.0355  -18.8249   19.9234 H       1  UNL1        0.2108
     21 C          -4.8180  -18.6484   21.8105 C.ar    1  UNL1        0.0054
     22 C          -3.5337  -18.3888   22.5406 C.ar    1  UNL1       -0.0007
     23 C          -3.5256  -17.5058   23.7531 C.ar    1  UNL1        0.0142
     24 C          -4.8018  -16.8823   24.2355 C.ar    1  UNL1        0.0491
     25 C          -6.0861  -17.1419   23.5053 C.ar    1  UNL1        0.0110
     26 C          -6.0942  -18.0250   22.2929 C.ar    1  UNL1       -0.0033
     27 C          -7.3623  -16.5185   23.9877 C.3     1  UNL1        0.1230
     28 N          -7.3542  -15.6354   25.2001 N.am    1  UNL1       -0.2581
     29 C          -8.6303  -15.0120   25.6825 C.3     1  UNL1        0.1168
     30 C          -6.0698  -15.3758   25.9303 C.2     1  UNL1        0.3080
     31 O          -6.0617  -14.4927   27.1428 O.2     1  UNL1       -0.2522
     32 N          -4.7936  -15.9992   25.4480 N.am    1  UNL1       -0.2684
     33 H          -3.9507  -15.8288   25.9272 H       1  UNL1        0.1564
@<TRIPOS>BOND
     1     1     2    1
     2     2    18    1
     3    18    19    1
     4    18    21    1
     5    21    22   ar
     6    22    23   ar
     7    23    24   ar
     8    24    25   ar
     9    25    26   ar
    10    25    27    1
    11    27    28    1
    12    28    29    1
    13    28    30   am
    14    30    31    2
    15    30    32   am
    16     2     3    1
    17     3     4    1
    18     4     5    1
    19     5     6    1
    20     6     7    1
    21     6    11    1
    22    11    12   ar
    23    12    13   ar
    24    13    14   ar
    25    14    15    1
    26    14    16   ar
    27    16    17   ar
    28     6     8    1
    29     8     9    1
    30    26    21   ar
    31     9     3    1
    32    32    24    1
    33    17    11   ar
    34    19    20    1
    35    32    33    1
    36     7    10    1
@<TRIPOS>MOLECULE
*****
 33 36 0 0 0
SMALL
GASTEIGER

@<TRIPOS>ATOM
      1 C           1.9858    2.8046   21.0314 C.3     1  UNL1        0.0203
      2 C           1.2190    1.7482   21.7706 C.3     1  UNL1        0.0888
      3 N           0.6497    2.0449   23.1262 N.3     1  UNL1       -0.2713
      4 C          -0.6214    2.8317   23.2500 C.3     1  UNL1        0.0749
      5 C          -1.1907    3.1284   24.6056 C.3     1  UNL1        0.0485
      6 C          -0.4890    2.6385   25.8375 C.3     1  UNL1        0.1096
      7 O          -1.6573    3.3396   26.4648 O.3     1  UNL1       -0.3826
      8 C           0.7821    1.8517   25.7137 C.3     1  UNL1        0.0485
      9 C           1.3515    1.5549   24.3581 C.3     1  UNL1        0.0749
     10 H          -2.2180    3.7188   25.7699 H       1  UNL1        0.2107
     11 C          -0.1930    2.3920   27.2872 C.ar    1  UNL1        0.0019
     12 C           0.5521    3.4200   28.0859 C.ar    1  UNL1        0.0003
     13 C           0.8481    3.1736   29.5356 C.ar    1  UNL1        0.0294
     14 C           0.3989    1.8990   30.1866 C.ar    1  UNL1        0.1401
     15 F           0.6950    1.6526   31.6363 F       1  UNL1       -0.2042
     16 C          -0.3462    0.8710   29.3880 C.ar    1  UNL1        0.0294
     17 C          -0.6422    1.1175   27.9382 C.ar    1  UNL1        0.0003
     18 C           1.0217    0.3951   21.1540 C.3     1  UNL1        0.1472
     19 O          -0.2884    0.0474   20.5116 O.3     1  UNL1       -0.3787
     20 H          -0.2486   -0.8578   20.1653 H       1  UNL1        0.2108
     21 C           2.1346   -0.6104   21.1799 C.ar    1  UNL1        0.0054
     22 C           2.5470   -1.3053   19.9162 C.ar    1  UNL1       -0.0007
     23 C           3.6598   -2.3108   19.9420 C.ar    1  UNL1        0.0142
     24 C           4.3602   -2.6213   21.2316 C.ar    1  UNL1        0.0491
     25 C           3.9478   -1.9264   22.4953 C.ar    1  UNL1        0.0110
     26 C           2.8350   -0.9210   22.4694 C.ar    1  UNL1       -0.0033
     27 C           4.6482   -2.2370   23.7849 C.3     1  UNL1        0.1230
     28 N           5.7610   -3.2424   23.8108 N.am    1  UNL1       -0.2581
     29 C           6.4614   -3.5529   25.1003 C.3     1  UNL1        0.1168
     30 C           6.1734   -3.9374   22.5470 C.2     1  UNL1        0.3080
     31 O           7.2862   -4.9428   22.5729 O.2     1  UNL1       -0.2522
     32 N           5.4730   -3.6268   21.2574 N.am    1  UNL1       -0.2684
     33 H           5.7437   -4.0829   20.4280 H       1  UNL1        0.1564
@<TRIPOS>BOND
     1     1     2    1
     2     2    18    1
     3    18    19    1
     4    18    21    1
     5    21    22   ar
     6    22    23   ar
     7    23    24   ar
     8    24    25   ar
     9    25    26   ar
    10    25    27    1
    11    27    28    1
    12    28    29    1
    13    28    30   am
    14    30    31    2
    15    30    32   am
    16     2     3    1
    17     3     4    1
    18     4     5    1
    19     5     6    1
    20     6     7    1
    21     6    11    1
    22    11    12   ar
    23    12    13   ar
    24    13    14   ar
    25    14    15    1
    26    14    16   ar
    27    16    17   ar
    28     6     8    1
    29     8     9    1
    30    26    21   ar
    31     9     3    1
    32    32    24    1
    33    17    11   ar
    34    19    20    1
    35    32    33    1
    36     7    10    1
@<TRIPOS>MOLECULE
*****
 33 36 0 0 0
SMALL
GASTEIGER

@<TRIPOS>ATOM
      1 C           8.6449   -2.7590   26.4210 C.3     1  UNL1        0.0203
      2 C           7.5959   -3.6885   26.9557 C.3     1  UNL1        0.0888
      3 N           7.2430   -3.6621   28.4133 N.3     1  UNL1       -0.2713
      4 C           7.2897   -4.9263   29.2193 C.3     1  UNL1        0.0749
      5 C           6.9369   -4.8999   30.6769 C.3     1  UNL1        0.0485
      6 C           6.5373   -3.6094   31.3286 C.3     1  UNL1        0.1096
      7 O           6.4326   -4.5373   32.5026 O.3     1  UNL1       -0.3826
      8 C           6.4906   -2.3451   30.5227 C.3     1  UNL1        0.0485
      9 C           6.8434   -2.3715   29.0650 C.3     1  UNL1        0.0749
     10 H           6.6687   -5.4366   32.2259 H       1  UNL1        0.2107
     11 C           6.1014   -2.6411   32.3881 C.ar    1  UNL1        0.0019
     12 C           7.0507   -1.5885   32.8786 C.ar    1  UNL1        0.0003
     13 C           6.6149   -0.6201   33.9380 C.ar    1  UNL1        0.0294
     14 C           5.2294   -0.7045   34.5069 C.ar    1  UNL1        0.1401
     15 F           4.7936    0.2639   35.5663 F       1  UNL1       -0.2042
     16 C           4.2800   -1.7571   34.0164 C.ar    1  UNL1        0.0294
     17 C           4.7160   -2.7254   32.9570 C.ar    1  UNL1        0.0003
     18 C           6.8999   -4.6443   26.0327 C.3     1  UNL1        0.1472
     19 O           6.1863   -5.8401   26.5902 O.3     1  UNL1       -0.3787
     20 H           5.7937   -6.3498   25.8643 H       1  UNL1        0.2108
     21 C           6.9174   -4.4043   24.5520 C.ar    1  UNL1        0.0054
     22 C           8.0653   -4.9025   23.7250 C.ar    1  UNL1       -0.0007
     23 C           8.0828   -4.6625   22.2445 C.ar    1  UNL1        0.0142
     24 C           6.9523   -3.9243   21.5910 C.ar    1  UNL1        0.0491
     25 C           5.8044   -3.4261   22.4180 C.ar    1  UNL1        0.0110
     26 C           5.7869   -3.6661   23.8985 C.ar    1  UNL1       -0.0033
     27 C           4.6739   -2.6879   21.7645 C.3     1  UNL1        0.1230
     28 N           4.6914   -2.4479   20.2839 N.am    1  UNL1       -0.2581
     29 C           3.5609   -1.7097   19.6304 C.3     1  UNL1        0.1168
     30 C           5.8393   -2.9461   19.4568 C.2     1  UNL1        0.3080
     31 O           5.8568   -2.7061   17.9763 O.2     1  UNL1       -0.2522
     32 N           6.9698   -3.6843   20.1103 N.am    1  UNL1       -0.2684
     33 H           7.7233   -4.0113   19.5675 H       1  UNL1        0.1564
@<TRIPOS>BOND
     1     1     2    1
     2     2    18    1
     3    18    19    1
     4    18    21    1
     5    21    22   ar
     6    22    23   ar
     7    23    24   ar
     8    24    25   ar
     9    25    26   ar
    10    25    27    1
    11    27    28    1
    12    28    29    1
    13    28    30   am
    14    30    31    2
    15    30    32   am
    16     2     3    1
    17     3     4    1
    18     4     5    1
    19     5     6    1
    20     6     7    1
    21     6    11    1
    22    11    12   ar
    23    12    13   ar
    24    13    14   ar
    25    14    15    1
    26    14    16   ar
    27    16    17   ar
    28     6     8    1
    29     8     9    1
    30    26    21   ar
    31     9     3    1
    32    32    24    1
    33    17    11   ar
    34    19    20    1
    35    32    33    1
    36     7    10    1
@<TRIPOS>MOLECULE
*****
 33 36 0 0 0
SMALL
GASTEIGER

@<TRIPOS>ATOM
      1 C           2.4816    3.8262   22.3454 C.3     1  UNL1        0.0203
      2 C           1.6572    2.6446   21.9280 C.3     1  UNL1        0.0888
      3 N           2.2000    1.6671   20.9280 N.3     1  UNL1       -0.2713
      4 C           2.4155    2.0911   19.5055 C.3     1  UNL1        0.0749
      5 C           2.9583    1.1136   18.5055 C.3     1  UNL1        0.0485
      6 C           3.2855   -0.2879   18.9281 C.3     1  UNL1        0.1096
      7 O           3.6599   -0.3592   17.4773 O.3     1  UNL1       -0.3826
      8 C           3.0700   -0.7120   20.3508 C.3     1  UNL1        0.0485
      9 C           2.5272    0.2655   21.3507 C.3     1  UNL1        0.0749
     10 H           3.4978    0.5007   17.0589 H       1  UNL1        0.2107
     11 C           3.7428   -1.7143   18.8469 C.ar    1  UNL1        0.0019
     12 C           2.8434   -2.8182   19.3184 C.ar    1  UNL1        0.0003
     13 C           3.3006   -4.2445   19.2372 C.ar    1  UNL1        0.0294
     14 C           4.6573   -4.5668   18.6845 C.ar    1  UNL1        0.1401
     15 F           5.1145   -5.9931   18.6033 F       1  UNL1       -0.2042
     16 C           5.5567   -3.4629   18.2130 C.ar    1  UNL1        0.0294
     17 C           5.0995   -2.0366   18.2942 C.ar    1  UNL1        0.0003
     18 C           0.2901    2.4405   22.5104 C.3     1  UNL1        0.1472
     19 O          -0.9064    2.3690   21.6085 O.3     1  UNL1       -0.3787
     20 H          -1.7056    2.2351   22.1417 H       1  UNL1        0.2108
     21 C           0.1194    2.3079   23.9948 C.ar    1  UNL1        0.0054
     22 C          -1.0360    2.9760   24.6795 C.ar    1  UNL1       -0.0007
     23 C          -1.2066    2.8433   26.1638 C.ar    1  UNL1        0.0142
     24 C          -0.2220    2.0427   26.9634 C.ar    1  UNL1        0.0491
     25 C           0.9334    1.3746   26.2787 C.ar    1  UNL1        0.0110
     26 C           1.1040    1.5072   24.7944 C.ar    1  UNL1       -0.0033
     27 C           1.9180    0.5739   27.0783 C.3     1  UNL1        0.1230
     28 N           1.7474    0.4413   28.5626 N.am    1  UNL1       -0.2581
     29 C           2.7320   -0.3594   29.3622 C.3     1  UNL1        0.1168
     30 C           0.5920    1.1094   29.2474 C.2     1  UNL1        0.3080
     31 O           0.4213    0.9767   30.7317 O.2     1  UNL1       -0.2522
     32 N          -0.3927    1.9100   28.4478 N.am    1  UNL1       -0.2684
     33 H          -1.1510    2.3485   28.8972 H       1  UNL1        0.1564
@<TRIPOS>BOND
     1     1     2    1
     2     2    18    1
     3    18    19    1
     4    18    21    1
     5    21    22   ar
     6    22    23   ar
     7    23    24   ar
     8    24    25   ar
     9    25    26   ar
    10    25    27    1
    11    27    28    1
    12    28    29    1
    13    28    30   am
    14    30    31    2
    15    30    32   am
    16     2     3    1
    17     3     4    1
    18     4     5    1
    19     5     6    1
    20     6     7    1
    21     6    11    1
    22    11    12   ar
    23    12    13   ar
    24    13    14   ar
    25    14    15    1
    26    14    16   ar
    27    16    17   ar
    28     6     8    1
    29     8     9    1
    30    26    21   ar
    31     9     3    1
    32    32    24    1
    33    17    11   ar
    34    19    20    1
    35    32    33    1
    36     7    10    1
