@<TRIPOS>MOLECULE
*****
 27 30 0 0 0
SMALL
GASTEIGER

@<TRIPOS>ATOM
      1 C         -11.4473  -18.3600   19.4118 C.3     1  UNL1        0.0523
      2 C         -10.5673  -18.2792   20.6240 C.ar    1  UNL1        0.0653
      3 C          -9.4566  -19.2698   20.8118 C.ar    1  UNL1        0.0490
      4 C          -8.5767  -19.1890   22.0239 C.ar    1  UNL1        0.1342
      5 N          -8.8075  -18.1176   23.0482 N.ar    1  UNL1       -0.1816
      6 N          -8.1078  -17.7911   24.3341 N.ar    1  UNL1       -0.1409
      7 C          -8.7860  -16.5988   24.9411 C.ar    1  UNL1        0.2227
      8 N          -9.9049  -16.1884   24.0302 N.ar    1  UNL1       -0.1880
      9 C          -9.9181  -17.1271   22.8603 C.ar    1  UNL1        0.2552
     10 N         -10.7981  -17.2079   21.6482 N.ar    1  UNL1       -0.2142
     11 C          -8.4112  -15.9336   26.2323 C.3     1  UNL1        0.3163
     12 C          -8.0364  -15.2685   27.5234 C.3     1  UNL1        0.0805
     13 F          -8.8036  -17.1711   26.9837 F       1  UNL1       -0.1962
     14 F          -8.0188  -14.6962   25.4808 F       1  UNL1       -0.1962
     15 N          -7.4661  -20.1795   22.2118 N.pl3   1  UNL1       -0.3192
     16 H          -7.6316  -21.0177   22.7009 H       1  UNL1        0.1482
     17 C          -6.1032  -19.8928   21.6545 C.3     1  UNL1        0.0750
     18 C          -5.5871  -20.6853   20.4902 C.3     1  UNL1        0.0245
     19 C          -4.2244  -20.3987   19.9329 C.3     1  UNL1        0.0278
     20 C          -3.3776  -19.3195   20.5400 C.ar    1  UNL1       -0.0252
     21 C          -2.0148  -19.0328   19.9826 C.ar    1  UNL1        0.0068
     22 C          -1.1681  -17.9537   20.5896 C.ar    1  UNL1        0.0573
     23 CL          0.1947  -17.6670   20.0324 Cl      1  UNL1       -0.0823
     24 C          -1.6842  -17.1612   21.7540 C.ar    1  UNL1        0.0111
     25 C          -3.0470  -17.4478   22.3112 C.ar    1  UNL1       -0.0037
     26 C          -3.8937  -18.5270   21.7042 C.ar    1  UNL1       -0.0244
     27 C          -5.2565  -18.8136   22.2615 C.3     1  UNL1        0.0455
@<TRIPOS>BOND
     1     1     2    1
     2     2     3   ar
     3     3     4   ar
     4     4    15    1
     5    15    17    1
     6    17    18    1
     7    18    19    1
     8    19    20    1
     9    20    21   ar
    10    21    22   ar
    11    22    23    1
    12    22    24   ar
    13    24    25   ar
    14    25    26   ar
    15    26    27    1
    16     4     5   ar
    17     5     6   ar
    18     6     7   ar
    19     7    11    1
    20    11    12    1
    21    11    13    1
    22    11    14    1
    23     7     8   ar
    24     8     9   ar
    25     9    10   ar
    26    10     2   ar
    27    27    17    1
    28     9     5   ar
    29    26    20   ar
    30    15    16    1
@<TRIPOS>MOLECULE
*****
 27 30 0 0 0
SMALL
GASTEIGER

@<TRIPOS>ATOM
      1 C         -11.9113  -17.5128   20.0018 C.3     1  UNL1        0.0523
      2 C         -10.6065  -17.5374   20.7414 C.ar    1  UNL1        0.0653
      3 C          -9.6171  -18.6343   20.4805 C.ar    1  UNL1        0.0490
      4 C          -8.3123  -18.6589   21.2200 C.ar    1  UNL1        0.1342
      5 N          -7.9970  -17.5866   22.2205 N.ar    1  UNL1       -0.1816
      6 N          -6.8017  -17.3503   23.0953 N.ar    1  UNL1       -0.1409
      7 C          -7.0524  -16.1075   23.8969 C.ar    1  UNL1        0.2227
      8 N          -8.4026  -15.5756   23.5174 N.ar    1  UNL1       -0.1880
      9 C          -8.9864  -16.4898   22.4814 C.ar    1  UNL1        0.2552
     10 N         -10.2912  -16.4652   21.7418 N.ar    1  UNL1       -0.2142
     11 C          -6.1169  -15.5026   24.9015 C.3     1  UNL1        0.3163
     12 C          -5.1816  -14.8978   25.9061 C.3     1  UNL1        0.0805
     13 F          -4.9611  -15.7616   23.9813 F       1  UNL1       -0.1962
     14 F          -7.2728  -15.2436   25.8218 F       1  UNL1       -0.1962
     15 N          -7.3229  -19.7556   20.9592 N.pl3   1  UNL1       -0.3192
     16 H          -7.6390  -20.6645   20.7512 H       1  UNL1        0.1482
     17 C          -5.8518  -19.4676   21.0152 C.3     1  UNL1        0.0750
     18 C          -5.0721  -19.7854   22.2566 C.3     1  UNL1        0.0245
     19 C          -3.6011  -19.4974   22.3126 C.3     1  UNL1        0.0278
     20 C          -2.9099  -18.8916   21.1272 C.ar    1  UNL1       -0.0252
     21 C          -1.4388  -18.6036   21.1832 C.ar    1  UNL1        0.0068
     22 C          -0.7475  -17.9979   19.9978 C.ar    1  UNL1        0.0573
     23 CL          0.7235  -17.7099   20.0537 Cl      1  UNL1       -0.0823
     24 C          -1.5273  -17.6801   18.7564 C.ar    1  UNL1        0.0111
     25 C          -2.9983  -17.9681   18.7004 C.ar    1  UNL1       -0.0037
     26 C          -3.6895  -18.5739   19.8858 C.ar    1  UNL1       -0.0244
     27 C          -5.1605  -18.8619   19.8298 C.3     1  UNL1        0.0455
@<TRIPOS>BOND
     1     1     2    1
     2     2     3   ar
     3     3     4   ar
     4     4    15    1
     5    15    17    1
     6    17    18    1
     7    18    19    1
     8    19    20    1
     9    20    21   ar
    10    21    22   ar
    11    22    23    1
    12    22    24   ar
    13    24    25   ar
    14    25    26   ar
    15    26    27    1
    16     4     5   ar
    17     5     6   ar
    18     6     7   ar
    19     7    11    1
    20    11    12    1
    21    11    13    1
    22    11    14    1
    23     7     8   ar
    24     8     9   ar
    25     9    10   ar
    26    10     2   ar
    27    27    17    1
    28     9     5   ar
    29    26    20   ar
    30    15    16    1
@<TRIPOS>MOLECULE
*****
 27 30 0 0 0
SMALL
GASTEIGER

@<TRIPOS>ATOM
      1 C          -6.4753  -14.7439   26.9902 C.3     1  UNL1        0.0523
      2 C          -6.1779  -15.4890   25.7228 C.ar    1  UNL1        0.0653
      3 C          -7.1366  -15.4225   24.5710 C.ar    1  UNL1        0.0490
      4 C          -6.8392  -16.1676   23.3036 C.ar    1  UNL1        0.1342
      5 N          -5.5830  -16.9793   23.1879 N.ar    1  UNL1       -0.1816
      6 N          -5.0263  -17.8135   22.0726 N.ar    1  UNL1       -0.1409
      7 C          -3.7234  -18.3957   22.5350 C.ar    1  UNL1        0.2227
      8 N          -3.4751  -17.9212   23.9362 N.ar    1  UNL1       -0.1880
      9 C          -4.6244  -17.0458   24.3397 C.ar    1  UNL1        0.2552
     10 N          -4.9218  -16.3007   25.6071 N.ar    1  UNL1       -0.2142
     11 C          -2.8265  -19.2945   21.7365 C.3     1  UNL1        0.3163
     12 C          -1.9296  -20.1933   20.9379 C.3     1  UNL1        0.0805
     13 F          -1.6244  -18.6449   22.3553 F       1  UNL1       -0.1962
     14 F          -4.0285  -19.9441   21.1176 F       1  UNL1       -0.1962
     15 N          -7.7978  -16.1011   22.1518 N.pl3   1  UNL1       -0.3192
     16 H          -7.4743  -15.8527   21.2558 H       1  UNL1        0.1482
     17 C          -9.2495  -16.4130   22.3653 C.3     1  UNL1        0.0750
     18 C         -10.2883  -15.7911   21.4799 C.3     1  UNL1        0.0245
     19 C         -11.7398  -16.1030   21.6934 C.3     1  UNL1        0.0278
     20 C         -12.1526  -17.0369   22.7922 C.ar    1  UNL1       -0.0252
     21 C         -13.6042  -17.3488   23.0057 C.ar    1  UNL1        0.0068
     22 C         -14.0170  -18.2827   24.1045 C.ar    1  UNL1        0.0573
     23 CL        -15.4685  -18.5947   24.3180 Cl      1  UNL1       -0.0823
     24 C         -12.9780  -18.9047   24.9900 C.ar    1  UNL1        0.0111
     25 C         -11.5265  -18.5927   24.7765 C.ar    1  UNL1       -0.0037
     26 C         -11.1137  -17.6588   23.6776 C.ar    1  UNL1       -0.0244
     27 C          -9.6622  -17.3469   23.4642 C.3     1  UNL1        0.0455
@<TRIPOS>BOND
     1     1     2    1
     2     2     3   ar
     3     3     4   ar
     4     4    15    1
     5    15    17    1
     6    17    18    1
     7    18    19    1
     8    19    20    1
     9    20    21   ar
    10    21    22   ar
    11    22    23    1
    12    22    24   ar
    13    24    25   ar
    14    25    26   ar
    15    26    27    1
    16     4     5   ar
    17     5     6   ar
    18     6     7   ar
    19     7    11    1
    20    11    12    1
    21    11    13    1
    22    11    14    1
    23     7     8   ar
    24     8     9   ar
    25     9    10   ar
    26    10     2   ar
    27    27    17    1
    28     9     5   ar
    29    26    20   ar
    30    15    16    1
@<TRIPOS>MOLECULE
*****
 27 30 0 0 0
SMALL
GASTEIGER

@<TRIPOS>ATOM
      1 C          -5.9734  -15.0825   25.9310 C.3     1  UNL1        0.0523
      2 C          -5.5044  -15.8608   24.7375 C.ar    1  UNL1        0.0653
      3 C          -6.4660  -16.7325   23.9855 C.ar    1  UNL1        0.0490
      4 C          -5.9970  -17.5108   22.7920 C.ar    1  UNL1        0.1342
      5 N          -4.5664  -17.4174   22.3507 N.ar    1  UNL1       -0.1816
      6 N          -3.8206  -18.0628   21.2206 N.ar    1  UNL1       -0.1409
      7 C          -2.3981  -17.5901   21.2742 C.ar    1  UNL1        0.2227
      8 N          -2.2648  -16.6525   22.4375 N.ar    1  UNL1       -0.1880
      9 C          -3.6049  -16.5457   23.1027 C.ar    1  UNL1        0.2552
     10 N          -4.0739  -15.7674   24.2962 N.ar    1  UNL1       -0.2142
     11 C          -1.3013  -17.9856   20.3303 C.3     1  UNL1        0.3163
     12 C          -0.2047  -18.3810   19.3865 C.3     1  UNL1        0.0805
     13 F          -1.7962  -19.4014   20.3485 F       1  UNL1       -0.1962
     14 F          -0.8065  -16.5697   20.3122 F       1  UNL1       -0.1962
     15 N          -6.9586  -18.3824   22.0400 N.pl3   1  UNL1       -0.3192
     16 H          -6.6745  -18.8247   21.2075 H       1  UNL1        0.1482
     17 C          -8.3530  -18.5803   22.5562 C.3     1  UNL1        0.0750
     18 C          -8.7028  -19.8275   23.3125 C.3     1  UNL1        0.0245
     19 C         -10.0972  -20.0253   23.8287 C.3     1  UNL1        0.0278
     20 C         -11.1418  -18.9759   23.5886 C.ar    1  UNL1       -0.0252
     21 C         -12.5363  -19.1738   24.1048 C.ar    1  UNL1        0.0068
     22 C         -13.5808  -18.1244   23.8646 C.ar    1  UNL1        0.0573
     23 CL        -14.9752  -18.3222   24.3808 Cl      1  UNL1       -0.0823
     24 C         -13.2310  -16.8772   23.1082 C.ar    1  UNL1        0.0111
     25 C         -11.8366  -16.6794   22.5921 C.ar    1  UNL1       -0.0037
     26 C         -10.7920  -17.7287   22.8322 C.ar    1  UNL1       -0.0244
     27 C          -9.3976  -17.5309   22.3160 C.3     1  UNL1        0.0455
@<TRIPOS>BOND
     1     1     2    1
     2     2     3   ar
     3     3     4   ar
     4     4    15    1
     5    15    17    1
     6    17    18    1
     7    18    19    1
     8    19    20    1
     9    20    21   ar
    10    21    22   ar
    11    22    23    1
    12    22    24   ar
    13    24    25   ar
    14    25    26   ar
    15    26    27    1
    16     4     5   ar
    17     5     6   ar
    18     6     7   ar
    19     7    11    1
    20    11    12    1
    21    11    13    1
    22    11    14    1
    23     7     8   ar
    24     8     9   ar
    25     9    10   ar
    26    10     2   ar
    27    27    17    1
    28     9     5   ar
    29    26    20   ar
    30    15    16    1
@<TRIPOS>MOLECULE
*****
 27 30 0 0 0
SMALL
GASTEIGER

@<TRIPOS>ATOM
      1 C          -3.7892    3.8388   15.9825 C.3     1  UNL1        0.0523
      2 C          -3.3218    3.7718   17.4063 C.ar    1  UNL1        0.0653
      3 C          -1.8561    3.6757   17.7108 C.ar    1  UNL1        0.0490
      4 C          -1.3887    3.6087   19.1345 C.ar    1  UNL1        0.1342
      5 N          -2.3870    3.6379   20.2538 N.ar    1  UNL1       -0.1816
      6 N          -2.2256    3.5874   21.7442 N.ar    1  UNL1       -0.1409
      7 C          -3.5914    3.6524   22.3608 C.ar    1  UNL1        0.2227
      8 N          -4.5970    3.7430   21.2515 N.ar    1  UNL1       -0.1880
      9 C          -3.8526    3.7340   19.9492 C.ar    1  UNL1        0.2552
     10 N          -4.3200    3.8010   18.5255 N.ar    1  UNL1       -0.2142
     11 C          -3.8979    3.6306   23.8290 C.3     1  UNL1        0.3163
     12 C          -4.2044    3.6087   25.2972 C.3     1  UNL1        0.0805
     13 F          -2.8526    4.6806   24.0629 F       1  UNL1       -0.1962
     14 F          -4.9432    2.5805   23.5952 F       1  UNL1       -0.1962
     15 N           0.0768    3.5126   19.4390 N.pl3   1  UNL1       -0.3192
     16 H           0.6038    4.3311   19.5861 H       1  UNL1        0.1482
     17 C           0.7397    2.1694   19.5195 C.3     1  UNL1        0.0750
     18 C           0.3001    1.1769   20.5548 C.3     1  UNL1        0.0245
     19 C           0.9629   -0.1662   20.6352 C.3     1  UNL1        0.0278
     20 C           2.0653   -0.5170   19.6804 C.ar    1  UNL1       -0.0252
     21 C           2.7281   -1.8603   19.7608 C.ar    1  UNL1        0.0068
     22 C           3.8305   -2.2110   18.8060 C.ar    1  UNL1        0.0573
     23 CL          4.4933   -3.5542   18.8864 Cl      1  UNL1       -0.0823
     24 C           4.2700   -1.2185   17.7707 C.ar    1  UNL1        0.0111
     25 C           3.6072    0.1247   17.6902 C.ar    1  UNL1       -0.0037
     26 C           2.5048    0.4754   18.6451 C.ar    1  UNL1       -0.0244
     27 C           1.8420    1.8186   18.5647 C.3     1  UNL1        0.0455
@<TRIPOS>BOND
     1     1     2    1
     2     2     3   ar
     3     3     4   ar
     4     4    15    1
     5    15    17    1
     6    17    18    1
     7    18    19    1
     8    19    20    1
     9    20    21   ar
    10    21    22   ar
    11    22    23    1
    12    22    24   ar
    13    24    25   ar
    14    25    26   ar
    15    26    27    1
    16     4     5   ar
    17     5     6   ar
    18     6     7   ar
    19     7    11    1
    20    11    12    1
    21    11    13    1
    22    11    14    1
    23     7     8   ar
    24     8     9   ar
    25     9    10   ar
    26    10     2   ar
    27    27    17    1
    28     9     5   ar
    29    26    20   ar
    30    15    16    1
@<TRIPOS>MOLECULE
*****
 27 30 0 0 0
SMALL
GASTEIGER

@<TRIPOS>ATOM
      1 C          -0.2378    3.4552   25.0173 C.3     1  UNL1        0.0523
      2 C          -0.9138    3.4103   23.6790 C.ar    1  UNL1        0.0653
      3 C          -0.1047    3.1772   22.4375 C.ar    1  UNL1        0.0490
      4 C          -0.7807    3.1322   21.0992 C.ar    1  UNL1        0.1342
      5 N          -2.2658    3.3203   21.0024 N.ar    1  UNL1       -0.1816
      6 N          -3.2023    3.3269   19.8308 N.ar    1  UNL1       -0.1409
      7 C          -4.5902    3.5641   20.3481 C.ar    1  UNL1        0.2227
      8 N          -4.5113    3.7040   21.8395 N.ar    1  UNL1       -0.1880
      9 C          -3.0748    3.5534   22.2438 C.ar    1  UNL1        0.2552
     10 N          -2.3988    3.5984   23.5821 N.ar    1  UNL1       -0.2142
     11 C          -5.8379    3.6467   19.5195 C.3     1  UNL1        0.3163
     12 C          -7.0855    3.7294   18.6910 C.3     1  UNL1        0.0805
     13 F          -5.0539    3.2609   18.3003 F       1  UNL1       -0.1962
     14 F          -6.6219    4.0325   20.7386 F       1  UNL1       -0.1962
     15 N           0.0282    2.8992   19.8578 N.pl3   1  UNL1       -0.3192
     16 H           0.0188    3.5643   19.1320 H       1  UNL1        0.1482
     17 C           0.8516    1.6527   19.7221 C.3     1  UNL1        0.0750
     18 C           0.5018    0.4321   20.5207 C.3     1  UNL1        0.0245
     19 C           1.3251   -0.8143   20.3850 C.3     1  UNL1        0.0278
     20 C           2.4984   -0.8402   19.4508 C.ar    1  UNL1       -0.0252
     21 C           3.3218   -2.0867   19.3151 C.ar    1  UNL1        0.0068
     22 C           4.4950   -2.1125   18.3809 C.ar    1  UNL1        0.0573
     23 CL          5.3184   -3.3589   18.2452 Cl      1  UNL1       -0.0823
     24 C           4.8449   -0.8919   17.5823 C.ar    1  UNL1        0.0111
     25 C           4.0215    0.3546   17.7179 C.ar    1  UNL1       -0.0037
     26 C           2.8482    0.3804   18.6522 C.ar    1  UNL1       -0.0244
     27 C           2.0249    1.6268   18.7879 C.3     1  UNL1        0.0455
@<TRIPOS>BOND
     1     1     2    1
     2     2     3   ar
     3     3     4   ar
     4     4    15    1
     5    15    17    1
     6    17    18    1
     7    18    19    1
     8    19    20    1
     9    20    21   ar
    10    21    22   ar
    11    22    23    1
    12    22    24   ar
    13    24    25   ar
    14    25    26   ar
    15    26    27    1
    16     4     5   ar
    17     5     6   ar
    18     6     7   ar
    19     7    11    1
    20    11    12    1
    21    11    13    1
    22    11    14    1
    23     7     8   ar
    24     8     9   ar
    25     9    10   ar
    26    10     2   ar
    27    27    17    1
    28     9     5   ar
    29    26    20   ar
    30    15    16    1
@<TRIPOS>MOLECULE
*****
 27 30 0 0 0
SMALL
GASTEIGER

@<TRIPOS>ATOM
      1 C           5.9601    3.6278   25.3573 C.3     1  UNL1        0.0523
      2 C           4.5970    3.0079   25.4442 C.ar    1  UNL1        0.0653
      3 C           3.8176    2.7313   24.1927 C.ar    1  UNL1        0.0490
      4 C           2.4545    2.1114   24.2796 C.ar    1  UNL1        0.1342
      5 N           1.8707    1.7680   25.6181 N.ar    1  UNL1       -0.1816
      6 N           0.5609    1.1536   26.0139 N.ar    1  UNL1       -0.1409
      7 C           0.5307    1.0504   27.5101 C.ar    1  UNL1        0.2227
      8 N           1.8219    1.6010   28.0388 N.ar    1  UNL1       -0.1880
      9 C           2.6501    2.0445   26.8695 C.ar    1  UNL1        0.2552
     10 N           4.0132    2.6645   26.7826 N.ar    1  UNL1       -0.2142
     11 C          -0.5934    0.4941   28.3330 C.3     1  UNL1        0.3163
     12 C          -1.7175   -0.0620   29.1558 C.3     1  UNL1        0.0805
     13 F           0.3423   -0.5155   28.9288 F       1  UNL1       -0.1962
     14 F          -1.5291    1.5038   27.7372 F       1  UNL1       -0.1962
     15 N           1.6752    1.8349   23.0282 N.pl3   1  UNL1       -0.3192
     16 H           0.9046    2.4007   22.7930 H       1  UNL1        0.1482
     17 C           2.0698    0.6961   22.1351 C.3     1  UNL1        0.0750
     18 C           1.5717    0.6445   20.7212 C.3     1  UNL1        0.0245
     19 C           1.9664   -0.4942   19.8281 C.3     1  UNL1        0.0278
     20 C           2.8592   -1.5812   20.3489 C.ar    1  UNL1       -0.0252
     21 C           3.2539   -2.7199   19.4557 C.ar    1  UNL1        0.0068
     22 C           4.1467   -3.8069   19.9766 C.ar    1  UNL1        0.0573
     23 CL          4.5414   -4.9455   19.0835 Cl      1  UNL1       -0.0823
     24 C           4.6449   -3.7552   21.3905 C.ar    1  UNL1        0.0111
     25 C           4.2502   -2.6165   22.2836 C.ar    1  UNL1       -0.0037
     26 C           3.3574   -1.5295   21.7628 C.ar    1  UNL1       -0.0244
     27 C           2.9627   -0.3909   22.6559 C.3     1  UNL1        0.0455
@<TRIPOS>BOND
     1     1     2    1
     2     2     3   ar
     3     3     4   ar
     4     4    15    1
     5    15    17    1
     6    17    18    1
     7    18    19    1
     8    19    20    1
     9    20    21   ar
    10    21    22   ar
    11    22    23    1
    12    22    24   ar
    13    24    25   ar
    14    25    26   ar
    15    26    27    1
    16     4     5   ar
    17     5     6   ar
    18     6     7   ar
    19     7    11    1
    20    11    12    1
    21    11    13    1
    22    11    14    1
    23     7     8   ar
    24     8     9   ar
    25     9    10   ar
    26    10     2   ar
    27    27    17    1
    28     9     5   ar
    29    26    20   ar
    30    15    16    1
@<TRIPOS>MOLECULE
*****
 27 30 0 0 0
SMALL
GASTEIGER

@<TRIPOS>ATOM
      1 C          -1.2492    1.1001   28.0220 C.3     1  UNL1        0.0523
      2 C           0.1721    0.7108   28.3021 C.ar    1  UNL1        0.0653
      3 C           1.2357    0.9655   27.2754 C.ar    1  UNL1        0.0490
      4 C           2.6570    0.5762   27.5554 C.ar    1  UNL1        0.1342
      5 N           3.0146   -0.0678   28.8621 N.ar    1  UNL1       -0.1816
      6 N           4.3201   -0.5564   29.4161 N.ar    1  UNL1       -0.1409
      7 C           4.0634   -1.1131   30.7851 C.ar    1  UNL1        0.2227
      8 N           2.5992   -0.9685   31.0772 N.ar    1  UNL1       -0.1880
      9 C           1.9511   -0.3224   29.8887 C.ar    1  UNL1        0.2552
     10 N           0.5298    0.0669   29.6087 N.ar    1  UNL1       -0.2142
     11 C           5.0905   -1.7097   31.7012 C.3     1  UNL1        0.3163
     12 C           6.1176   -2.3062   32.6173 C.3     1  UNL1        0.0805
     13 F           6.0345   -1.8597   30.5452 F       1  UNL1       -0.1962
     14 F           4.1466   -1.5596   32.8572 F       1  UNL1       -0.1962
     15 N           3.7205    0.8309   26.5288 N.pl3   1  UNL1       -0.3192
     16 H           4.3274    1.5996   26.6290 H       1  UNL1        0.1482
     17 C           3.8595   -0.0857   25.3495 C.3     1  UNL1        0.0750
     18 C           4.7204   -1.3100   25.4485 C.3     1  UNL1        0.0245
     19 C           4.8593   -2.2265   24.2693 C.3     1  UNL1        0.0278
     20 C           4.1373   -1.9187   22.9910 C.ar    1  UNL1       -0.0252
     21 C           4.2762   -2.8352   21.8117 C.ar    1  UNL1        0.0068
     22 C           3.5542   -2.5274   20.5334 C.ar    1  UNL1        0.0573
     23 CL          3.6931   -3.4439   19.3542 Cl      1  UNL1       -0.0823
     24 C           2.6933   -1.3030   20.4345 C.ar    1  UNL1        0.0111
     25 C           2.5543   -0.3865   21.6138 C.ar    1  UNL1       -0.0037
     26 C           3.2764   -0.6944   22.8920 C.ar    1  UNL1       -0.0244
     27 C           3.1374    0.2221   24.0713 C.3     1  UNL1        0.0455
@<TRIPOS>BOND
     1     1     2    1
     2     2     3   ar
     3     3     4   ar
     4     4    15    1
     5    15    17    1
     6    17    18    1
     7    18    19    1
     8    19    20    1
     9    20    21   ar
    10    21    22   ar
    11    22    23    1
    12    22    24   ar
    13    24    25   ar
    14    25    26   ar
    15    26    27    1
    16     4     5   ar
    17     5     6   ar
    18     6     7   ar
    19     7    11    1
    20    11    12    1
    21    11    13    1
    22    11    14    1
    23     7     8   ar
    24     8     9   ar
    25     9    10   ar
    26    10     2   ar
    27    27    17    1
    28     9     5   ar
    29    26    20   ar
    30    15    16    1
@<TRIPOS>MOLECULE
*****
 27 30 0 0 0
SMALL
GASTEIGER

@<TRIPOS>ATOM
      1 C           2.7092   -0.9151   30.5771 C.3     1  UNL1        0.0523
      2 C           2.2913   -0.2192   29.3158 C.ar    1  UNL1        0.0653
      3 C           3.2737   -0.0421   28.1960 C.ar    1  UNL1        0.0490
      4 C           2.8557    0.6538   26.9347 C.ar    1  UNL1        0.1342
      5 N           1.4554    1.1728   26.7931 N.ar    1  UNL1       -0.1816
      6 N           0.7607    1.8945   25.6767 N.ar    1  UNL1       -0.1409
      7 C          -0.6510    2.1636   26.1065 C.ar    1  UNL1        0.2227
      8 N          -0.8287    1.6081   27.4884 N.ar    1  UNL1       -0.1880
      9 C           0.4732    0.9957   27.9128 C.ar    1  UNL1        0.2552
     10 N           0.8911    0.2998   29.1741 N.ar    1  UNL1       -0.2142
     11 C          -1.7007    2.8651   25.2964 C.3     1  UNL1        0.3163
     12 C          -2.7504    3.5665   24.4864 C.3     1  UNL1        0.0805
     13 F          -2.5030    3.1023   26.5414 F       1  UNL1       -0.1962
     14 F          -0.8985    2.6278   24.0514 F       1  UNL1       -0.1962
     15 N           3.8380    0.8309   25.8150 N.pl3   1  UNL1       -0.3192
     16 H           4.4058    1.6344   25.7807 H       1  UNL1        0.1482
     17 C           3.9551   -0.2164   24.7474 C.3     1  UNL1        0.0750
     18 C           4.7119   -1.4827   25.0189 C.3     1  UNL1        0.0245
     19 C           4.8290   -2.5299   23.9513 C.3     1  UNL1        0.0278
     20 C           4.1894   -2.3107   22.6124 C.ar    1  UNL1       -0.0252
     21 C           4.3065   -3.3579   21.5448 C.ar    1  UNL1        0.0068
     22 C           3.6669   -3.1388   20.2058 C.ar    1  UNL1        0.0573
     23 CL          3.7841   -4.1859   19.1383 Cl      1  UNL1       -0.0823
     24 C           2.9102   -1.8724   19.9344 C.ar    1  UNL1        0.0111
     25 C           2.7931   -0.8252   21.0019 C.ar    1  UNL1       -0.0037
     26 C           3.4327   -1.0444   22.3409 C.ar    1  UNL1       -0.0244
     27 C           3.3155    0.0028   23.4085 C.3     1  UNL1        0.0455
@<TRIPOS>BOND
     1     1     2    1
     2     2     3   ar
     3     3     4   ar
     4     4    15    1
     5    15    17    1
     6    17    18    1
     7    18    19    1
     8    19    20    1
     9    20    21   ar
    10    21    22   ar
    11    22    23    1
    12    22    24   ar
    13    24    25   ar
    14    25    26   ar
    15    26    27    1
    16     4     5   ar
    17     5     6   ar
    18     6     7   ar
    19     7    11    1
    20    11    12    1
    21    11    13    1
    22    11    14    1
    23     7     8   ar
    24     8     9   ar
    25     9    10   ar
    26    10     2   ar
    27    27    17    1
    28     9     5   ar
    29    26    20   ar
    30    15    16    1
