@<TRIPOS>MOLECULE
*****
 25 27 0 0 0
SMALL
GASTEIGER

@<TRIPOS>ATOM
      1 N          -8.9870  -19.6827   19.6667 N.am    1  UNL1       -0.3004
      2 C          -7.7145  -19.1721   20.2752 C.2     1  UNL1        0.2252
      3 O          -7.6661  -17.7947   20.8670 O.2     1  UNL1       -0.2750
      4 H          -9.0188  -20.5868   19.2782 H       1  UNL1        0.1497
      5 C         -10.2110  -18.8158   19.6500 C.3     1  UNL1        0.1164
      6 C         -11.3584  -19.0578   23.4414 C.ar    1  UNL1        0.1385
      7 C         -12.5148  -18.1025   23.4492 C.ar    1  UNL1        0.0369
      8 C         -12.9033  -17.3850   22.1905 C.ar    1  UNL1        0.0028
      9 C         -12.1353  -17.6227   20.9242 C.ar    1  UNL1       -0.0024
     10 C         -10.9789  -18.5780   20.9164 C.ar    1  UNL1        0.0004
     11 C         -10.5904  -19.2956   22.1750 C.ar    1  UNL1        0.0343
     12 C          -9.7248  -20.6111   24.7330 C.3     1  UNL1        0.2525
     13 O         -10.9699  -19.7753   24.7001 O.3     1  UNL1       -0.4714
     14 C          -6.4905  -20.0390   20.2919 C.3     1  UNL1        0.1154
     15 C          -5.4683  -19.8725   21.3769 C.3     1  UNL1        0.1377
     16 C          -6.5318  -20.4648   22.2532 C.3     1  UNL1        0.0335
     17 C          -4.6184  -19.3149   20.2738 C.3     1  UNL1        0.0613
     18 C          -3.2932  -18.9276   20.8602 C.3     1  UNL1        0.1290
     19 C          -2.0237  -18.5905   21.5845 C.3     1  UNL1        0.0305
     20 C          -0.8702  -17.9904   20.8367 C.3     1  UNL1        0.0025
     21 C          -0.9862  -17.7273   19.3645 C.3     1  UNL1        0.0002
     22 C          -2.2557  -18.0644   18.6402 C.3     1  UNL1        0.0025
     23 C          -3.4091  -18.6645   19.3880 C.3     1  UNL1        0.0305
     24 O          -3.3240  -19.2457   22.3257 O.3     1  UNL1       -0.2256
     25 O          -4.6684  -19.8297   22.6451 O.3     1  UNL1       -0.2251
@<TRIPOS>BOND
     1    12    13    1
     2    13     6    1
     3     6     7   ar
     4     7     8   ar
     5     8     9   ar
     6     9    10   ar
     7    10     5    1
     8     5     1    1
     9     1     2   am
    10     2     3    2
    11     2    14    1
    12    14    15    1
    13    15    16    1
    14    15    17    1
    15    17    18    1
    16    18    19    1
    17    19    20    1
    18    20    21    1
    19    21    22    1
    20    22    23    1
    21    18    24    1
    22    24    25    1
    23    10    11   ar
    24    11     6   ar
    25    25    15    1
    26    23    18    1
    27     1     4    1
@<TRIPOS>MOLECULE
*****
 25 27 0 0 0
SMALL
GASTEIGER

@<TRIPOS>ATOM
      1 N          -6.9529  -18.4436   20.2107 N.am    1  UNL1       -0.3004
      2 C          -7.9426  -18.7309   21.3007 C.2     1  UNL1        0.2252
      3 O          -7.7644  -19.9348   22.1773 O.2     1  UNL1       -0.2750
      4 H          -7.0699  -17.6534   19.6352 H       1  UNL1        0.1497
      5 C          -5.7849  -19.3604   19.9975 C.3     1  UNL1        0.1164
      6 C          -1.8993  -18.8306   20.6065 C.ar    1  UNL1        0.1385
      7 C          -1.8790  -18.5496   22.0797 C.ar    1  UNL1        0.0369
      8 C          -3.1606  -18.5389   22.8590 C.ar    1  UNL1        0.0028
      9 C          -4.4626  -18.8091   22.1649 C.ar    1  UNL1       -0.0024
     10 C          -4.4829  -19.0901   20.6916 C.ar    1  UNL1        0.0004
     11 C          -3.2013  -19.1009   19.9123 C.ar    1  UNL1        0.0343
     12 C           0.3349  -17.6876   19.9344 C.3     1  UNL1        0.2525
     13 O          -0.6176  -18.8413   19.8273 O.3     1  UNL1       -0.4714
     14 C          -9.1106  -17.8141   21.5138 C.3     1  UNL1        0.1154
     15 C          -9.5543  -17.4761   22.9062 C.3     1  UNL1        0.1377
     16 C         -10.8612  -18.0645   22.4638 C.3     1  UNL1        0.0335
     17 C          -8.1546  -16.9584   23.0576 C.3     1  UNL1        0.0613
     18 C          -8.0064  -16.4233   24.4511 C.3     1  UNL1        0.1290
     19 C          -8.0078  -15.9300   25.8676 C.3     1  UNL1        0.0305
     20 C          -6.7691  -15.3158   26.4491 C.3     1  UNL1        0.0025
     21 C          -5.5289  -15.1948   25.6140 C.3     1  UNL1        0.0002
     22 C          -5.5274  -15.6882   24.1975 C.3     1  UNL1        0.0025
     23 C          -6.7662  -16.3024   23.6160 C.3     1  UNL1        0.0305
     24 O          -9.3145  -16.6104   25.1610 O.3     1  UNL1       -0.2256
     25 O         -10.2712  -17.2611   24.2062 O.3     1  UNL1       -0.2251
@<TRIPOS>BOND
     1    12    13    1
     2    13     6    1
     3     6     7   ar
     4     7     8   ar
     5     8     9   ar
     6     9    10   ar
     7    10     5    1
     8     5     1    1
     9     1     2   am
    10     2     3    2
    11     2    14    1
    12    14    15    1
    13    15    16    1
    14    15    17    1
    15    17    18    1
    16    18    19    1
    17    19    20    1
    18    20    21    1
    19    21    22    1
    20    22    23    1
    21    18    24    1
    22    24    25    1
    23    10    11   ar
    24    11     6   ar
    25    25    15    1
    26    23    18    1
    27     1     4    1
@<TRIPOS>MOLECULE
*****
 25 27 0 0 0
SMALL
GASTEIGER

@<TRIPOS>ATOM
      1 N          -7.4280  -18.2032   23.1350 N.am    1  UNL1       -0.3004
      2 C          -6.8930  -18.7387   21.8399 C.2     1  UNL1        0.2252
      3 O          -7.2936  -18.1018   20.5424 O.2     1  UNL1       -0.2750
      4 H          -7.1651  -18.6213   23.9867 H       1  UNL1        0.1497
      5 C          -8.3636  -17.0307   23.1324 C.3     1  UNL1        0.1164
      6 C         -11.9144  -17.0241   21.3598 C.ar    1  UNL1        0.1385
      7 C         -12.7615  -17.6632   22.4198 C.ar    1  UNL1        0.0369
      8 C         -12.1428  -18.0916   23.7173 C.ar    1  UNL1        0.0028
      9 C         -10.6768  -17.8808   23.9548 C.ar    1  UNL1       -0.0024
     10 C          -9.8296  -17.2416   22.8948 C.ar    1  UNL1        0.0004
     11 C         -10.4483  -16.8132   21.5973 C.ar    1  UNL1        0.0343
     12 C         -11.8190  -15.6169   19.1779 C.3     1  UNL1        0.2525
     13 O         -12.5331  -16.5957   20.0623 O.3     1  UNL1       -0.4714
     14 C          -5.9574  -19.9112   21.8425 C.3     1  UNL1        0.1154
     15 C          -4.9823  -20.0950   20.7178 C.3     1  UNL1        0.1377
     16 C          -5.8907  -21.2214   20.3231 C.3     1  UNL1        0.0335
     17 C          -4.2776  -18.9302   21.3475 C.3     1  UNL1        0.0613
     18 C          -3.0568  -18.6294   20.5295 C.3     1  UNL1        0.1290
     19 C          -1.8787  -18.4482   19.6189 C.3     1  UNL1        0.0305
     20 C          -0.8826  -17.3596   19.8888 C.3     1  UNL1        0.0025
     21 C          -1.0647  -16.4523   21.0693 C.3     1  UNL1        0.0002
     22 C          -2.2428  -16.6335   21.9799 C.3     1  UNL1        0.0025
     23 C          -3.2388  -17.7221   21.7100 C.3     1  UNL1        0.0305
     24 O          -3.0069  -19.6084   19.3941 O.3     1  UNL1       -0.2256
     25 O          -4.1969  -20.5143   19.5104 O.3     1  UNL1       -0.2251
@<TRIPOS>BOND
     1    12    13    1
     2    13     6    1
     3     6     7   ar
     4     7     8   ar
     5     8     9   ar
     6     9    10   ar
     7    10     5    1
     8     5     1    1
     9     1     2   am
    10     2     3    2
    11     2    14    1
    12    14    15    1
    13    15    16    1
    14    15    17    1
    15    17    18    1
    16    18    19    1
    17    19    20    1
    18    20    21    1
    19    21    22    1
    20    22    23    1
    21    18    24    1
    22    24    25    1
    23    10    11   ar
    24    11     6   ar
    25    25    15    1
    26    23    18    1
    27     1     4    1
@<TRIPOS>MOLECULE
*****
 25 27 0 0 0
SMALL
GASTEIGER

@<TRIPOS>ATOM
      1 N          -5.7330  -16.3923   23.7245 N.am    1  UNL1       -0.3004
      2 C          -6.2229  -15.4066   24.7436 C.2     1  UNL1        0.2252
      3 O          -5.2418  -14.5703   25.5103 O.2     1  UNL1       -0.2750
      4 H          -6.3770  -16.9412   23.2212 H       1  UNL1        0.1497
      5 C          -4.2620  -16.5415   23.4722 C.3     1  UNL1        0.1164
      6 C          -1.8940  -18.6985   21.1290 C.ar    1  UNL1        0.1385
      7 C          -2.7513  -19.9067   20.8948 C.ar    1  UNL1        0.0369
      8 C          -4.1122  -19.9933   21.5196 C.ar    1  UNL1        0.0028
      9 C          -4.6158  -18.8716   22.3788 C.ar    1  UNL1       -0.0024
     10 C          -3.7584  -17.6632   22.6130 C.ar    1  UNL1        0.0004
     11 C          -2.3975  -17.5766   21.9882 C.ar    1  UNL1        0.0343
     12 C          -0.0030  -17.2869   20.0421 C.3     1  UNL1        0.2525
     13 O          -0.5331  -18.6118   20.5042 O.3     1  UNL1       -0.4714
     14 C          -7.6941  -15.2573   24.9959 C.3     1  UNL1        0.1154
     15 C          -8.4676  -16.3852   25.6118 C.3     1  UNL1        0.1377
     16 C          -8.0730  -15.7401   26.9072 C.3     1  UNL1        0.0335
     17 C          -8.7004  -16.7945   24.1876 C.3     1  UNL1        0.0613
     18 C          -9.5354  -18.0407   24.1941 C.3     1  UNL1        0.1290
     19 C         -10.3686  -19.2773   24.3572 C.3     1  UNL1        0.0305
     20 C         -10.8379  -20.0304   23.1479 C.3     1  UNL1        0.0025
     21 C         -10.4742  -19.5468   21.7754 C.3     1  UNL1        0.0002
     22 C          -9.6410  -18.3102   21.6122 C.3     1  UNL1        0.0025
     23 C          -9.1717  -17.5572   22.8215 C.3     1  UNL1        0.0305
     24 O          -9.8186  -18.4016   25.6222 O.3     1  UNL1       -0.2256
     25 O          -9.1586  -17.3784   26.4985 O.3     1  UNL1       -0.2251
@<TRIPOS>BOND
     1    12    13    1
     2    13     6    1
     3     6     7   ar
     4     7     8   ar
     5     8     9   ar
     6     9    10   ar
     7    10     5    1
     8     5     1    1
     9     1     2   am
    10     2     3    2
    11     2    14    1
    12    14    15    1
    13    15    16    1
    14    15    17    1
    15    17    18    1
    16    18    19    1
    17    19    20    1
    18    20    21    1
    19    21    22    1
    20    22    23    1
    21    18    24    1
    22    24    25    1
    23    10    11   ar
    24    11     6   ar
    25    25    15    1
    26    23    18    1
    27     1     4    1
@<TRIPOS>MOLECULE
*****
 25 27 0 0 0
SMALL
GASTEIGER

@<TRIPOS>ATOM
      1 N          -7.9137  -19.5706   21.3953 N.am    1  UNL1       -0.3004
      2 C          -9.1272  -18.8878   20.8375 C.2     1  UNL1        0.2252
      3 O          -9.2308  -18.6280   19.3639 O.2     1  UNL1       -0.2750
      4 H          -7.8457  -19.7411   22.3625 H       1  UNL1        0.1497
      5 C          -6.8037  -19.9935   20.4793 C.3     1  UNL1        0.1164
      6 C          -3.6360  -18.5588   22.3918 C.ar    1  UNL1        0.1385
      7 C          -2.5228  -19.1954   21.6139 C.ar    1  UNL1        0.0369
      8 C          -2.8365  -20.0982   20.4578 C.ar    1  UNL1        0.0028
      9 C          -4.2634  -20.3642   20.0796 C.ar    1  UNL1       -0.0024
     10 C          -5.3767  -19.7275   20.8575 C.ar    1  UNL1        0.0004
     11 C          -5.0631  -18.8248   22.0137 C.ar    1  UNL1        0.0343
     12 C          -4.3321  -16.6458   24.0061 C.3     1  UNL1        0.2525
     13 O          -3.3224  -17.6560   23.5480 O.3     1  UNL1       -0.4714
     14 C         -10.2373  -18.4648   21.7535 C.3     1  UNL1        0.1154
     15 C         -10.2750  -18.9652   23.1670 C.3     1  UNL1        0.1377
     16 C         -10.9457  -20.1614   22.5593 C.3     1  UNL1        0.0335
     17 C          -9.5965  -17.6644   23.4792 C.3     1  UNL1        0.0613
     18 C          -9.3550  -17.6109   24.9587 C.3     1  UNL1        0.1290
     19 C          -9.1812  -17.6989   26.4460 C.3     1  UNL1        0.0305
     20 C          -8.5256  -16.5750   27.1922 C.3     1  UNL1        0.0025
     21 C          -8.0437  -15.3631   26.4512 C.3     1  UNL1        0.0002
     22 C          -8.2175  -15.2751   24.9639 C.3     1  UNL1        0.0025
     23 C          -8.8731  -16.3990   24.2177 C.3     1  UNL1        0.0305
     24 O          -9.8843  -18.8787   25.5609 O.3     1  UNL1       -0.2256
     25 O         -10.4529  -19.7157   24.4535 O.3     1  UNL1       -0.2251
@<TRIPOS>BOND
     1    12    13    1
     2    13     6    1
     3     6     7   ar
     4     7     8   ar
     5     8     9   ar
     6     9    10   ar
     7    10     5    1
     8     5     1    1
     9     1     2   am
    10     2     3    2
    11     2    14    1
    12    14    15    1
    13    15    16    1
    14    15    17    1
    15    17    18    1
    16    18    19    1
    17    19    20    1
    18    20    21    1
    19    21    22    1
    20    22    23    1
    21    18    24    1
    22    24    25    1
    23    10    11   ar
    24    11     6   ar
    25    25    15    1
    26    23    18    1
    27     1     4    1
@<TRIPOS>MOLECULE
*****
 25 27 0 0 0
SMALL
GASTEIGER

@<TRIPOS>ATOM
      1 N          -5.1838  -16.9682   24.1883 N.am    1  UNL1       -0.3004
      2 C          -5.6477  -15.5701   23.9049 C.2     1  UNL1        0.2252
      3 O          -4.8237  -14.6684   23.0344 O.2     1  UNL1       -0.2750
      4 H          -5.7247  -17.5600   24.7596 H       1  UNL1        0.1497
      5 C          -3.8958  -17.4645   23.6010 C.3     1  UNL1        0.1164
      6 C          -5.2454  -19.9519   20.8187 C.ar    1  UNL1        0.1385
      7 C          -3.9614  -20.3716   20.1668 C.ar    1  UNL1        0.0369
      8 C          -2.6555  -19.8223   20.6596 C.ar    1  UNL1        0.0028
      9 C          -2.6337  -18.8533   21.8043 C.ar    1  UNL1       -0.0024
     10 C          -3.9177  -18.4335   22.4563 C.ar    1  UNL1        0.0004
     11 C          -5.2236  -18.9828   21.9635 C.ar    1  UNL1        0.0343
     12 C          -7.6120  -19.5707   19.8169 C.3     1  UNL1        0.2525
     13 O          -6.5513  -20.5011   20.3259 O.3     1  UNL1       -0.4714
     14 C          -6.9357  -15.0738   24.4921 C.3     1  UNL1        0.1154
     15 C          -7.7798  -15.9884   25.3293 C.3     1  UNL1        0.1377
     16 C          -7.0210  -15.3844   26.4735 C.3     1  UNL1        0.0335
     17 C          -8.3623  -16.4011   24.0100 C.3     1  UNL1        0.0613
     18 C          -9.4078  -17.4447   24.2710 C.3     1  UNL1        0.1290
     19 C         -10.4190  -18.4725   24.6845 C.3     1  UNL1        0.0305
     20 C         -11.2541  -19.1627   23.6471 C.3     1  UNL1        0.0025
     21 C         -11.0779  -18.8250   22.1962 C.3     1  UNL1        0.0002
     22 C         -10.0667  -17.7972   21.7828 C.3     1  UNL1        0.0025
     23 C          -9.2317  -17.1070   22.8202 C.3     1  UNL1        0.0305
     24 O          -9.4715  -17.6768   25.7516 O.3     1  UNL1       -0.2256
     25 O          -8.4654  -16.7768   26.4057 O.3     1  UNL1       -0.2251
@<TRIPOS>BOND
     1    12    13    1
     2    13     6    1
     3     6     7   ar
     4     7     8   ar
     5     8     9   ar
     6     9    10   ar
     7    10     5    1
     8     5     1    1
     9     1     2   am
    10     2     3    2
    11     2    14    1
    12    14    15    1
    13    15    16    1
    14    15    17    1
    15    17    18    1
    16    18    19    1
    17    19    20    1
    18    20    21    1
    19    21    22    1
    20    22    23    1
    21    18    24    1
    22    24    25    1
    23    10    11   ar
    24    11     6   ar
    25    25    15    1
    26    23    18    1
    27     1     4    1
@<TRIPOS>MOLECULE
*****
 25 27 0 0 0
SMALL
GASTEIGER

@<TRIPOS>ATOM
      1 N          -5.5304  -16.4738   23.3999 N.am    1  UNL1       -0.3004
      2 C          -6.3394  -15.4709   24.1679 C.2     1  UNL1        0.2252
      3 O          -5.6631  -14.5418   25.1318 O.2     1  UNL1       -0.2750
      4 H          -5.9743  -17.0837   22.7672 H       1  UNL1        0.1497
      5 C          -4.0451  -16.5475   23.5958 C.3     1  UNL1        0.1164
      6 C          -2.5140  -19.1371   21.0074 C.ar    1  UNL1        0.1385
      7 C          -1.4357  -18.3054   20.3786 C.ar    1  UNL1        0.0369
      8 C          -1.2272  -16.8877   20.8222 C.ar    1  UNL1        0.0028
      9 C          -2.0970  -16.3018   21.8946 C.ar    1  UNL1       -0.0024
     10 C          -3.1753  -17.1335   22.5234 C.ar    1  UNL1        0.0004
     11 C          -3.3838  -18.5511   22.0799 C.ar    1  UNL1        0.0343
     12 C          -4.0018  -20.9482   19.8867 C.3     1  UNL1        0.2525
     13 O          -2.7225  -20.5547   20.5639 O.3     1  UNL1       -0.4714
     14 C          -7.8248  -15.3972   23.9720 C.3     1  UNL1        0.1154
     15 C          -8.4396  -15.9037   22.7010 C.3     1  UNL1        0.1377
     16 C          -7.8772  -14.6441   22.1119 C.3     1  UNL1        0.0335
     17 C          -8.8734  -17.0575   23.5558 C.3     1  UNL1        0.0613
     18 C          -9.6389  -18.0138   22.6900 C.3     1  UNL1        0.1290
     19 C         -10.3784  -18.8705   21.7056 C.3     1  UNL1        0.0305
     20 C         -10.9961  -20.1626   22.1514 C.3     1  UNL1        0.0025
     21 C         -10.8744  -20.5980   23.5816 C.3     1  UNL1        0.0002
     22 C         -10.1349  -19.7413   24.5661 C.3     1  UNL1        0.0025
     23 C          -9.5171  -18.4492   24.1202 C.3     1  UNL1        0.0305
     24 O          -9.6780  -17.4511   21.3001 O.3     1  UNL1       -0.2256
     25 O          -8.9368  -16.1470   21.3069 O.3     1  UNL1       -0.2251
@<TRIPOS>BOND
     1    12    13    1
     2    13     6    1
     3     6     7   ar
     4     7     8   ar
     5     8     9   ar
     6     9    10   ar
     7    10     5    1
     8     5     1    1
     9     1     2   am
    10     2     3    2
    11     2    14    1
    12    14    15    1
    13    15    16    1
    14    15    17    1
    15    17    18    1
    16    18    19    1
    17    19    20    1
    18    20    21    1
    19    21    22    1
    20    22    23    1
    21    18    24    1
    22    24    25    1
    23    10    11   ar
    24    11     6   ar
    25    25    15    1
    26    23    18    1
    27     1     4    1
@<TRIPOS>MOLECULE
*****
 25 27 0 0 0
SMALL
GASTEIGER

@<TRIPOS>ATOM
      1 N          -8.2808  -16.7947   24.6360 N.am    1  UNL1       -0.3004
      2 C          -7.1793  -16.6534   23.6276 C.2     1  UNL1        0.2252
      3 O          -7.5087  -16.3696   22.1920 O.2     1  UNL1       -0.2750
      4 H          -8.0646  -16.9809   25.5783 H       1  UNL1        0.1497
      5 C          -9.7116  -16.6521   24.2088 C.3     1  UNL1        0.1164
      6 C         -11.3231  -17.8456   20.7841 C.ar    1  UNL1        0.1385
      7 C         -11.3784  -19.3290   20.9985 C.ar    1  UNL1        0.0369
      8 C         -10.8780  -19.9203   22.2831 C.ar    1  UNL1        0.0028
      9 C         -10.3224  -19.0280   23.3531 C.ar    1  UNL1       -0.0024
     10 C         -10.2672  -17.5444   23.1387 C.ar    1  UNL1        0.0004
     11 C         -10.7675  -16.9532   21.8542 C.ar    1  UNL1        0.0343
     12 C         -11.8035  -15.7677   19.3002 C.3     1  UNL1        0.2525
     13 O         -11.8234  -17.2543   19.4995 O.3     1  UNL1       -0.4714
     14 C          -5.7485  -16.7959   24.0548 C.3     1  UNL1        0.1154
     15 C          -4.6721  -16.0384   23.3356 C.3     1  UNL1        0.1377
     16 C          -5.3203  -14.8371   23.9574 C.3     1  UNL1        0.0335
     17 C          -4.2488  -17.3980   22.8641 C.3     1  UNL1        0.0613
     18 C          -3.0462  -17.2296   21.9834 C.3     1  UNL1        0.1290
     19 C          -1.8560  -16.9070   21.1295 C.3     1  UNL1        0.0305
     20 C          -1.1052  -18.0088   20.4423 C.3     1  UNL1        0.0025
     21 C          -1.5447  -19.4333   20.6090 C.3     1  UNL1        0.0002
     22 C          -2.7349  -19.7559   21.4629 C.3     1  UNL1        0.0025
     23 C          -3.4857  -18.6541   22.1501 C.3     1  UNL1        0.0305
     24 O          -2.7263  -15.7659   21.9106 O.3     1  UNL1       -0.2256
     25 O          -3.7311  -15.0297   22.7463 O.3     1  UNL1       -0.2251
@<TRIPOS>BOND
     1    12    13    1
     2    13     6    1
     3     6     7   ar
     4     7     8   ar
     5     8     9   ar
     6     9    10   ar
     7    10     5    1
     8     5     1    1
     9     1     2   am
    10     2     3    2
    11     2    14    1
    12    14    15    1
    13    15    16    1
    14    15    17    1
    15    17    18    1
    16    18    19    1
    17    19    20    1
    18    20    21    1
    19    21    22    1
    20    22    23    1
    21    18    24    1
    22    24    25    1
    23    10    11   ar
    24    11     6   ar
    25    25    15    1
    26    23    18    1
    27     1     4    1
@<TRIPOS>MOLECULE
*****
 25 27 0 0 0
SMALL
GASTEIGER

@<TRIPOS>ATOM
      1 N          -9.8820  -16.2210   23.8136 N.am    1  UNL1       -0.3004
      2 C          -9.9145  -16.3404   22.3187 C.2     1  UNL1        0.2252
      3 O          -9.1051  -15.4021   21.4736 O.2     1  UNL1       -0.2750
      4 H         -10.4132  -16.8369   24.3683 H       1  UNL1        0.1497
      5 C          -9.0399  -15.1633   24.4633 C.3     1  UNL1        0.1164
      6 C          -5.2077  -16.1329   24.1109 C.ar    1  UNL1        0.1385
      7 C          -4.7596  -16.0413   25.5394 C.ar    1  UNL1        0.0369
      8 C          -5.7382  -15.6570   26.6092 C.ar    1  UNL1        0.0028
      9 C          -7.1649  -15.3643   26.2506 C.ar    1  UNL1       -0.0024
     10 C          -7.6131  -15.4560   24.8220 C.ar    1  UNL1        0.0004
     11 C          -6.6345  -15.8403   23.7521 C.ar    1  UNL1        0.0343
     12 C          -3.2725  -17.6495   23.2712 C.3     1  UNL1        0.2525
     13 O          -4.2291  -16.5172   23.0410 O.3     1  UNL1       -0.4714
     14 C         -10.7567  -17.3981   21.6689 C.3     1  UNL1        0.1154
     15 C         -10.2618  -18.1002   20.4393 C.3     1  UNL1        0.1377
     16 C         -11.5315  -17.5877   19.8268 C.3     1  UNL1        0.0335
     17 C          -9.0955  -18.4660   21.3087 C.3     1  UNL1        0.0613
     18 C          -8.1452  -19.2871   20.4884 C.3     1  UNL1        0.1290
     19 C          -7.2961  -20.0913   19.5492 C.3     1  UNL1        0.0305
     20 C          -5.9953  -20.6691   20.0223 C.3     1  UNL1        0.0025
     21 C          -5.5436  -20.4428   21.4346 C.3     1  UNL1        0.0002
     22 C          -6.3927  -19.6386   22.3739 C.3     1  UNL1        0.0025
     23 C          -7.6935  -19.0607   21.9008 C.3     1  UNL1        0.0305
     24 O          -8.7242  -19.4287   19.1119 O.3     1  UNL1       -0.2256
     25 O         -10.0324  -18.6952   19.0815 O.3     1  UNL1       -0.2251
@<TRIPOS>BOND
     1    12    13    1
     2    13     6    1
     3     6     7   ar
     4     7     8   ar
     5     8     9   ar
     6     9    10   ar
     7    10     5    1
     8     5     1    1
     9     1     2   am
    10     2     3    2
    11     2    14    1
    12    14    15    1
    13    15    16    1
    14    15    17    1
    15    17    18    1
    16    18    19    1
    17    19    20    1
    18    20    21    1
    19    21    22    1
    20    22    23    1
    21    18    24    1
    22    24    25    1
    23    10    11   ar
    24    11     6   ar
    25    25    15    1
    26    23    18    1
    27     1     4    1
