@<TRIPOS>MOLECULE
*****
 33 36 0 0 0
SMALL
GASTEIGER

@<TRIPOS>ATOM
      1 C          -9.9932  -19.8632   24.1511 C.3     1  UNL1        0.1697
      2 O         -10.2389  -20.3644   25.5435 O.3     1  UNL1       -0.3793
      3 H         -11.0422  -19.9523   25.8983 H       1  UNL1        0.2106
      4 C          -8.8046  -20.3514   23.3772 C.3     1  UNL1        0.1020
      5 N          -8.3389  -19.6005   22.1651 N.3     1  UNL1       -0.2972
      6 H          -8.9660  -19.8552   21.4020 H       1  UNL1        0.1233
      7 C          -7.1415  -18.6653   20.6847 C.3     1  UNL1        0.0161
      8 C          -6.9402  -19.7892   21.6574 C.3     1  UNL1        0.0462
      9 C          -6.7388  -20.9132   22.6301 C.3     1  UNL1        0.0161
     10 C          -5.5413  -19.9781   21.1497 C.3     1  UNL1        0.0424
     11 C          -4.4538  -19.0394   21.5811 C.2     1  UNL1       -0.0006
     12 C          -4.3092  -18.4230   22.9410 C.2     1  UNL1        0.0942
     13 N          -3.0859  -17.5550   22.9288 N.2     1  UNL1       -0.2482
     14 C          -2.4745  -17.6350   21.5614 C.2     1  UNL1        0.0631
     15 C          -1.2571  -16.9910   20.9670 C.3     1  UNL1        0.0717
     16 C          -0.8851  -17.2643   19.5399 C.2     1  UNL1       -0.0198
     17 C          -1.7305  -18.1817   18.7069 C.2     1  UNL1       -0.0042
     18 C          -2.9478  -18.8258   19.3013 C.2     1  UNL1        0.0006
     19 C          -3.3199  -18.5524   20.7285 C.2     1  UNL1        0.0114
     20 C         -10.9360  -18.8739   23.5328 C.3     1  UNL1        0.2358
     21 O         -10.8754  -17.4293   23.9322 O.3     1  UNL1       -0.4721
     22 C          -9.6034  -16.6546   23.7537 C.ar    1  UNL1        0.1481
     23 C          -9.2170  -16.1499   22.3951 C.ar    1  UNL1        0.1023
     24 C          -7.9451  -15.3751   22.2166 C.ar    1  UNL1        0.0133
     25 C          -7.0595  -15.1051   23.3968 C.ar    1  UNL1        0.0009
     26 C          -7.4459  -15.6098   24.7555 C.ar    1  UNL1        0.0030
     27 C          -6.5603  -15.3397   25.9356 C.ar    1  UNL1        0.0001
     28 C          -6.9466  -15.8444   27.2942 C.ar    1  UNL1        0.0000
     29 C          -8.2186  -16.6192   27.4727 C.ar    1  UNL1        0.0001
     30 C          -9.1042  -16.8892   26.2926 C.ar    1  UNL1        0.0030
     31 C          -8.7178  -16.3845   24.9340 C.ar    1  UNL1        0.0347
     32 C         -10.1027  -16.4199   21.2149 C.1     1  UNL1        0.1035
     33 N         -10.9882  -16.6899   20.0347 N.1     1  UNL1       -0.1907
@<TRIPOS>BOND
     1     7     8    1
     2     8     9    1
     3     8    10    1
     4    10    11    1
     5    11    12    2
     6    12    13    1
     7    13    14    2
     8    14    15    1
     9    15    16    1
    10    16    17    2
    11    17    18    1
    12    18    19    2
    13     8     5    1
    14     5     4    1
    15     4     1    1
    16     1     2    1
    17     1    20    1
    18    20    21    1
    19    21    22    1
    20    22    23   ar
    21    23    32    1
    22    32    33    3
    23    23    24   ar
    24    24    25   ar
    25    25    26   ar
    26    26    27   ar
    27    27    28   ar
    28    28    29   ar
    29    29    30   ar
    30    30    31   ar
    31    19    11    1
    32    31    22   ar
    33    19    14    1
    34    31    26   ar
    35     5     6    1
    36     2     3    1
@<TRIPOS>MOLECULE
*****
 33 36 0 0 0
SMALL
GASTEIGER

@<TRIPOS>ATOM
      1 C          -7.3181  -15.0293   23.6933 C.3     1  UNL1        0.1697
      2 O          -7.4710  -14.7697   22.2239 O.3     1  UNL1       -0.3793
      3 H          -8.4136  -14.7453   21.9962 H       1  UNL1        0.2106
      4 C          -5.9495  -15.1143   24.3014 C.3     1  UNL1        0.1020
      5 N          -4.7415  -15.2183   23.4183 N.3     1  UNL1       -0.2972
      6 H          -5.0624  -15.0689   22.4617 H       1  UNL1        0.1233
      7 C          -4.6418  -16.9503   24.6390 C.3     1  UNL1        0.0161
      8 C          -3.9249  -16.4765   23.4096 C.3     1  UNL1        0.0462
      9 C          -3.2081  -16.0027   22.1801 C.3     1  UNL1        0.0161
     10 C          -3.1083  -17.7348   23.4008 C.3     1  UNL1        0.0424
     11 C          -3.3207  -18.7592   22.3260 C.2     1  UNL1       -0.0006
     12 C          -2.2463  -19.5310   21.6188 C.2     1  UNL1        0.0942
     13 N          -2.9064  -20.4406   20.6254 N.2     1  UNL1       -0.2482
     14 C          -4.3888  -20.2310   20.7186 C.2     1  UNL1        0.0631
     15 C          -5.5386  -20.8521   19.9823 C.3     1  UNL1        0.0717
     16 C          -6.9444  -20.4342   20.2969 C.2     1  UNL1       -0.0198
     17 C          -7.2005  -19.3951   21.3480 C.2     1  UNL1       -0.0042
     18 C          -6.0507  -18.7740   22.0843 C.2     1  UNL1        0.0006
     19 C          -4.6448  -19.1919   21.7697 C.2     1  UNL1        0.0114
     20 C          -8.5337  -15.2040   24.5546 C.3     1  UNL1        0.2358
     21 O          -9.7937  -15.7684   23.9680 O.3     1  UNL1       -0.4721
     22 C          -9.9426  -17.2511   23.7967 C.ar    1  UNL1        0.1481
     23 C          -9.6638  -18.1709   24.9483 C.ar    1  UNL1        0.1023
     24 C          -9.8128  -19.6536   24.7770 C.ar    1  UNL1        0.0133
     25 C         -10.2405  -20.2165   23.4541 C.ar    1  UNL1        0.0009
     26 C         -10.5194  -19.2967   22.3024 C.ar    1  UNL1        0.0030
     27 C         -10.9472  -19.8597   20.9795 C.ar    1  UNL1        0.0001
     28 C         -11.2260  -18.9399   19.8279 C.ar    1  UNL1        0.0000
     29 C         -11.0770  -17.4571   19.9992 C.ar    1  UNL1        0.0001
     30 C         -10.6492  -16.8942   21.3221 C.ar    1  UNL1        0.0030
     31 C         -10.3704  -17.8140   22.4737 C.ar    1  UNL1        0.0347
     32 C          -9.2360  -17.6080   26.2713 C.1     1  UNL1        0.1035
     33 N          -8.8082  -17.0451   27.5941 N.1     1  UNL1       -0.1907
@<TRIPOS>BOND
     1     7     8    1
     2     8     9    1
     3     8    10    1
     4    10    11    1
     5    11    12    2
     6    12    13    1
     7    13    14    2
     8    14    15    1
     9    15    16    1
    10    16    17    2
    11    17    18    1
    12    18    19    2
    13     8     5    1
    14     5     4    1
    15     4     1    1
    16     1     2    1
    17     1    20    1
    18    20    21    1
    19    21    22    1
    20    22    23   ar
    21    23    32    1
    22    32    33    3
    23    23    24   ar
    24    24    25   ar
    25    25    26   ar
    26    26    27   ar
    27    27    28   ar
    28    28    29   ar
    29    29    30   ar
    30    30    31   ar
    31    19    11    1
    32    31    22   ar
    33    19    14    1
    34    31    26   ar
    35     5     6    1
    36     2     3    1
@<TRIPOS>MOLECULE
*****
 33 36 0 0 0
SMALL
GASTEIGER

@<TRIPOS>ATOM
      1 C          -9.4677  -16.3812   24.1374 C.3     1  UNL1        0.1697
      2 O         -10.6666  -15.5626   23.7598 O.3     1  UNL1       -0.3793
      3 H         -11.4689  -15.9875   24.1013 H       1  UNL1        0.2106
      4 C          -8.0957  -15.9363   23.7255 C.3     1  UNL1        0.1020
      5 N          -6.9976  -15.8513   24.7438 N.3     1  UNL1       -0.2972
      6 H          -7.0897  -14.9442   25.2011 H       1  UNL1        0.1233
      7 C          -6.0008  -16.0386   22.8807 C.3     1  UNL1        0.0161
      8 C          -5.5657  -15.9766   24.3149 C.3     1  UNL1        0.0462
      9 C          -5.1307  -15.9146   25.7491 C.3     1  UNL1        0.0161
     10 C          -4.1338  -16.1019   23.8860 C.3     1  UNL1        0.0424
     11 C          -3.6883  -17.2992   23.1000 C.2     1  UNL1       -0.0006
     12 C          -4.2184  -18.6951   23.2433 C.2     1  UNL1        0.0942
     13 N          -3.4923  -19.5695   22.2645 N.2     1  UNL1       -0.2482
     14 C          -2.5134  -18.7140   21.5161 C.2     1  UNL1        0.0631
     15 C          -1.5275  -19.0313   20.4311 C.3     1  UNL1        0.0717
     16 C          -0.6627  -17.9456   19.8625 C.2     1  UNL1       -0.0198
     17 C          -0.7838  -16.5424   20.3789 C.2     1  UNL1       -0.0042
     18 C          -1.7698  -16.2251   21.4638 C.2     1  UNL1        0.0006
     19 C          -2.6347  -17.3109   22.0325 C.2     1  UNL1        0.0114
     20 C          -9.6409  -17.6448   24.9270 C.3     1  UNL1        0.2358
     21 O         -10.0464  -18.9122   24.2346 O.3     1  UNL1       -0.4721
     22 C         -10.3015  -18.9107   22.7565 C.ar    1  UNL1        0.1481
     23 C         -11.6587  -18.5491   22.2300 C.ar    1  UNL1        0.1023
     24 C         -11.9138  -18.5476   20.7518 C.ar    1  UNL1        0.0133
     25 C         -10.8117  -18.9078   19.8002 C.ar    1  UNL1        0.0009
     26 C          -9.4545  -19.2694   20.3267 C.ar    1  UNL1        0.0030
     27 C          -8.3524  -19.6296   19.3750 C.ar    1  UNL1        0.0001
     28 C          -6.9952  -19.9912   19.9016 C.ar    1  UNL1        0.0000
     29 C          -6.7401  -19.9927   21.3797 C.ar    1  UNL1        0.0001
     30 C          -7.8422  -19.6325   22.3313 C.ar    1  UNL1        0.0030
     31 C          -9.1994  -19.2709   21.8048 C.ar    1  UNL1        0.0347
     32 C         -12.7609  -18.1889   23.1816 C.1     1  UNL1        0.1035
     33 N         -13.8630  -17.8287   24.1333 N.1     1  UNL1       -0.1907
@<TRIPOS>BOND
     1     7     8    1
     2     8     9    1
     3     8    10    1
     4    10    11    1
     5    11    12    2
     6    12    13    1
     7    13    14    2
     8    14    15    1
     9    15    16    1
    10    16    17    2
    11    17    18    1
    12    18    19    2
    13     8     5    1
    14     5     4    1
    15     4     1    1
    16     1     2    1
    17     1    20    1
    18    20    21    1
    19    21    22    1
    20    22    23   ar
    21    23    32    1
    22    32    33    3
    23    23    24   ar
    24    24    25   ar
    25    25    26   ar
    26    26    27   ar
    27    27    28   ar
    28    28    29   ar
    29    29    30   ar
    30    30    31   ar
    31    19    11    1
    32    31    22   ar
    33    19    14    1
    34    31    26   ar
    35     5     6    1
    36     2     3    1
@<TRIPOS>MOLECULE
*****
 33 36 0 0 0
SMALL
GASTEIGER

@<TRIPOS>ATOM
      1 C          -8.7111  -15.9799   24.1631 C.3     1  UNL1        0.1697
      2 O         -10.0866  -15.3892   24.2583 O.3     1  UNL1       -0.3793
      3 H         -10.6942  -16.0439   24.6367 H       1  UNL1        0.2106
      4 C          -7.5815  -15.1645   23.6072 C.3     1  UNL1        0.1020
      5 N          -6.4101  -14.8149   24.4765 N.3     1  UNL1       -0.2972
      6 H          -6.1830  -13.8389   24.2860 H       1  UNL1        0.1233
      7 C          -5.2680  -16.0353   25.7826 C.3     1  UNL1        0.0161
      8 C          -5.1305  -15.5884   24.3574 C.3     1  UNL1        0.0462
      9 C          -4.9930  -15.1415   22.9322 C.3     1  UNL1        0.0161
     10 C          -3.8508  -16.3619   24.2383 C.3     1  UNL1        0.0424
     11 C          -3.7131  -17.4274   23.1915 C.2     1  UNL1       -0.0006
     12 C          -4.4998  -18.7027   23.1226 C.2     1  UNL1        0.0942
     13 N          -4.0375  -19.4681   21.9183 N.2     1  UNL1       -0.2482
     14 C          -2.9650  -18.6658   21.2428 C.2     1  UNL1        0.0631
     15 C          -2.1451  -18.9208   20.0129 C.3     1  UNL1        0.0717
     16 C          -1.1248  -17.9147   19.5698 C.2     1  UNL1       -0.0198
     17 C          -0.9243  -16.6534   20.3566 C.2     1  UNL1       -0.0042
     18 C          -1.7442  -16.3984   21.5865 C.2     1  UNL1        0.0006
     19 C          -2.7646  -17.4046   22.0297 C.2     1  UNL1        0.0114
     20 C          -8.4652  -17.3860   24.6240 C.3     1  UNL1        0.2358
     21 O          -8.9185  -18.5415   23.7815 O.3     1  UNL1       -0.4721
     22 C          -9.9878  -18.3425   22.7486 C.ar    1  UNL1        0.1481
     23 C          -9.6149  -18.1775   21.3051 C.ar    1  UNL1        0.1023
     24 C         -10.6842  -17.9786   20.2722 C.ar    1  UNL1        0.0133
     25 C         -12.1265  -17.9445   20.6828 C.ar    1  UNL1        0.0009
     26 C         -12.4995  -18.1095   22.1263 C.ar    1  UNL1        0.0030
     27 C         -13.9418  -18.0755   22.5369 C.ar    1  UNL1        0.0001
     28 C         -14.3147  -18.2404   23.9803 C.ar    1  UNL1        0.0000
     29 C         -13.2454  -18.4394   25.0132 C.ar    1  UNL1        0.0001
     30 C         -11.8031  -18.4734   24.6027 C.ar    1  UNL1        0.0030
     31 C         -11.4302  -18.3085   23.1592 C.ar    1  UNL1        0.0347
     32 C          -8.1725  -18.2116   20.8945 C.1     1  UNL1        0.1035
     33 N          -6.7302  -18.2456   20.4839 N.1     1  UNL1       -0.1907
@<TRIPOS>BOND
     1     7     8    1
     2     8     9    1
     3     8    10    1
     4    10    11    1
     5    11    12    2
     6    12    13    1
     7    13    14    2
     8    14    15    1
     9    15    16    1
    10    16    17    2
    11    17    18    1
    12    18    19    2
    13     8     5    1
    14     5     4    1
    15     4     1    1
    16     1     2    1
    17     1    20    1
    18    20    21    1
    19    21    22    1
    20    22    23   ar
    21    23    32    1
    22    32    33    3
    23    23    24   ar
    24    24    25   ar
    25    25    26   ar
    26    26    27   ar
    27    27    28   ar
    28    28    29   ar
    29    29    30   ar
    30    30    31   ar
    31    19    11    1
    32    31    22   ar
    33    19    14    1
    34    31    26   ar
    35     5     6    1
    36     2     3    1
@<TRIPOS>MOLECULE
*****
 33 36 0 0 0
SMALL
GASTEIGER

@<TRIPOS>ATOM
      1 C          -9.0791  -15.5054   22.0842 C.3     1  UNL1        0.1697
      2 O          -9.7519  -15.4674   23.4244 O.3     1  UNL1       -0.3793
      3 H         -10.6952  -15.6669   23.3184 H       1  UNL1        0.2106
      4 C          -7.6088  -15.2294   21.9749 C.3     1  UNL1        0.1020
      5 N          -6.7845  -15.0538   23.2157 N.3     1  UNL1       -0.2972
      6 H          -6.3225  -14.1478   23.1365 H       1  UNL1        0.1233
      7 C          -6.6946  -17.1704   23.3235 C.3     1  UNL1        0.0161
      8 C          -5.7202  -16.0542   23.5569 C.3     1  UNL1        0.0462
      9 C          -4.7458  -14.9379   23.7903 C.3     1  UNL1        0.0161
     10 C          -4.6558  -17.0546   23.8981 C.3     1  UNL1        0.0424
     11 C          -4.1051  -17.9563   22.8335 C.2     1  UNL1       -0.0006
     12 C          -4.6048  -19.3298   22.4961 C.2     1  UNL1        0.0942
     13 N          -3.7664  -19.8653   21.3734 N.2     1  UNL1       -0.2482
     14 C          -2.7486  -18.8227   21.0170 C.2     1  UNL1        0.0631
     15 C          -1.6582  -18.7952   19.9872 C.3     1  UNL1        0.0717
     16 C          -0.7771  -17.5880   19.8599 C.2     1  UNL1       -0.0198
     17 C          -0.9864  -16.4081   20.7623 C.2     1  UNL1       -0.0042
     18 C          -2.0767  -16.4356   21.7920 C.2     1  UNL1        0.0006
     19 C          -2.9579  -17.6429   21.9193 C.2     1  UNL1        0.0114
     20 C          -9.8768  -15.8195   20.8533 C.3     1  UNL1        0.2358
     21 O         -10.4129  -17.2041   20.6400 O.3     1  UNL1       -0.4721
     22 C         -10.3574  -18.2093   21.7519 C.ar    1  UNL1        0.1481
     23 C          -9.2058  -19.1663   21.8411 C.ar    1  UNL1        0.1023
     24 C          -9.1503  -20.1715   22.9530 C.ar    1  UNL1        0.0133
     25 C         -10.2465  -20.2198   23.9758 C.ar    1  UNL1        0.0009
     26 C         -11.3981  -19.2628   23.8867 C.ar    1  UNL1        0.0030
     27 C         -12.4943  -19.3111   24.9095 C.ar    1  UNL1        0.0001
     28 C         -13.6459  -18.3541   24.8203 C.ar    1  UNL1        0.0000
     29 C         -13.7013  -17.3489   23.7083 C.ar    1  UNL1        0.0001
     30 C         -12.6052  -17.3006   22.6856 C.ar    1  UNL1        0.0030
     31 C         -11.4536  -18.2576   22.7747 C.ar    1  UNL1        0.0347
     32 C          -8.1096  -19.1181   20.8183 C.1     1  UNL1        0.1035
     33 N          -7.0135  -19.0699   19.7955 N.1     1  UNL1       -0.1907
@<TRIPOS>BOND
     1     7     8    1
     2     8     9    1
     3     8    10    1
     4    10    11    1
     5    11    12    2
     6    12    13    1
     7    13    14    2
     8    14    15    1
     9    15    16    1
    10    16    17    2
    11    17    18    1
    12    18    19    2
    13     8     5    1
    14     5     4    1
    15     4     1    1
    16     1     2    1
    17     1    20    1
    18    20    21    1
    19    21    22    1
    20    22    23   ar
    21    23    32    1
    22    32    33    3
    23    23    24   ar
    24    24    25   ar
    25    25    26   ar
    26    26    27   ar
    27    27    28   ar
    28    28    29   ar
    29    29    30   ar
    30    30    31   ar
    31    19    11    1
    32    31    22   ar
    33    19    14    1
    34    31    26   ar
    35     5     6    1
    36     2     3    1
@<TRIPOS>MOLECULE
*****
 33 36 0 0 0
SMALL
GASTEIGER

@<TRIPOS>ATOM
      1 C           4.2486   -4.4045   19.8160 C.3     1  UNL1        0.1697
      2 O           3.9300   -5.8533   19.5931 O.3     1  UNL1       -0.3793
      3 H           3.8460   -6.3013   20.4494 H       1  UNL1        0.2106
      4 C           4.4297   -3.4874   18.6429 C.3     1  UNL1        0.1020
      5 N           5.7601   -2.8405   18.3950 N.3     1  UNL1       -0.2972
      6 H           6.3365   -3.0288   19.2152 H       1  UNL1        0.1233
      7 C           7.2283   -1.3416   18.7073 C.3     1  UNL1        0.0161
      8 C           5.8404   -1.3647   18.1389 C.3     1  UNL1        0.0462
      9 C           4.4525   -1.3878   17.5705 C.3     1  UNL1        0.0161
     10 C           5.9207    0.1111   17.8828 C.3     1  UNL1        0.0424
     11 C           5.0673    1.0572   18.6743 C.2     1  UNL1       -0.0006
     12 C           3.8943    1.8333   18.1528 C.2     1  UNL1        0.0942
     13 N           3.3390    2.6490   19.2825 N.2     1  UNL1       -0.2482
     14 C           4.1688    2.3772   20.5022 C.2     1  UNL1        0.0631
     15 C           4.0899    2.8983   21.9065 C.3     1  UNL1        0.0717
     16 C           5.0789    2.4357   22.9349 C.2     1  UNL1       -0.0198
     17 C           6.1470    1.4519   22.5591 C.2     1  UNL1       -0.0042
     18 C           6.2260    0.9307   21.1548 C.2     1  UNL1        0.0006
     19 C           5.2369    1.3934   20.1263 C.2     1  UNL1        0.0114
     20 C           4.3861   -3.8729   21.2119 C.3     1  UNL1        0.2358
     21 O           4.7819   -2.4432   21.4344 O.3     1  UNL1       -0.4721
     22 C           3.9698   -1.5737   22.3478 C.ar    1  UNL1        0.1481
     23 C           4.3374   -1.4596   23.7976 C.ar    1  UNL1        0.1023
     24 C           3.5253   -0.5901   24.7111 C.ar    1  UNL1        0.0133
     25 C           2.3456    0.1654   24.1748 C.ar    1  UNL1        0.0009
     26 C           1.9780    0.0513   22.7249 C.ar    1  UNL1        0.0030
     27 C           0.7983    0.8068   22.1887 C.ar    1  UNL1        0.0001
     28 C           0.4307    0.6927   20.7389 C.ar    1  UNL1        0.0000
     29 C           1.2428   -0.1769   19.8255 C.ar    1  UNL1        0.0001
     30 C           2.4225   -0.9323   20.3617 C.ar    1  UNL1        0.0030
     31 C           2.7901   -0.8182   21.8115 C.ar    1  UNL1        0.0347
     32 C           5.5171   -2.2151   24.3340 C.1     1  UNL1        0.1035
     33 N           6.6968   -2.9705   24.8703 N.1     1  UNL1       -0.1907
@<TRIPOS>BOND
     1     7     8    1
     2     8     9    1
     3     8    10    1
     4    10    11    1
     5    11    12    2
     6    12    13    1
     7    13    14    2
     8    14    15    1
     9    15    16    1
    10    16    17    2
    11    17    18    1
    12    18    19    2
    13     8     5    1
    14     5     4    1
    15     4     1    1
    16     1     2    1
    17     1    20    1
    18    20    21    1
    19    21    22    1
    20    22    23   ar
    21    23    32    1
    22    32    33    3
    23    23    24   ar
    24    24    25   ar
    25    25    26   ar
    26    26    27   ar
    27    27    28   ar
    28    28    29   ar
    29    29    30   ar
    30    30    31   ar
    31    19    11    1
    32    31    22   ar
    33    19    14    1
    34    31    26   ar
    35     5     6    1
    36     2     3    1
@<TRIPOS>MOLECULE
*****
 33 36 0 0 0
SMALL
GASTEIGER

@<TRIPOS>ATOM
      1 C           7.7467   -4.2733   21.3026 C.3     1  UNL1        0.1697
      2 O           8.3404   -5.6021   20.9391 O.3     1  UNL1       -0.3793
      3 H           8.1407   -6.2469   21.6356 H       1  UNL1        0.2106
      4 C           7.9154   -3.0999   20.3837 C.3     1  UNL1        0.1020
      5 N           7.6918   -1.7079   20.8959 N.3     1  UNL1       -0.2972
      6 H           7.0339   -1.7818   21.6718 H       1  UNL1        0.1233
      7 C           6.5112    0.0370   21.1438 C.3     1  UNL1        0.0161
      8 C           7.1610   -0.6471   19.9778 C.3     1  UNL1        0.0462
      9 C           7.8108   -1.3312   18.8117 C.3     1  UNL1        0.0161
     10 C           6.6302    0.4137   19.0596 C.3     1  UNL1        0.0424
     11 C           5.2464    0.2922   18.4938 C.2     1  UNL1       -0.0006
     12 C           4.8204   -0.6398   17.3983 C.2     1  UNL1        0.0942
     13 N           3.3563   -0.4267   17.1517 N.2     1  UNL1       -0.2482
     14 C           2.8773    0.6370   18.0948 C.2     1  UNL1        0.0631
     15 C           1.5285    1.2583   18.3054 C.3     1  UNL1        0.0717
     16 C           1.3476    2.3240   19.3454 C.2     1  UNL1       -0.0198
     17 C           2.5158    2.7683   20.1749 C.2     1  UNL1       -0.0042
     18 C           3.8647    2.1469   19.9643 C.2     1  UNL1        0.0006
     19 C           4.0455    1.0812   18.9242 C.2     1  UNL1        0.0114
     20 C           6.9843   -4.1182   22.5851 C.3     1  UNL1        0.2358
     21 O           5.5027   -4.3513   22.6097 O.3     1  UNL1       -0.4721
     22 C           4.5667   -3.2779   22.1390 C.ar    1  UNL1        0.1481
     23 C           4.0426   -3.3031   20.7338 C.ar    1  UNL1        0.1023
     24 C           3.1065   -2.2296   20.2631 C.ar    1  UNL1        0.0133
     25 C           2.6946   -1.1310   21.1976 C.ar    1  UNL1        0.0009
     26 C           3.2186   -1.1058   22.6029 C.ar    1  UNL1        0.0030
     27 C           2.8067   -0.0072   23.5374 C.ar    1  UNL1        0.0001
     28 C           3.3308    0.0179   24.9426 C.ar    1  UNL1        0.0000
     29 C           4.2668   -1.0555   25.4133 C.ar    1  UNL1        0.0001
     30 C           4.6788   -2.1541   24.4788 C.ar    1  UNL1        0.0030
     31 C           4.1547   -2.1793   23.0736 C.ar    1  UNL1        0.0347
     32 C           4.4546   -4.4017   19.7992 C.1     1  UNL1        0.1035
     33 N           4.8665   -5.5003   18.8647 N.1     1  UNL1       -0.1907
@<TRIPOS>BOND
     1     7     8    1
     2     8     9    1
     3     8    10    1
     4    10    11    1
     5    11    12    2
     6    12    13    1
     7    13    14    2
     8    14    15    1
     9    15    16    1
    10    16    17    2
    11    17    18    1
    12    18    19    2
    13     8     5    1
    14     5     4    1
    15     4     1    1
    16     1     2    1
    17     1    20    1
    18    20    21    1
    19    21    22    1
    20    22    23   ar
    21    23    32    1
    22    32    33    3
    23    23    24   ar
    24    24    25   ar
    25    25    26   ar
    26    26    27   ar
    27    27    28   ar
    28    28    29   ar
    29    29    30   ar
    30    30    31   ar
    31    19    11    1
    32    31    22   ar
    33    19    14    1
    34    31    26   ar
    35     5     6    1
    36     2     3    1
@<TRIPOS>MOLECULE
*****
 33 36 0 0 0
SMALL
GASTEIGER

@<TRIPOS>ATOM
      1 C           3.9829   -0.4836   17.0700 C.3     1  UNL1        0.1697
      2 O           3.5556   -1.4255   15.9836 O.3     1  UNL1       -0.3793
      3 H           4.3294   -1.6888   15.4612 H       1  UNL1        0.2106
      4 C           2.9667    0.0730   18.0226 C.3     1  UNL1        0.1020
      5 N           3.4037    0.6263   19.3466 N.3     1  UNL1       -0.2972
      6 H           4.3991    0.8336   19.2650 H       1  UNL1        0.1233
      7 C           4.4593    0.4454   21.1777 C.3     1  UNL1        0.0161
      8 C           3.2321   -0.1893   20.5937 C.3     1  UNL1        0.0462
      9 C           2.0049   -0.8240   20.0098 C.3     1  UNL1        0.0161
     10 C           3.0604   -1.0049   21.8409 C.3     1  UNL1        0.0424
     11 C           2.7102   -0.3319   23.1349 C.2     1  UNL1       -0.0006
     12 C           1.6708    0.7334   23.3215 C.2     1  UNL1        0.0942
     13 N           1.6561    1.1177   24.7714 N.2     1  UNL1       -0.2482
     14 C           2.6864    0.2898   25.4808 C.2     1  UNL1        0.0631
     15 C           3.1155    0.2360   26.9171 C.3     1  UNL1        0.0717
     16 C           4.1960   -0.7137   27.3420 C.2     1  UNL1       -0.0198
     17 C           4.8475   -1.6096   26.3306 C.2     1  UNL1       -0.0042
     18 C           4.4184   -1.5558   24.8943 C.2     1  UNL1        0.0006
     19 C           3.3378   -0.6061   24.4694 C.2     1  UNL1        0.0114
     20 C           5.4264   -0.0984   17.2039 C.3     1  UNL1        0.2358
     21 O           6.4513   -1.1383   17.5479 O.3     1  UNL1       -0.4721
     22 C           6.7041   -1.4964   18.9824 C.ar    1  UNL1        0.1481
     23 C           7.8092   -0.8223   19.7403 C.ar    1  UNL1        0.1023
     24 C           8.0620   -1.1805   21.1748 C.ar    1  UNL1        0.0133
     25 C           7.2097   -2.2127   21.8515 C.ar    1  UNL1        0.0009
     26 C           6.1045   -2.8869   21.0937 C.ar    1  UNL1        0.0030
     27 C           5.2522   -3.9192   21.7704 C.ar    1  UNL1        0.0001
     28 C           4.1471   -4.5933   21.0126 C.ar    1  UNL1        0.0000
     29 C           3.8943   -4.2351   19.5780 C.ar    1  UNL1        0.0001
     30 C           4.7466   -3.2029   18.9013 C.ar    1  UNL1        0.0030
     31 C           5.8517   -2.5288   19.6591 C.ar    1  UNL1        0.0347
     32 C           8.6616    0.2100   19.0635 C.1     1  UNL1        0.1035
     33 N           9.5139    1.2422   18.3869 N.1     1  UNL1       -0.1907
@<TRIPOS>BOND
     1     7     8    1
     2     8     9    1
     3     8    10    1
     4    10    11    1
     5    11    12    2
     6    12    13    1
     7    13    14    2
     8    14    15    1
     9    15    16    1
    10    16    17    2
    11    17    18    1
    12    18    19    2
    13     8     5    1
    14     5     4    1
    15     4     1    1
    16     1     2    1
    17     1    20    1
    18    20    21    1
    19    21    22    1
    20    22    23   ar
    21    23    32    1
    22    32    33    3
    23    23    24   ar
    24    24    25   ar
    25    25    26   ar
    26    26    27   ar
    27    27    28   ar
    28    28    29   ar
    29    29    30   ar
    30    30    31   ar
    31    19    11    1
    32    31    22   ar
    33    19    14    1
    34    31    26   ar
    35     5     6    1
    36     2     3    1
@<TRIPOS>MOLECULE
*****
 33 36 0 0 0
SMALL
GASTEIGER

@<TRIPOS>ATOM
      1 C           0.7136    0.8427   20.8677 C.3     1  UNL1        0.1697
      2 O          -0.3291   -0.1644   20.4820 O.3     1  UNL1       -0.3793
      3 H          -0.3795   -0.8543   21.1620 H       1  UNL1        0.2106
      4 C           0.9872    2.0178   19.9766 C.3     1  UNL1        0.1020
      5 N           1.6453    1.8118   18.6445 N.3     1  UNL1       -0.2972
      6 H           1.3477    0.8962   18.3075 H       1  UNL1        0.1233
      7 C           3.1238    0.5104   17.8570 C.3     1  UNL1        0.0161
      8 C           3.1406    1.8493   18.5329 C.3     1  UNL1        0.0462
      9 C           3.1575    3.1882   19.2089 C.3     1  UNL1        0.0161
     10 C           4.6361    1.8868   18.4214 C.3     1  UNL1        0.0424
     11 C           5.4832    1.2343   19.4733 C.2     1  UNL1       -0.0006
     12 C           5.8211    1.8109   20.8162 C.2     1  UNL1        0.0942
     13 N           6.6879    0.8236   21.5399 N.2     1  UNL1       -0.2482
     14 C           6.8858   -0.3633   20.6442 C.2     1  UNL1        0.0631
     15 C           7.6477   -1.6424   20.8266 C.3     1  UNL1        0.0717
     16 C           7.6652   -2.6677   19.7319 C.2     1  UNL1       -0.0198
     17 C           6.9207   -2.4139   18.4546 C.2     1  UNL1       -0.0042
     18 C           6.1587   -1.1348   18.2723 C.2     1  UNL1        0.0006
     19 C           6.1412   -0.1095   19.3670 C.2     1  UNL1        0.0114
     20 C           1.4827    0.6745   22.1445 C.3     1  UNL1        0.2358
     21 O           2.9796    0.5839   22.1120 O.3     1  UNL1       -0.4721
     22 C           3.6652   -0.6698   22.5684 C.ar    1  UNL1        0.1481
     23 C           4.2611   -0.7409   23.9430 C.ar    1  UNL1        0.1023
     24 C           4.9466   -1.9946   24.3994 C.ar    1  UNL1        0.0133
     25 C           5.0362   -3.1772   23.4811 C.ar    1  UNL1        0.0009
     26 C           4.4403   -3.1062   22.1063 C.ar    1  UNL1        0.0030
     27 C           4.5299   -4.2888   21.1880 C.ar    1  UNL1        0.0001
     28 C           3.9340   -4.2177   19.8134 C.ar    1  UNL1        0.0000
     29 C           3.2485   -2.9640   19.3570 C.ar    1  UNL1        0.0001
     30 C           3.1588   -1.7814   20.2753 C.ar    1  UNL1        0.0030
     31 C           3.7548   -1.8525   21.6500 C.ar    1  UNL1        0.0347
     32 C           4.1715    0.4418   24.8614 C.1     1  UNL1        0.1035
     33 N           4.0819    1.6244   25.7798 N.1     1  UNL1       -0.1907
@<TRIPOS>BOND
     1     7     8    1
     2     8     9    1
     3     8    10    1
     4    10    11    1
     5    11    12    2
     6    12    13    1
     7    13    14    2
     8    14    15    1
     9    15    16    1
    10    16    17    2
    11    17    18    1
    12    18    19    2
    13     8     5    1
    14     5     4    1
    15     4     1    1
    16     1     2    1
    17     1    20    1
    18    20    21    1
    19    21    22    1
    20    22    23   ar
    21    23    32    1
    22    32    33    3
    23    23    24   ar
    24    24    25   ar
    25    25    26   ar
    26    26    27   ar
    27    27    28   ar
    28    28    29   ar
    29    29    30   ar
    30    30    31   ar
    31    19    11    1
    32    31    22   ar
    33    19    14    1
    34    31    26   ar
    35     5     6    1
    36     2     3    1
