@<TRIPOS>MOLECULE
*****
 42 46 0 0 0
SMALL
GASTEIGER

@<TRIPOS>ATOM
      1 N           5.5559   -1.2142   30.3731 N.pl3   1  UNL1       -0.2770
      2 C           6.8255   -3.7762   31.9461 C.3     1  UNL1        0.1332
      3 N           6.6433   -3.6545   30.4622 N.ar    1  UNL1       -0.2976
      4 C           6.0597   -2.4769   29.7392 C.ar    1  UNL1        0.2014
      5 N           6.0685   -2.7837   28.2709 N.ar    1  UNL1       -0.2136
      6 C           6.6574   -4.1509   28.0865 C.ar    1  UNL1        0.0999
      7 C           6.9160   -4.9752   26.8604 C.ar    1  UNL1        0.0245
      8 C           7.5300   -6.3378   26.9886 C.ar    1  UNL1        0.0730
      9 C           7.8852   -6.8760   28.3429 C.ar    1  UNL1        0.0054
     10 C           7.6266   -6.0516   29.5690 C.ar    1  UNL1        0.0187
     11 C           7.0126   -4.6891   29.4408 C.ar    1  UNL1        0.0799
     12 C           7.7886   -7.1623   25.7624 C.3     1  UNL1        0.4186
     13 F           8.0473   -7.9867   24.5363 F       1  UNL1       -0.1659
     14 F           7.9685   -8.3802   26.6193 F       1  UNL1       -0.1659
     15 F           7.6088   -5.9444   24.9055 F       1  UNL1       -0.1659
     16 C           4.3337   -0.5371   29.8277 C.3     1  UNL1        0.0758
     17 C           4.4625    0.4614   28.7158 C.3     1  UNL1        0.0198
     18 C           3.2402    1.1385   28.1704 C.3     1  UNL1        0.0017
     19 C           1.8890    0.8171   28.7369 C.3     1  UNL1        0.0001
     20 C           1.7601   -0.1814   29.8489 C.3     1  UNL1        0.0017
     21 C           2.9824   -0.8585   30.3942 C.3     1  UNL1        0.0198
     22 C           0.6666    1.4942   28.1916 C.3     1  UNL1        0.0000
     23 C           1.1853    1.3070   26.7966 C.3     1  UNL1        0.0000
     24 C           0.1479    1.6815   29.5865 C.3     1  UNL1        0.0000
     25 C          -0.5557    2.1713   27.6461 C.3     1  UNL1        0.0000
     26 C           6.2744   -0.6287   31.5524 C.3     1  UNL1        0.1202
     27 C           5.4953   -0.1266   32.7318 C.ar    1  UNL1       -0.0023
     28 C           5.0094    1.2923   32.7607 C.ar    1  UNL1       -0.0025
     29 C           4.2303    1.7944   33.9400 C.ar    1  UNL1        0.0043
     30 C           3.9370    0.8776   35.0904 C.ar    1  UNL1        0.0537
     31 C           4.4228   -0.5412   35.0615 C.ar    1  UNL1        0.0043
     32 C           5.2019   -1.0433   33.8822 C.ar    1  UNL1       -0.0025
     33 C           3.1578    1.3797   36.2698 C.2     1  UNL1        0.2517
     34 O           2.3817    2.6591   36.1663 O.2     1  UNL1       -0.2697
     35 N           3.1548    0.6023   37.5527 N.am    1  UNL1       -0.2495
     36 H           3.6642   -0.2374   37.6206 H       1  UNL1        0.1581
     37 C           2.3756    1.1044   38.7320 C.ar    1  UNL1        0.2389
     38 N           1.5697    0.2648   39.6784 N.ar    1  UNL1       -0.0922
     39 N           0.9615    1.1757   40.7033 N.ar    1  UNL1       -0.0216
     40 N           1.3916    2.5783   40.3904 N.ar    1  UNL1       -0.0454
     41 N           2.2656    2.5341   39.1720 N.ar    1  UNL1       -0.2269
     42 H           2.6921    3.3078   38.7375 H       1  UNL1        0.1936
@<TRIPOS>BOND
     1     2     3    1
     2     3     4   ar
     3     4     1    1
     4     1    26    1
     5    26    27    1
     6    27    28   ar
     7    28    29   ar
     8    29    30   ar
     9    30    33    1
    10    33    34    2
    11    33    35   am
    12    35    37    1
    13    37    38   ar
    14    38    39   ar
    15    39    40   ar
    16    40    41   ar
    17    30    31   ar
    18    31    32   ar
    19    16     1    1
    20    16    17    1
    21    17    18    1
    22    18    19    1
    23    19    22    1
    24    22    23    1
    25    22    24    1
    26    22    25    1
    27    19    20    1
    28    20    21    1
    29     4     5   ar
    30     5     6   ar
    31     6     7   ar
    32     7     8   ar
    33     8    12    1
    34    12    13    1
    35    12    14    1
    36    12    15    1
    37     8     9   ar
    38     9    10   ar
    39    10    11   ar
    40    11     3   ar
    41    32    27   ar
    42    21    16    1
    43    11     6   ar
    44    41    37   ar
    45    35    36    1
    46    41    42    1
@<TRIPOS>MOLECULE
*****
 42 46 0 0 0
SMALL
GASTEIGER

@<TRIPOS>ATOM
      1 N           0.8072    2.4084   21.7117 N.pl3   1  UNL1       -0.2770
      2 C           2.3355    2.9529   18.8802 C.3     1  UNL1        0.1332
      3 N           2.2514    1.6386   19.5982 N.ar    1  UNL1       -0.2976
      4 C           1.5489    1.3883   20.8997 C.ar    1  UNL1        0.2014
      5 N           1.7184   -0.0611   21.2466 N.ar    1  UNL1       -0.2136
      6 C           2.5256   -0.7067   20.1595 C.ar    1  UNL1        0.0999
      7 C           3.0033   -2.1153   19.9657 C.ar    1  UNL1        0.0245
      8 C           3.8103   -2.4734   18.7532 C.ar    1  UNL1        0.0730
      9 C           4.1397   -1.4229   17.7344 C.ar    1  UNL1        0.0054
     10 C           3.6621   -0.0143   17.9282 C.ar    1  UNL1        0.0187
     11 C           2.8550    0.3438   19.1407 C.ar    1  UNL1        0.0799
     12 C           4.2880   -3.8821   18.5593 C.3     1  UNL1        0.4186
     13 F           4.7656   -5.2907   18.3655 F       1  UNL1       -0.1659
     14 F           2.9361   -4.3953   18.9580 F       1  UNL1       -0.1659
     15 F           5.6398   -3.3689   18.1607 F       1  UNL1       -0.1659
     16 C           0.8513    2.3507   23.2099 C.3     1  UNL1        0.0758
     17 C          -0.0488    1.4069   23.9509 C.3     1  UNL1        0.0198
     18 C          -0.0047    1.3492   25.4492 C.3     1  UNL1        0.0017
     19 C           0.9394    2.2353   26.2064 C.3     1  UNL1        0.0001
     20 C           1.8395    3.1791   25.4654 C.3     1  UNL1        0.0017
     21 C           1.7955    3.2368   23.9672 C.3     1  UNL1        0.0198
     22 C           0.9835    2.1776   27.7047 C.3     1  UNL1        0.0000
     23 C           2.2630    2.9605   27.6971 C.3     1  UNL1        0.0000
     24 C          -0.2960    1.3948   27.7123 C.3     1  UNL1        0.0000
     25 C           1.0276    2.1200   29.2029 C.3     1  UNL1        0.0000
     26 C           0.0215    3.4862   21.0255 C.3     1  UNL1        0.1202
     27 C          -1.4241    3.6939   21.3677 C.ar    1  UNL1       -0.0023
     28 C          -2.4936    3.1423   20.4721 C.ar    1  UNL1       -0.0025
     29 C          -3.9392    3.3501   20.8143 C.ar    1  UNL1        0.0043
     30 C          -4.3153    4.1094   22.0520 C.ar    1  UNL1        0.0537
     31 C          -3.2459    4.6610   22.9475 C.ar    1  UNL1        0.0043
     32 C          -1.8003    4.4533   22.6053 C.ar    1  UNL1       -0.0025
     33 C          -5.7609    4.3172   22.3942 C.2     1  UNL1        0.2517
     34 O          -6.7974    4.3063   21.3100 O.2     1  UNL1       -0.2697
     35 N          -6.1700    4.5359   23.8207 N.am    1  UNL1       -0.2495
     36 H          -5.4898    4.5431   24.5324 H       1  UNL1        0.1581
     37 C          -7.6156    4.7437   24.1629 C.ar    1  UNL1        0.2389
     38 N          -8.1764    5.8757   24.9717 N.ar    1  UNL1       -0.0922
     39 N          -9.6616    5.6875   25.0651 N.ar    1  UNL1       -0.0216
     40 N         -10.0188    4.4392   24.3140 N.ar    1  UNL1       -0.0454
     41 N          -8.7543    3.8559   23.7565 N.ar    1  UNL1       -0.2269
     42 H          -8.6841    3.0345   23.2182 H       1  UNL1        0.1936
@<TRIPOS>BOND
     1     2     3    1
     2     3     4   ar
     3     4     1    1
     4     1    26    1
     5    26    27    1
     6    27    28   ar
     7    28    29   ar
     8    29    30   ar
     9    30    33    1
    10    33    34    2
    11    33    35   am
    12    35    37    1
    13    37    38   ar
    14    38    39   ar
    15    39    40   ar
    16    40    41   ar
    17    30    31   ar
    18    31    32   ar
    19    16     1    1
    20    16    17    1
    21    17    18    1
    22    18    19    1
    23    19    22    1
    24    22    23    1
    25    22    24    1
    26    22    25    1
    27    19    20    1
    28    20    21    1
    29     4     5   ar
    30     5     6   ar
    31     6     7   ar
    32     7     8   ar
    33     8    12    1
    34    12    13    1
    35    12    14    1
    36    12    15    1
    37     8     9   ar
    38     9    10   ar
    39    10    11   ar
    40    11     3   ar
    41    32    27   ar
    42    21    16    1
    43    11     6   ar
    44    41    37   ar
    45    35    36    1
    46    41    42    1
@<TRIPOS>MOLECULE
*****
 42 46 0 0 0
SMALL
GASTEIGER

@<TRIPOS>ATOM
      1 N           0.4041    2.7508   21.0665 N.pl3   1  UNL1       -0.2770
      2 C           0.1611    3.8106   17.9896 C.3     1  UNL1        0.1332
      3 N          -0.9789    3.5941   18.9402 N.ar    1  UNL1       -0.2976
      4 C          -0.8672    3.1070   20.3544 C.ar    1  UNL1        0.2014
      5 N          -2.2500    3.0386   20.9316 N.ar    1  UNL1       -0.2136
      6 C          -3.2163    3.4835   19.8741 C.ar    1  UNL1        0.0999
      7 C          -4.7100    3.6204   19.8729 C.ar    1  UNL1        0.0245
      8 C          -5.4181    4.1005   18.6409 C.ar    1  UNL1        0.0730
      9 C          -4.6325    4.4438   17.4100 C.ar    1  UNL1        0.0054
     10 C          -3.1388    4.3070   17.4112 C.ar    1  UNL1        0.0187
     11 C          -2.4307    3.8269   18.6433 C.ar    1  UNL1        0.0799
     12 C          -6.9119    4.2374   18.6396 C.3     1  UNL1        0.4186
     13 F          -8.4056    4.3743   18.6383 F       1  UNL1       -0.1659
     14 F          -6.7751    5.7308   18.6699 F       1  UNL1       -0.1659
     15 F          -7.0487    2.7440   18.6093 F       1  UNL1       -0.1659
     16 C           1.2409    1.6052   20.5794 C.3     1  UNL1        0.0758
     17 C           2.6394    1.8504   20.0957 C.3     1  UNL1        0.0198
     18 C           3.4762    0.7047   19.6085 C.3     1  UNL1        0.0017
     19 C           2.9145   -0.6861   19.6050 C.3     1  UNL1        0.0001
     20 C           1.5159   -0.9313   20.0887 C.3     1  UNL1        0.0017
     21 C           0.6791    0.2143   20.5759 C.3     1  UNL1        0.0198
     22 C           3.7513   -1.8318   19.1179 C.3     1  UNL1        0.0000
     23 C           3.8246   -1.2004   17.7592 C.3     1  UNL1        0.0000
     24 C           3.6779   -2.4631   20.4765 C.3     1  UNL1        0.0000
     25 C           4.5880   -2.9774   18.6307 C.3     1  UNL1        0.0000
     26 C           0.8385    3.5401   22.2657 C.3     1  UNL1        0.1202
     27 C           1.2067    2.8327   23.5361 C.ar    1  UNL1       -0.0023
     28 C           0.1662    2.0633   24.2947 C.ar    1  UNL1       -0.0025
     29 C           0.5343    1.3558   25.5651 C.ar    1  UNL1        0.0043
     30 C           1.9430    1.4178   26.0770 C.ar    1  UNL1        0.0537
     31 C           2.9834    2.1872   25.3184 C.ar    1  UNL1        0.0043
     32 C           2.6153    2.8946   24.0480 C.ar    1  UNL1       -0.0025
     33 C           2.3111    0.7104   27.3474 C.2     1  UNL1        0.2517
     34 O           2.9688   -0.6366   27.2923 O.2     1  UNL1       -0.2697
     35 N           2.0215    1.3500   28.6730 N.am    1  UNL1       -0.2495
     36 H           1.5899    2.2340   28.7092 H       1  UNL1        0.1581
     37 C           2.3897    0.6425   29.9434 C.ar    1  UNL1        0.2389
     38 N           2.8847    1.2910   31.2022 N.ar    1  UNL1       -0.0922
     39 N           3.1284    0.2117   32.2149 N.ar    1  UNL1       -0.0216
     40 N           2.7840   -1.1040   31.5820 N.ar    1  UNL1       -0.0454
     41 N           2.3275   -0.8377   30.1782 N.ar    1  UNL1       -0.2269
     42 H           2.0378   -1.5154   29.5256 H       1  UNL1        0.1936
@<TRIPOS>BOND
     1     2     3    1
     2     3     4   ar
     3     4     1    1
     4     1    26    1
     5    26    27    1
     6    27    28   ar
     7    28    29   ar
     8    29    30   ar
     9    30    33    1
    10    33    34    2
    11    33    35   am
    12    35    37    1
    13    37    38   ar
    14    38    39   ar
    15    39    40   ar
    16    40    41   ar
    17    30    31   ar
    18    31    32   ar
    19    16     1    1
    20    16    17    1
    21    17    18    1
    22    18    19    1
    23    19    22    1
    24    22    23    1
    25    22    24    1
    26    22    25    1
    27    19    20    1
    28    20    21    1
    29     4     5   ar
    30     5     6   ar
    31     6     7   ar
    32     7     8   ar
    33     8    12    1
    34    12    13    1
    35    12    14    1
    36    12    15    1
    37     8     9   ar
    38     9    10   ar
    39    10    11   ar
    40    11     3   ar
    41    32    27   ar
    42    21    16    1
    43    11     6   ar
    44    41    37   ar
    45    35    36    1
    46    41    42    1
@<TRIPOS>MOLECULE
*****
 42 46 0 0 0
SMALL
GASTEIGER

@<TRIPOS>ATOM
      1 N           1.0477    2.4314   22.2711 N.pl3   1  UNL1       -0.2770
      2 C           2.3208    3.0982   19.3412 C.3     1  UNL1        0.1332
      3 N           2.3009    1.7552   20.0089 N.ar    1  UNL1       -0.2976
      4 C           1.7158    1.4487   21.3556 C.ar    1  UNL1        0.2014
      5 N           1.9160   -0.0130   21.6262 N.ar    1  UNL1       -0.2136
      6 C           2.6248   -0.6100   20.4467 C.ar    1  UNL1        0.0999
      7 C           3.0844   -2.0074   20.1537 C.ar    1  UNL1        0.0245
      8 C           3.7819   -2.3120   18.8611 C.ar    1  UNL1        0.0730
      9 C           4.0198   -1.2191   17.8616 C.ar    1  UNL1        0.0054
     10 C           3.5603    0.1783   18.1546 C.ar    1  UNL1        0.0187
     11 C           2.8628    0.4829   19.4471 C.ar    1  UNL1        0.0799
     12 C           4.2415   -3.7095   18.5681 C.3     1  UNL1        0.4186
     13 F           4.7010   -5.1070   18.2751 F       1  UNL1       -0.1659
     14 F           2.9159   -4.2414   19.0261 F       1  UNL1       -0.1659
     15 F           5.5671   -3.1776   18.1100 F       1  UNL1       -0.1659
     16 C          -0.3855    2.8120   22.0455 C.3     1  UNL1        0.0758
     17 C          -0.9807    2.7129   20.6722 C.3     1  UNL1        0.0198
     18 C          -2.4140    3.0935   20.4468 C.3     1  UNL1        0.0017
     19 C          -3.2521    3.5731   21.5945 C.3     1  UNL1        0.0001
     20 C          -2.6570    3.6722   22.9679 C.3     1  UNL1        0.0017
     21 C          -1.2237    3.2916   23.1934 C.3     1  UNL1        0.0198
     22 C          -4.6855    3.9537   21.3691 C.3     1  UNL1        0.0000
     23 C          -4.2937    4.6906   20.1227 C.3     1  UNL1        0.0000
     24 C          -5.0773    3.2168   22.6154 C.3     1  UNL1        0.0000
     25 C          -6.1187    4.3343   21.1436 C.3     1  UNL1        0.0000
     26 C           1.8129    3.0336   23.4120 C.3     1  UNL1        0.1202
     27 C           2.2390    2.1747   24.5656 C.ar    1  UNL1       -0.0023
     28 C           3.6240    1.5996   24.6012 C.ar    1  UNL1       -0.0025
     29 C           4.0500    0.7407   25.7547 C.ar    1  UNL1        0.0043
     30 C           3.0911    0.4569   26.8728 C.ar    1  UNL1        0.0537
     31 C           1.7062    1.0319   26.8372 C.ar    1  UNL1        0.0043
     32 C           1.2801    1.8908   25.6836 C.ar    1  UNL1       -0.0025
     33 C           3.5171   -0.4021   28.0264 C.2     1  UNL1        0.2517
     34 O           3.9366   -1.8225   27.7891 O.2     1  UNL1       -0.2697
     35 N           3.5236    0.1595   29.4173 N.am    1  UNL1       -0.2495
     36 H           3.2483    1.0918   29.5731 H       1  UNL1        0.1581
     37 C           3.9497   -0.6994   30.5709 C.ar    1  UNL1        0.2389
     38 N           3.1574   -0.9568   31.8183 N.ar    1  UNL1       -0.0922
     39 N           3.9609   -1.8682   32.6980 N.ar    1  UNL1       -0.0216
     40 N           5.2497   -2.1740   31.9942 N.ar    1  UNL1       -0.0454
     41 N           5.2428   -1.4517   30.6797 N.ar    1  UNL1       -0.2269
     42 H           5.9609   -1.4684   30.0064 H       1  UNL1        0.1936
@<TRIPOS>BOND
     1     2     3    1
     2     3     4   ar
     3     4     1    1
     4     1    26    1
     5    26    27    1
     6    27    28   ar
     7    28    29   ar
     8    29    30   ar
     9    30    33    1
    10    33    34    2
    11    33    35   am
    12    35    37    1
    13    37    38   ar
    14    38    39   ar
    15    39    40   ar
    16    40    41   ar
    17    30    31   ar
    18    31    32   ar
    19    16     1    1
    20    16    17    1
    21    17    18    1
    22    18    19    1
    23    19    22    1
    24    22    23    1
    25    22    24    1
    26    22    25    1
    27    19    20    1
    28    20    21    1
    29     4     5   ar
    30     5     6   ar
    31     6     7   ar
    32     7     8   ar
    33     8    12    1
    34    12    13    1
    35    12    14    1
    36    12    15    1
    37     8     9   ar
    38     9    10   ar
    39    10    11   ar
    40    11     3   ar
    41    32    27   ar
    42    21    16    1
    43    11     6   ar
    44    41    37   ar
    45    35    36    1
    46    41    42    1
@<TRIPOS>MOLECULE
*****
 42 46 0 0 0
SMALL
GASTEIGER

@<TRIPOS>ATOM
      1 N           0.7033    2.8040   20.5619 N.pl3   1  UNL1       -0.2770
      2 C           3.0595    3.0588   18.3184 C.3     1  UNL1        0.1332
      3 N           2.6221    1.7952   18.9980 N.ar    1  UNL1       -0.2976
      4 C           1.5391    1.6780   20.0292 C.ar    1  UNL1        0.2014
      5 N           1.4386    0.2372   20.4341 N.ar    1  UNL1       -0.2136
      6 C           2.4595   -0.5361   19.6532 C.ar    1  UNL1        0.0999
      7 C           2.8175   -1.9926   19.6357 C.ar    1  UNL1        0.0245
      8 C           3.9070   -2.4862   18.7306 C.ar    1  UNL1        0.0730
      9 C           4.6384   -1.5234   17.8430 C.ar    1  UNL1        0.0054
     10 C           4.2804   -0.0668   17.8605 C.ar    1  UNL1        0.0187
     11 C           3.1909    0.4268   18.7656 C.ar    1  UNL1        0.0799
     12 C           4.2651   -3.9428   18.7130 C.3     1  UNL1        0.4186
     13 F           4.6232   -5.3993   18.6955 F       1  UNL1       -0.1659
     14 F           5.6624   -3.5942   18.2938 F       1  UNL1       -0.1659
     15 F           2.8677   -4.2914   19.1322 F       1  UNL1       -0.1659
     16 C          -0.5531    3.2078   19.8490 C.3     1  UNL1        0.0758
     17 C          -0.5002    3.6073   18.4041 C.3     1  UNL1        0.0198
     18 C          -1.7567    4.0112   17.6912 C.3     1  UNL1        0.0017
     19 C          -3.0660    4.0156   18.4231 C.3     1  UNL1        0.0001
     20 C          -3.1188    3.6161   19.8680 C.3     1  UNL1        0.0017
     21 C          -1.8624    3.2122   20.5809 C.3     1  UNL1        0.0198
     22 C          -4.3225    4.4194   17.7102 C.3     1  UNL1        0.0000
     23 C          -4.7463    5.2160   18.9085 C.3     1  UNL1        0.0000
     24 C          -3.8987    3.6229   16.5120 C.3     1  UNL1        0.0000
     25 C          -5.5789    4.8233   16.9974 C.3     1  UNL1        0.0000
     26 C           1.1240    3.5261   21.8075 C.3     1  UNL1        0.1202
     27 C           1.5294    2.7485   23.0245 C.ar    1  UNL1       -0.0023
     28 C           0.5375    1.8550   23.7084 C.ar    1  UNL1       -0.0025
     29 C           0.9430    1.0774   24.9254 C.ar    1  UNL1        0.0043
     30 C           2.3403    1.1935   25.4584 C.ar    1  UNL1        0.0537
     31 C           3.3321    2.0870   24.7745 C.ar    1  UNL1        0.0043
     32 C           2.9267    2.8645   23.5575 C.ar    1  UNL1       -0.0025
     33 C           2.7458    0.4160   26.6754 C.2     1  UNL1        0.2517
     34 O           3.5160   -0.8625   26.5264 O.2     1  UNL1       -0.2697
     35 N           2.3809    0.9169   28.0415 N.am    1  UNL1       -0.2495
     36 H           1.8754    1.7560   28.1393 H       1  UNL1        0.1581
     37 C           2.7864    0.1394   29.2585 C.ar    1  UNL1        0.2389
     38 N           1.8770   -0.2998   30.3675 N.ar    1  UNL1       -0.0922
     39 N           2.7010   -1.0461   31.3746 N.ar    1  UNL1       -0.0216
     40 N           4.1196   -1.0681   30.8879 N.ar    1  UNL1       -0.0454
     41 N           4.1724   -0.3354   29.5801 N.ar    1  UNL1       -0.2269
     42 H           4.9757   -0.1915   29.0294 H       1  UNL1        0.1936
@<TRIPOS>BOND
     1     2     3    1
     2     3     4   ar
     3     4     1    1
     4     1    26    1
     5    26    27    1
     6    27    28   ar
     7    28    29   ar
     8    29    30   ar
     9    30    33    1
    10    33    34    2
    11    33    35   am
    12    35    37    1
    13    37    38   ar
    14    38    39   ar
    15    39    40   ar
    16    40    41   ar
    17    30    31   ar
    18    31    32   ar
    19    16     1    1
    20    16    17    1
    21    17    18    1
    22    18    19    1
    23    19    22    1
    24    22    23    1
    25    22    24    1
    26    22    25    1
    27    19    20    1
    28    20    21    1
    29     4     5   ar
    30     5     6   ar
    31     6     7   ar
    32     7     8   ar
    33     8    12    1
    34    12    13    1
    35    12    14    1
    36    12    15    1
    37     8     9   ar
    38     9    10   ar
    39    10    11   ar
    40    11     3   ar
    41    32    27   ar
    42    21    16    1
    43    11     6   ar
    44    41    37   ar
    45    35    36    1
    46    41    42    1
@<TRIPOS>MOLECULE
*****
 42 46 0 0 0
SMALL
GASTEIGER

@<TRIPOS>ATOM
      1 N           1.3577    2.3123   22.7419 N.pl3   1  UNL1       -0.2770
      2 C           4.5604    2.5377   22.1575 C.3     1  UNL1        0.1332
      3 N           3.6699    1.3976   21.7612 N.ar    1  UNL1       -0.2976
      4 C           2.1978    1.2940   22.0298 C.ar    1  UNL1        0.2014
      5 N           1.7134   -0.0068   21.4612 N.ar    1  UNL1       -0.2136
      6 C           2.8860   -0.7071   20.8412 C.ar    1  UNL1        0.0999
      7 C           3.0089   -2.0230   20.1318 C.ar    1  UNL1        0.0245
      8 C           4.3411   -2.4709   19.6078 C.ar    1  UNL1        0.0730
      9 C           5.5503   -1.6030   19.7932 C.ar    1  UNL1        0.0054
     10 C           5.4274   -0.2871   20.5026 C.ar    1  UNL1        0.0187
     11 C           4.0953    0.1608   21.0266 C.ar    1  UNL1        0.0799
     12 C           4.4641   -3.7869   18.8984 C.3     1  UNL1        0.4186
     13 F           4.5871   -5.1027   18.1889 F       1  UNL1       -0.1659
     14 F           5.3600   -3.1522   17.8764 F       1  UNL1       -0.1659
     15 F           3.5682   -4.4216   19.9203 F       1  UNL1       -0.1659
     16 C           1.1407    2.2029   24.2221 C.3     1  UNL1        0.0758
     17 C           2.0259    2.9592   25.1678 C.3     1  UNL1        0.0198
     18 C           1.8088    2.8498   26.6481 C.3     1  UNL1        0.0017
     19 C           0.7065    1.9841   27.1824 C.3     1  UNL1        0.0001
     20 C          -0.1787    1.2278   26.2367 C.3     1  UNL1        0.0017
     21 C           0.0384    1.3372   24.7565 C.3     1  UNL1        0.0198
     22 C           0.4894    1.8746   28.6627 C.3     1  UNL1        0.0000
     23 C           1.2786    3.1330   28.8714 C.3     1  UNL1        0.0000
     24 C          -0.2998    0.6163   28.4539 C.3     1  UNL1        0.0000
     25 C           0.2723    1.7652   30.1428 C.3     1  UNL1        0.0000
     26 C           0.7346    3.4401   21.9739 C.3     1  UNL1        0.1202
     27 C          -0.6447    3.9141   22.3242 C.ar    1  UNL1       -0.0023
     28 C          -0.8290    4.9939   23.3490 C.ar    1  UNL1       -0.0025
     29 C          -2.2083    5.4680   23.6993 C.ar    1  UNL1        0.0043
     30 C          -3.4034    4.8622   23.0248 C.ar    1  UNL1        0.0537
     31 C          -3.2191    3.7825   22.0000 C.ar    1  UNL1        0.0043
     32 C          -1.8397    3.3084   21.6498 C.ar    1  UNL1       -0.0025
     33 C          -4.7828    5.3362   23.3751 C.2     1  UNL1        0.2517
     34 O          -5.1714    6.7632   23.1252 O.2     1  UNL1       -0.2697
     35 N          -5.7735    4.3831   23.9752 N.am    1  UNL1       -0.2495
     36 H          -5.5184    3.4465   24.1392 H       1  UNL1        0.1581
     37 C          -7.1528    4.8571   24.3255 C.ar    1  UNL1        0.2389
     38 N          -8.4322    4.3878   23.6986 N.ar    1  UNL1       -0.0922
     39 N          -9.5650    5.1243   24.3498 N.ar    1  UNL1       -0.0216
     40 N          -8.9859    6.0489   25.3792 N.ar    1  UNL1       -0.0454
     41 N          -7.4951    5.8838   25.3642 N.ar    1  UNL1       -0.2269
     42 H          -6.8538    6.3648   25.9357 H       1  UNL1        0.1936
@<TRIPOS>BOND
     1     2     3    1
     2     3     4   ar
     3     4     1    1
     4     1    26    1
     5    26    27    1
     6    27    28   ar
     7    28    29   ar
     8    29    30   ar
     9    30    33    1
    10    33    34    2
    11    33    35   am
    12    35    37    1
    13    37    38   ar
    14    38    39   ar
    15    39    40   ar
    16    40    41   ar
    17    30    31   ar
    18    31    32   ar
    19    16     1    1
    20    16    17    1
    21    17    18    1
    22    18    19    1
    23    19    22    1
    24    22    23    1
    25    22    24    1
    26    22    25    1
    27    19    20    1
    28    20    21    1
    29     4     5   ar
    30     5     6   ar
    31     6     7   ar
    32     7     8   ar
    33     8    12    1
    34    12    13    1
    35    12    14    1
    36    12    15    1
    37     8     9   ar
    38     9    10   ar
    39    10    11   ar
    40    11     3   ar
    41    32    27   ar
    42    21    16    1
    43    11     6   ar
    44    41    37   ar
    45    35    36    1
    46    41    42    1
@<TRIPOS>MOLECULE
*****
 42 46 0 0 0
SMALL
GASTEIGER

@<TRIPOS>ATOM
      1 N           2.5266    0.4325   25.0424 N.pl3   1  UNL1       -0.2770
      2 C           2.9896    3.6588   25.2058 C.3     1  UNL1        0.1332
      3 N           1.6963    2.9401   25.4523 N.ar    1  UNL1       -0.2976
      4 C           1.4834    1.4571   25.3772 C.ar    1  UNL1        0.2014
      5 N           0.0443    1.1787   25.6957 N.ar    1  UNL1       -0.2136
      6 C          -0.6323    2.4896   25.9676 C.ar    1  UNL1        0.0999
      7 C          -2.0461    2.8326   26.3327 C.ar    1  UNL1        0.0245
      8 C          -2.4390    4.2642   26.5475 C.ar    1  UNL1        0.0730
      9 C          -1.4180    5.3527   26.3971 C.ar    1  UNL1        0.0054
     10 C          -0.0042    5.0097   26.0320 C.ar    1  UNL1        0.0187
     11 C           0.3887    3.5781   25.8172 C.ar    1  UNL1        0.0799
     12 C          -3.8529    4.6072   26.9126 C.3     1  UNL1        0.4186
     13 F          -5.2667    4.9503   27.2777 F       1  UNL1       -0.1659
     14 F          -4.3503    3.5170   26.0106 F       1  UNL1       -0.1659
     15 F          -3.3554    5.6975   27.8147 F       1  UNL1       -0.1659
     16 C           2.7648    0.0441   23.6133 C.3     1  UNL1        0.0758
     17 C           3.6825   -1.0974   23.2894 C.3     1  UNL1        0.0198
     18 C           3.9207   -1.4859   21.8602 C.3     1  UNL1        0.0017
     19 C           3.2412   -0.7329   20.7551 C.3     1  UNL1        0.0001
     20 C           2.3235    0.4085   21.0791 C.3     1  UNL1        0.0017
     21 C           2.0853    0.7970   22.5081 C.3     1  UNL1        0.0198
     22 C           3.4794   -1.1214   19.3260 C.3     1  UNL1        0.0000
     23 C           3.4407    0.3239   18.9267 C.3     1  UNL1        0.0000
     24 C           3.5182   -2.5667   19.7252 C.3     1  UNL1        0.0000
     25 C           3.7176   -1.5098   17.8969 C.3     1  UNL1        0.0000
     26 C           3.3315   -0.2036   26.1367 C.3     1  UNL1        0.1202
     27 C           3.0842    0.1753   27.5668 C.ar    1  UNL1       -0.0023
     28 C           3.7775    1.3671   28.1576 C.ar    1  UNL1       -0.0025
     29 C           3.5303    1.7459   29.5878 C.ar    1  UNL1        0.0043
     30 C           2.5898    0.9329   30.4272 C.ar    1  UNL1        0.0537
     31 C           1.8965   -0.2588   29.8364 C.ar    1  UNL1        0.0043
     32 C           2.1437   -0.6376   28.4062 C.ar    1  UNL1       -0.0025
     33 C           2.3425    1.3118   31.8573 C.2     1  UNL1        0.2517
     34 O           0.9825    1.7774   32.2855 O.2     1  UNL1       -0.2697
     35 N           3.4554    1.2249   32.8593 N.am    1  UNL1       -0.2495
     36 H           4.3481    0.9193   32.5783 H       1  UNL1        0.1581
     37 C           3.2082    1.6038   34.2895 C.ar    1  UNL1        0.2389
     38 N           4.0258    1.1709   35.4702 N.ar    1  UNL1       -0.0922
     39 N           3.4228    1.7816   36.7005 N.ar    1  UNL1       -0.0216
     40 N           2.2326    2.5919   36.2801 N.ar    1  UNL1       -0.0454
     41 N           2.1000    2.4820   34.7900 N.ar    1  UNL1       -0.2269
     42 H           1.4072    2.9110   34.2376 H       1  UNL1        0.1936
@<TRIPOS>BOND
     1     2     3    1
     2     3     4   ar
     3     4     1    1
     4     1    26    1
     5    26    27    1
     6    27    28   ar
     7    28    29   ar
     8    29    30   ar
     9    30    33    1
    10    33    34    2
    11    33    35   am
    12    35    37    1
    13    37    38   ar
    14    38    39   ar
    15    39    40   ar
    16    40    41   ar
    17    30    31   ar
    18    31    32   ar
    19    16     1    1
    20    16    17    1
    21    17    18    1
    22    18    19    1
    23    19    22    1
    24    22    23    1
    25    22    24    1
    26    22    25    1
    27    19    20    1
    28    20    21    1
    29     4     5   ar
    30     5     6   ar
    31     6     7   ar
    32     7     8   ar
    33     8    12    1
    34    12    13    1
    35    12    14    1
    36    12    15    1
    37     8     9   ar
    38     9    10   ar
    39    10    11   ar
    40    11     3   ar
    41    32    27   ar
    42    21    16    1
    43    11     6   ar
    44    41    37   ar
    45    35    36    1
    46    41    42    1
@<TRIPOS>MOLECULE
*****
 42 46 0 0 0
SMALL
GASTEIGER

@<TRIPOS>ATOM
      1 N           3.0689    0.3599   25.2750 N.pl3   1  UNL1       -0.2770
      2 C           1.9866    1.4268   22.3870 C.3     1  UNL1        0.1332
      3 N           2.6934    0.1279   22.6386 N.ar    1  UNL1       -0.2976
      4 C           3.1909   -0.3625   23.9661 C.ar    1  UNL1        0.2014
      5 N           3.8317   -1.7021   23.7547 N.ar    1  UNL1       -0.2136
      6 C           3.7304   -2.0397   22.2967 C.ar    1  UNL1        0.0999
      7 C           4.1878   -3.2308   21.5081 C.ar    1  UNL1        0.0245
      8 C           3.9417   -3.2909   20.0297 C.ar    1  UNL1        0.0730
      9 C           3.2382   -2.1599   19.3399 C.ar    1  UNL1        0.0054
     10 C           2.7807   -0.9688   20.1285 C.ar    1  UNL1        0.0187
     11 C           3.0268   -0.9087   21.6069 C.ar    1  UNL1        0.0799
     12 C           4.3991   -4.4821   19.2410 C.3     1  UNL1        0.4186
     13 F           4.8566   -5.6732   18.4524 F       1  UNL1       -0.1659
     14 F           5.8049   -3.9597   19.2675 F       1  UNL1       -0.1659
     15 F           2.9933   -5.0044   19.2145 F       1  UNL1       -0.1659
     16 C           1.9694    1.3593   25.4804 C.3     1  UNL1        0.0758
     17 C           2.2853    2.8252   25.5162 C.3     1  UNL1        0.0198
     18 C           1.1857    3.8247   25.7216 C.3     1  UNL1        0.0017
     19 C          -0.2297    3.3582   25.8912 C.3     1  UNL1        0.0001
     20 C          -0.5457    1.8923   25.8555 C.3     1  UNL1        0.0017
     21 C           0.5538    0.8929   25.6500 C.3     1  UNL1        0.0198
     22 C          -1.3293    4.3576   26.0967 C.3     1  UNL1        0.0000
     23 C          -1.8540    4.0626   24.7228 C.3     1  UNL1        0.0000
     24 C          -0.8046    4.6526   27.4706 C.3     1  UNL1        0.0000
     25 C          -2.4288    5.3570   26.3020 C.3     1  UNL1        0.0000
     26 C           4.0463    0.0829   26.3785 C.3     1  UNL1        0.1202
     27 C           3.6828    0.3982   27.7992 C.ar    1  UNL1       -0.0023
     28 C           4.2324    1.6283   28.4587 C.ar    1  UNL1       -0.0025
     29 C           3.8689    1.9436   29.8794 C.ar    1  UNL1        0.0043
     30 C           2.9556    1.0289   30.6406 C.ar    1  UNL1        0.0537
     31 C           2.4061   -0.2011   29.9810 C.ar    1  UNL1        0.0043
     32 C           2.7696   -0.5164   28.5603 C.ar    1  UNL1       -0.0025
     33 C           2.5921    1.3442   32.0613 C.2     1  UNL1        0.2517
     34 O           1.1799    1.7099   32.4106 O.2     1  UNL1       -0.2697
     35 N           3.6408    1.2938   33.1327 N.am    1  UNL1       -0.2495
     36 H           4.5676    1.0538   32.9034 H       1  UNL1        0.1581
     37 C           3.2772    1.6092   34.5534 C.ar    1  UNL1        0.2389
     38 N           3.9776    1.0975   35.7771 N.ar    1  UNL1       -0.0922
     39 N           3.2827    1.6636   36.9798 N.ar    1  UNL1       -0.0216
     40 N           2.1527    2.5252   36.4994 N.ar    1  UNL1       -0.0454
     41 N           2.1493    2.4915   34.9998 N.ar    1  UNL1       -0.2269
     42 H           1.5177    2.9654   34.4118 H       1  UNL1        0.1936
@<TRIPOS>BOND
     1     2     3    1
     2     3     4   ar
     3     4     1    1
     4     1    26    1
     5    26    27    1
     6    27    28   ar
     7    28    29   ar
     8    29    30   ar
     9    30    33    1
    10    33    34    2
    11    33    35   am
    12    35    37    1
    13    37    38   ar
    14    38    39   ar
    15    39    40   ar
    16    40    41   ar
    17    30    31   ar
    18    31    32   ar
    19    16     1    1
    20    16    17    1
    21    17    18    1
    22    18    19    1
    23    19    22    1
    24    22    23    1
    25    22    24    1
    26    22    25    1
    27    19    20    1
    28    20    21    1
    29     4     5   ar
    30     5     6   ar
    31     6     7   ar
    32     7     8   ar
    33     8    12    1
    34    12    13    1
    35    12    14    1
    36    12    15    1
    37     8     9   ar
    38     9    10   ar
    39    10    11   ar
    40    11     3   ar
    41    32    27   ar
    42    21    16    1
    43    11     6   ar
    44    41    37   ar
    45    35    36    1
    46    41    42    1
@<TRIPOS>MOLECULE
*****
 42 46 0 0 0
SMALL
GASTEIGER

@<TRIPOS>ATOM
      1 N           5.3877   -0.6435   29.0487 N.pl3   1  UNL1       -0.2770
      2 C           5.8988   -1.0696   25.8539 C.3     1  UNL1        0.1332
      3 N           6.0930   -2.1032   26.9235 N.ar    1  UNL1       -0.2976
      4 C           5.8581   -1.9073   28.3920 C.ar    1  UNL1        0.2014
      5 N           6.1762   -3.1972   29.0884 N.ar    1  UNL1       -0.2136
      6 C           6.6078   -4.1903   28.0503 C.ar    1  UNL1        0.0999
      7 C           7.0409   -5.6229   28.1505 C.ar    1  UNL1        0.0245
      8 C           7.4226   -6.3793   26.9128 C.ar    1  UNL1        0.0730
      9 C           7.3712   -5.7032   25.5748 C.ar    1  UNL1        0.0054
     10 C           6.9380   -4.2706   25.4746 C.ar    1  UNL1        0.0187
     11 C           6.5563   -3.5142   26.7123 C.ar    1  UNL1        0.0799
     12 C           7.8557   -7.8120   27.0130 C.3     1  UNL1        0.4186
     13 F           8.2888   -9.2446   27.1131 F       1  UNL1       -0.1659
     14 F           6.7239   -8.2169   26.1158 F       1  UNL1       -0.1659
     15 F           8.9875   -7.4071   27.9102 F       1  UNL1       -0.1659
     16 C           4.0513   -0.0643   28.6900 C.3     1  UNL1        0.0758
     17 C           3.9730    1.2234   27.9248 C.3     1  UNL1        0.0198
     18 C           2.6366    1.8026   27.5660 C.3     1  UNL1        0.0017
     19 C           1.3786    1.0940   27.9724 C.3     1  UNL1        0.0001
     20 C           1.4569   -0.1938   28.7376 C.3     1  UNL1        0.0017
     21 C           2.7932   -0.7729   29.0964 C.3     1  UNL1        0.0198
     22 C           0.0422    1.6731   27.6137 C.3     1  UNL1        0.0000
     23 C           0.6823    2.4703   26.5161 C.3     1  UNL1        0.0000
     24 C          -0.5980    0.8760   28.7113 C.3     1  UNL1        0.0000
     25 C          -1.2942    2.2522   27.2549 C.3     1  UNL1        0.0000
     26 C           6.2536    0.0412   30.0643 C.3     1  UNL1        0.1202
     27 C           5.7623    0.2204   31.4702 C.ar    1  UNL1       -0.0023
     28 C           6.0268    1.5044   32.1992 C.ar    1  UNL1       -0.0025
     29 C           5.5355    1.6836   33.6051 C.ar    1  UNL1        0.0043
     30 C           4.7797    0.5788   34.2820 C.ar    1  UNL1        0.0537
     31 C           4.5151   -0.7052   33.5529 C.ar    1  UNL1        0.0043
     32 C           5.0064   -0.8843   32.1470 C.ar    1  UNL1       -0.0025
     33 C           4.2884    0.7579   35.6878 C.2     1  UNL1        0.2517
     34 O           4.7528   -0.1724   36.7689 O.2     1  UNL1       -0.2697
     35 N           3.3326    1.8675   36.0126 N.am    1  UNL1       -0.2495
     36 H           3.0277    2.4781   35.3031 H       1  UNL1        0.1581
     37 C           2.8413    2.0466   37.4185 C.ar    1  UNL1        0.2389
     38 N           3.0753    3.2462   38.2882 N.ar    1  UNL1       -0.0922
     39 N           2.4084    2.9987   39.6087 N.ar    1  UNL1       -0.0216
     40 N           1.7621    1.6461   39.5553 N.ar    1  UNL1       -0.0454
     41 N           2.0297    1.0577   38.2017 N.ar    1  UNL1       -0.2269
     42 H           1.7260    0.1771   37.8832 H       1  UNL1        0.1936
@<TRIPOS>BOND
     1     2     3    1
     2     3     4   ar
     3     4     1    1
     4     1    26    1
     5    26    27    1
     6    27    28   ar
     7    28    29   ar
     8    29    30   ar
     9    30    33    1
    10    33    34    2
    11    33    35   am
    12    35    37    1
    13    37    38   ar
    14    38    39   ar
    15    39    40   ar
    16    40    41   ar
    17    30    31   ar
    18    31    32   ar
    19    16     1    1
    20    16    17    1
    21    17    18    1
    22    18    19    1
    23    19    22    1
    24    22    23    1
    25    22    24    1
    26    22    25    1
    27    19    20    1
    28    20    21    1
    29     4     5   ar
    30     5     6   ar
    31     6     7   ar
    32     7     8   ar
    33     8    12    1
    34    12    13    1
    35    12    14    1
    36    12    15    1
    37     8     9   ar
    38     9    10   ar
    39    10    11   ar
    40    11     3   ar
    41    32    27   ar
    42    21    16    1
    43    11     6   ar
    44    41    37   ar
    45    35    36    1
    46    41    42    1
