@<TRIPOS>MOLECULE
*****
 28 30 0 0 0
SMALL
GASTEIGER

@<TRIPOS>ATOM
      1 C           7.2894   -4.1815   28.6847 C.2     1  UNL1        0.2503
      2 O           8.7693   -4.1314   28.4454 O.2     1  UNL1       -0.2698
      3 N           6.3937   -4.8748   27.7014 N.am    1  UNL1       -0.2804
      4 H           5.4224   -4.9077   27.8585 H       1  UNL1        0.1552
      5 C           5.5367   -2.2514   32.3526 C.ar    1  UNL1        0.1066
      6 C           5.5156   -1.5253   31.0402 C.ar    1  UNL1        0.0185
      7 C           6.0998   -2.1687   29.8176 C.ar    1  UNL1        0.0067
      8 C           6.7052   -3.5381   29.9073 C.ar    1  UNL1        0.0643
      9 C           6.7263   -4.2642   31.2197 C.ar    1  UNL1        0.0633
     10 CL          7.3317   -5.6338   31.3094 Cl      1  UNL1       -0.0821
     11 C           6.1421   -3.6209   32.4423 C.ar    1  UNL1        0.0299
     12 C           4.3683   -0.9647   34.7978 C.3     1  UNL1        0.1816
     13 S           4.9525   -1.6081   33.5752 S.O2    1  UNL1        0.0105
     14 O           5.9937   -0.5306   33.5057 O.2     1  UNL1       -0.1686
     15 O           3.9112   -2.6856   33.6446 O.2     1  UNL1       -0.1686
     16 C           6.9780   -5.5182   26.4788 C.ar    1  UNL1        0.0506
     17 C           7.4170   -6.9519   26.5228 C.ar    1  UNL1        0.0155
     18 C           8.0012   -7.5952   25.3002 C.ar    1  UNL1        0.0127
     19 C           8.1464   -6.8049   24.0336 C.ar    1  UNL1        0.0592
     20 CL          8.7306   -7.4482   22.8110 Cl      1  UNL1       -0.0822
     21 C           7.7074   -5.3713   23.9896 C.ar    1  UNL1        0.0295
     22 C           7.1231   -4.7279   25.2122 C.ar    1  UNL1        0.0170
     23 C           7.8525   -4.5810   22.7229 C.ar    1  UNL1        0.0822
     24 C           9.1340   -3.8572   22.4332 C.ar    1  UNL1        0.0192
     25 C           9.2792   -3.0670   21.1665 C.ar    1  UNL1        0.0031
     26 C           8.1429   -3.0005   20.1896 C.ar    1  UNL1        0.0207
     27 C           6.8614   -3.7243   20.4793 C.ar    1  UNL1        0.0988
     28 N           6.7162   -4.5145   21.7460 N.ar    1  UNL1       -0.2438
@<TRIPOS>BOND
     1    12    13    1
     2    13    14    2
     3    13    15    2
     4    13     5    1
     5     5     6   ar
     6     6     7   ar
     7     7     8   ar
     8     8     1    1
     9     1     2    2
    10     1     3   am
    11     3    16    1
    12    16    17   ar
    13    17    18   ar
    14    18    19   ar
    15    19    20    1
    16    19    21   ar
    17    21    23    1
    18    23    24   ar
    19    24    25   ar
    20    25    26   ar
    21    26    27   ar
    22    27    28   ar
    23    21    22   ar
    24     8     9   ar
    25     9    10    1
    26     9    11   ar
    27    11     5   ar
    28    22    16   ar
    29    28    23   ar
    30     3     4    1
@<TRIPOS>MOLECULE
*****
 28 30 0 0 0
SMALL
GASTEIGER

@<TRIPOS>ATOM
      1 C           6.7488   -3.8173   22.4665 C.2     1  UNL1        0.2503
      2 O           7.6349   -2.6981   22.0061 O.2     1  UNL1       -0.2698
      3 N           5.4456   -4.0769   21.7707 N.am    1  UNL1       -0.2804
      4 H           4.8640   -4.8115   22.0729 H       1  UNL1        0.1552
      5 C           8.0001   -6.3963   25.9354 C.ar    1  UNL1        0.1066
      6 C           7.0062   -5.2920   26.1420 C.ar    1  UNL1        0.0185
      7 C           6.5892   -4.4324   24.9857 C.ar    1  UNL1        0.0067
      8 C           7.1659   -4.6770   23.6228 C.ar    1  UNL1        0.0643
      9 C           8.1598   -5.7813   23.4163 C.ar    1  UNL1        0.0633
     10 CL          8.7366   -6.0260   22.0533 Cl      1  UNL1       -0.0821
     11 C           8.5768   -6.6410   24.5726 C.ar    1  UNL1        0.0299
     12 C           8.8343   -8.1156   28.2480 C.3     1  UNL1        0.1816
     13 S           8.4172   -7.2560   27.0917 S.O2    1  UNL1        0.0105
     14 O           7.8105   -8.4526   26.4209 O.2     1  UNL1       -0.1686
     15 O           9.0239   -6.0593   27.7625 O.2     1  UNL1       -0.1686
     16 C           5.0285   -3.2173   20.6144 C.ar    1  UNL1        0.0506
     17 C           5.6270   -3.4432   19.2576 C.ar    1  UNL1        0.0155
     18 C           5.2099   -2.5836   18.1013 C.ar    1  UNL1        0.0127
     19 C           4.1944   -1.4980   18.3018 C.ar    1  UNL1        0.0592
     20 CL          3.7773   -0.6383   17.1455 Cl      1  UNL1       -0.0822
     21 C           3.5960   -1.2720   19.6585 C.ar    1  UNL1        0.0295
     22 C           4.0130   -2.1317   20.8148 C.ar    1  UNL1        0.0170
     23 C           2.5805   -0.1865   19.8590 C.ar    1  UNL1        0.0822
     24 C           1.1450   -0.5399   20.1132 C.ar    1  UNL1        0.0192
     25 C           0.1295    0.5458   20.3137 C.ar    1  UNL1        0.0031
     26 C           0.5494    1.9848   20.2599 C.ar    1  UNL1        0.0207
     27 C           1.9849    2.3382   20.0057 C.ar    1  UNL1        0.0988
     28 N           3.0004    1.2526   19.8052 N.ar    1  UNL1       -0.2438
@<TRIPOS>BOND
     1    12    13    1
     2    13    14    2
     3    13    15    2
     4    13     5    1
     5     5     6   ar
     6     6     7   ar
     7     7     8   ar
     8     8     1    1
     9     1     2    2
    10     1     3   am
    11     3    16    1
    12    16    17   ar
    13    17    18   ar
    14    18    19   ar
    15    19    20    1
    16    19    21   ar
    17    21    23    1
    18    23    24   ar
    19    24    25   ar
    20    25    26   ar
    21    26    27   ar
    22    27    28   ar
    23    21    22   ar
    24     8     9   ar
    25     9    10    1
    26     9    11   ar
    27    11     5   ar
    28    22    16   ar
    29    28    23   ar
    30     3     4    1
@<TRIPOS>MOLECULE
*****
 28 30 0 0 0
SMALL
GASTEIGER

@<TRIPOS>ATOM
      1 C           6.3332   -3.3989   24.2321 C.2     1  UNL1        0.2503
      2 O           7.4410   -2.6734   23.5275 O.2     1  UNL1       -0.2698
      3 N           5.0303   -3.6420   23.5298 N.am    1  UNL1       -0.2804
      4 H           4.3032   -4.1181   23.9922 H       1  UNL1        0.1552
      5 C           6.9187   -4.8461   28.4526 C.ar    1  UNL1        0.1066
      6 C           7.1474   -5.7797   27.3011 C.ar    1  UNL1        0.0185
      7 C           6.9522   -5.2973   25.8942 C.ar    1  UNL1        0.0067
      8 C           6.5284   -3.8813   25.6389 C.ar    1  UNL1        0.0643
      9 C           6.2997   -2.9477   26.7905 C.ar    1  UNL1        0.0633
     10 CL          5.8758   -1.5316   26.5352 Cl      1  UNL1       -0.0821
     11 C           6.4948   -3.4301   28.1973 C.ar    1  UNL1        0.0299
     12 C           7.3090   -5.8110   31.2663 C.3     1  UNL1        0.1816
     13 S           7.1138   -5.3286   29.8594 S.O2    1  UNL1        0.0105
     14 O           7.7405   -6.5887   29.3404 O.2     1  UNL1       -0.1686
     15 O           6.4872   -4.0685   30.3785 O.2     1  UNL1       -0.1686
     16 C           4.8351   -3.1595   22.1230 C.ar    1  UNL1        0.0506
     17 C           5.5659   -3.8241   20.9941 C.ar    1  UNL1        0.0155
     18 C           5.3707   -3.3417   19.5872 C.ar    1  UNL1        0.0127
     19 C           4.4448   -2.1947   19.3093 C.ar    1  UNL1        0.0592
     20 CL          4.2497   -1.7123   17.9025 Cl      1  UNL1       -0.0822
     21 C           3.7142   -1.5302   20.4382 C.ar    1  UNL1        0.0295
     22 C           3.9093   -2.0126   21.8450 C.ar    1  UNL1        0.0170
     23 C           2.7883   -0.3832   20.1603 C.ar    1  UNL1        0.0822
     24 C           1.3040   -0.5993   20.1652 C.ar    1  UNL1        0.0192
     25 C           0.3782    0.5477   19.8873 C.ar    1  UNL1        0.0031
     26 C           0.9367    1.9108   19.6044 C.ar    1  UNL1        0.0207
     27 C           2.4210    2.1269   19.5994 C.ar    1  UNL1        0.0988
     28 N           3.3468    0.9799   19.8774 N.ar    1  UNL1       -0.2438
@<TRIPOS>BOND
     1    12    13    1
     2    13    14    2
     3    13    15    2
     4    13     5    1
     5     5     6   ar
     6     6     7   ar
     7     7     8   ar
     8     8     1    1
     9     1     2    2
    10     1     3   am
    11     3    16    1
    12    16    17   ar
    13    17    18   ar
    14    18    19   ar
    15    19    20    1
    16    19    21   ar
    17    21    23    1
    18    23    24   ar
    19    24    25   ar
    20    25    26   ar
    21    26    27   ar
    22    27    28   ar
    23    21    22   ar
    24     8     9   ar
    25     9    10    1
    26     9    11   ar
    27    11     5   ar
    28    22    16   ar
    29    28    23   ar
    30     3     4    1
@<TRIPOS>MOLECULE
*****
 28 30 0 0 0
SMALL
GASTEIGER

@<TRIPOS>ATOM
      1 C          -1.0523    2.8627   21.0884 C.2     1  UNL1        0.2503
      2 O           0.1029    3.8065   21.2456 O.2     1  UNL1       -0.2698
      3 N          -0.8478    1.5298   20.4316 N.am    1  UNL1       -0.2804
      4 H          -1.6060    0.9104   20.3284 H       1  UNL1        0.1552
      5 C          -5.1316    4.0303   22.5871 C.ar    1  UNL1        0.1066
      6 C          -4.9161    3.7681   21.1260 C.ar    1  UNL1        0.0185
      7 C          -3.5563    3.3789   20.6265 C.ar    1  UNL1        0.0067
      8 C          -2.4121    3.2519   21.5880 C.ar    1  UNL1        0.0643
      9 C          -2.6276    3.5141   23.0490 C.ar    1  UNL1        0.0633
     10 CL         -1.4833    3.3872   24.0106 Cl      1  UNL1       -0.0821
     11 C          -3.9874    3.9033   23.5486 C.ar    1  UNL1        0.0299
     12 C          -7.8512    4.8086   23.5862 C.3     1  UNL1        0.1816
     13 S          -6.4914    4.4194   23.0867 S.O2    1  UNL1        0.0105
     14 O          -6.0359    4.1985   24.4986 O.2     1  UNL1       -0.1686
     15 O          -6.9469    4.6404   21.6747 O.2     1  UNL1       -0.1686
     16 C           0.5120    1.1406   19.9321 C.ar    1  UNL1        0.0506
     17 C           1.1683    1.9388   18.8448 C.ar    1  UNL1        0.0155
     18 C           2.5281    1.5496   18.3452 C.ar    1  UNL1        0.0127
     19 C           3.2316    0.3623   18.9330 C.ar    1  UNL1        0.0592
     20 CL          4.5913   -0.0269   18.4334 Cl      1  UNL1       -0.0822
     21 C           2.5752   -0.4359   20.0202 C.ar    1  UNL1        0.0295
     22 C           1.2154   -0.0467   20.5198 C.ar    1  UNL1        0.0170
     23 C           3.2787   -1.6232   20.6079 C.ar    1  UNL1        0.0822
     24 C           3.5212   -2.8425   19.7686 C.ar    1  UNL1        0.0192
     25 C           4.2247   -4.0298   20.3563 C.ar    1  UNL1        0.0031
     26 C           4.6856   -3.9978   21.7834 C.ar    1  UNL1        0.0207
     27 C           4.4430   -2.7785   22.6227 C.ar    1  UNL1        0.0988
     28 N           3.7396   -1.5912   22.0350 N.ar    1  UNL1       -0.2438
@<TRIPOS>BOND
     1    12    13    1
     2    13    14    2
     3    13    15    2
     4    13     5    1
     5     5     6   ar
     6     6     7   ar
     7     7     8   ar
     8     8     1    1
     9     1     2    2
    10     1     3   am
    11     3    16    1
    12    16    17   ar
    13    17    18   ar
    14    18    19   ar
    15    19    20    1
    16    19    21   ar
    17    21    23    1
    18    23    24   ar
    19    24    25   ar
    20    25    26   ar
    21    26    27   ar
    22    27    28   ar
    23    21    22   ar
    24     8     9   ar
    25     9    10    1
    26     9    11   ar
    27    11     5   ar
    28    22    16   ar
    29    28    23   ar
    30     3     4    1
@<TRIPOS>MOLECULE
*****
 28 30 0 0 0
SMALL
GASTEIGER

@<TRIPOS>ATOM
      1 C         -14.5529   -2.1669   18.9042 C.2     1  UNL1        0.2503
      2 O         -14.6145   -1.1729   17.7825 O.2     1  UNL1       -0.2698
      3 N         -15.5390   -2.0873   20.0317 N.am    1  UNL1       -0.2804
      4 H         -15.4986   -2.7397   20.7679 H       1  UNL1        0.1552
      5 C         -11.4098   -5.3872   18.8869 C.ar    1  UNL1        0.1066
      6 C         -12.8622   -5.7564   18.8221 C.ar    1  UNL1        0.0185
      7 C         -13.9099   -4.6829   18.8278 C.ar    1  UNL1        0.0067
      8 C         -13.5052   -3.2403   18.8984 C.ar    1  UNL1        0.0643
      9 C         -12.0528   -2.8711   18.9633 C.ar    1  UNL1        0.0633
     10 CL        -11.6481   -1.4285   19.0339 Cl      1  UNL1       -0.0821
     11 C         -11.0051   -3.9446   18.9575 C.ar    1  UNL1        0.0299
     12 C          -9.3144   -7.5341   18.8754 C.3     1  UNL1        0.1816
     13 S         -10.3621   -6.4607   18.8811 S.O2    1  UNL1        0.0105
     14 O          -9.3675   -5.4930   19.4507 O.2     1  UNL1       -0.1686
     15 O         -11.3567   -7.4283   18.3115 O.2     1  UNL1       -0.1686
     16 C         -16.5867   -1.0139   20.0374 C.ar    1  UNL1        0.0506
     17 C         -17.8632   -1.2076   19.2737 C.ar    1  UNL1        0.0155
     18 C         -18.9109   -0.1342   19.2795 C.ar    1  UNL1        0.0127
     19 C         -18.6821    1.1330   20.0490 C.ar    1  UNL1        0.0592
     20 CL        -19.7298    2.2064   20.0548 Cl      1  UNL1       -0.0822
     21 C         -17.4057    1.3266   20.8127 C.ar    1  UNL1        0.0295
     22 C         -16.3580    0.2532   20.8069 C.ar    1  UNL1        0.0170
     23 C         -17.1770    2.5937   21.5821 C.ar    1  UNL1        0.0822
     24 C         -17.4401    2.6326   23.0584 C.ar    1  UNL1        0.0192
     25 C         -17.2114    3.8998   23.8278 C.ar    1  UNL1        0.0031
     26 C         -16.7196    5.1280   23.1211 C.ar    1  UNL1        0.0207
     27 C         -16.4565    5.0891   21.6448 C.ar    1  UNL1        0.0988
     28 N         -16.6852    3.8221   20.8754 N.ar    1  UNL1       -0.2438
@<TRIPOS>BOND
     1    12    13    1
     2    13    14    2
     3    13    15    2
     4    13     5    1
     5     5     6   ar
     6     6     7   ar
     7     7     8   ar
     8     8     1    1
     9     1     2    2
    10     1     3   am
    11     3    16    1
    12    16    17   ar
    13    17    18   ar
    14    18    19   ar
    15    19    20    1
    16    19    21   ar
    17    21    23    1
    18    23    24   ar
    19    24    25   ar
    20    25    26   ar
    21    26    27   ar
    22    27    28   ar
    23    21    22   ar
    24     8     9   ar
    25     9    10    1
    26     9    11   ar
    27    11     5   ar
    28    22    16   ar
    29    28    23   ar
    30     3     4    1
@<TRIPOS>MOLECULE
*****
 28 30 0 0 0
SMALL
GASTEIGER

@<TRIPOS>ATOM
      1 C           3.6347   -0.4733   26.0674 C.2     1  UNL1        0.2503
      2 O           4.1409    0.9225   26.2805 O.2     1  UNL1       -0.2698
      3 N           2.8323   -1.1516   27.1379 N.am    1  UNL1       -0.2804
      4 H           2.5000   -2.0678   26.9980 H       1  UNL1        0.1552
      5 C           4.5232   -2.6255   22.2167 C.ar    1  UNL1        0.1066
      6 C           5.2604   -2.9949   23.4697 C.ar    1  UNL1        0.0185
      7 C           4.9642   -2.2775   24.7532 C.ar    1  UNL1        0.0067
      8 C           3.9309   -1.1907   24.7838 C.ar    1  UNL1        0.0643
      9 C           3.1937   -0.8213   23.5308 C.ar    1  UNL1        0.0633
     10 CL          2.1602    0.2655   23.5614 Cl      1  UNL1       -0.0821
     11 C           3.4898   -1.5387   22.2473 C.ar    1  UNL1        0.0299
     12 C           5.1156   -4.0604   19.6495 C.3     1  UNL1        0.1816
     13 S           4.8194   -3.3429   20.9331 S.O2    1  UNL1        0.0105
     14 O           5.2770   -2.0536   20.3180 O.2     1  UNL1       -0.1686
     15 O           4.3618   -4.6323   21.5481 O.2     1  UNL1       -0.1686
     16 C           2.5361   -0.4342   28.4215 C.ar    1  UNL1        0.0506
     17 C           1.3633    0.4971   28.5067 C.ar    1  UNL1        0.0155
     18 C           1.0671    1.2145   29.7903 C.ar    1  UNL1        0.0127
     19 C           1.9437    1.0006   30.9886 C.ar    1  UNL1        0.0592
     20 CL          1.6476    1.7180   32.2722 Cl      1  UNL1       -0.0822
     21 C           3.1165    0.0693   30.9033 C.ar    1  UNL1        0.0295
     22 C           3.4127   -0.6481   29.6197 C.ar    1  UNL1        0.0170
     23 C           3.9930   -0.1446   32.1016 C.ar    1  UNL1        0.0822
     24 C           5.1825    0.7407   32.3283 C.ar    1  UNL1        0.0192
     25 C           6.0591    0.5268   33.5266 C.ar    1  UNL1        0.0031
     26 C           5.7462   -0.5724   34.4981 C.ar    1  UNL1        0.0207
     27 C           4.5567   -1.4576   34.2714 C.ar    1  UNL1        0.0988
     28 N           3.6801   -1.2438   33.0732 N.ar    1  UNL1       -0.2438
@<TRIPOS>BOND
     1    12    13    1
     2    13    14    2
     3    13    15    2
     4    13     5    1
     5     5     6   ar
     6     6     7   ar
     7     7     8   ar
     8     8     1    1
     9     1     2    2
    10     1     3   am
    11     3    16    1
    12    16    17   ar
    13    17    18   ar
    14    18    19   ar
    15    19    20    1
    16    19    21   ar
    17    21    23    1
    18    23    24   ar
    19    24    25   ar
    20    25    26   ar
    21    26    27   ar
    22    27    28   ar
    23    21    22   ar
    24     8     9   ar
    25     9    10    1
    26     9    11   ar
    27    11     5   ar
    28    22    16   ar
    29    28    23   ar
    30     3     4    1
@<TRIPOS>MOLECULE
*****
 28 30 0 0 0
SMALL
GASTEIGER

@<TRIPOS>ATOM
      1 C           0.1741    2.3505   22.2688 C.2     1  UNL1        0.2503
      2 O           1.5578    2.9294   22.2569 O.2     1  UNL1       -0.2698
      3 N          -0.2009    1.2834   21.2836 N.am    1  UNL1       -0.2804
      4 H          -1.1090    0.9034   21.2914 H       1  UNL1        0.1552
      5 C          -2.8519    3.8147   25.2604 C.ar    1  UNL1        0.1066
      6 C          -3.0148    4.1442   23.8061 C.ar    1  UNL1        0.0185
      7 C          -2.0061    3.6562   22.8090 C.ar    1  UNL1        0.0067
      8 C          -0.8345    2.8385   23.2660 C.ar    1  UNL1        0.0643
      9 C          -0.6717    2.5090   24.7202 C.ar    1  UNL1        0.0633
     10 CL          0.4999    1.6913   25.1774 Cl      1  UNL1       -0.0821
     11 C          -1.6804    2.9971   25.7174 C.ar    1  UNL1        0.0299
     12 C          -4.8692    4.7908   27.2547 C.3     1  UNL1        0.1816
     13 S          -3.8606    4.3028   26.2575 S.O2    1  UNL1        0.0105
     14 O          -2.7986    5.1196   26.9320 O.2     1  UNL1       -0.1686
     15 O          -4.9226    3.4859   25.5831 O.2     1  UNL1       -0.1686
     16 C           0.8078    0.7954   20.2864 C.ar    1  UNL1        0.0506
     17 C           0.8461    1.3858   18.9080 C.ar    1  UNL1        0.0155
     18 C           1.8547    0.8977   17.9108 C.ar    1  UNL1        0.0127
     19 C           2.8252   -0.1808   18.2921 C.ar    1  UNL1        0.0592
     20 CL          3.8338   -0.6688   17.2949 Cl      1  UNL1       -0.0822
     21 C           2.7869   -0.7711   19.6705 C.ar    1  UNL1        0.0295
     22 C           1.7782   -0.2830   20.6676 C.ar    1  UNL1        0.0170
     23 C           3.7573   -1.8495   20.0517 C.ar    1  UNL1        0.0822
     24 C           3.5251   -3.2611   19.6006 C.ar    1  UNL1        0.0192
     25 C           4.4955   -4.3395   19.9818 C.ar    1  UNL1        0.0031
     26 C           5.6981   -4.0063   20.8141 C.ar    1  UNL1        0.0207
     27 C           5.9303   -2.5947   21.2652 C.ar    1  UNL1        0.0988
     28 N           4.9599   -1.5163   20.8840 N.ar    1  UNL1       -0.2438
@<TRIPOS>BOND
     1    12    13    1
     2    13    14    2
     3    13    15    2
     4    13     5    1
     5     5     6   ar
     6     6     7   ar
     7     7     8   ar
     8     8     1    1
     9     1     2    2
    10     1     3   am
    11     3    16    1
    12    16    17   ar
    13    17    18   ar
    14    18    19   ar
    15    19    20    1
    16    19    21   ar
    17    21    23    1
    18    23    24   ar
    19    24    25   ar
    20    25    26   ar
    21    26    27   ar
    22    27    28   ar
    23    21    22   ar
    24     8     9   ar
    25     9    10    1
    26     9    11   ar
    27    11     5   ar
    28    22    16   ar
    29    28    23   ar
    30     3     4    1
@<TRIPOS>MOLECULE
*****
 28 30 0 0 0
SMALL
GASTEIGER

@<TRIPOS>ATOM
      1 C           6.4905   -0.4475   34.2774 C.2     1  UNL1        0.2503
      2 O           5.9583    0.8686   33.7933 O.2     1  UNL1       -0.2698
      3 N           6.6433   -0.6995   35.7481 N.am    1  UNL1       -0.2804
      4 H           6.9926   -1.5634   36.0659 H       1  UNL1        0.1552
      5 C           7.6289   -3.6402   31.3175 C.ar    1  UNL1        0.1066
      6 C           8.6715   -2.6986   31.8431 C.ar    1  UNL1        0.0185
      7 C           8.2921   -1.6344   32.8298 C.ar    1  UNL1        0.0067
      8 C           6.8700   -1.5117   33.2908 C.ar    1  UNL1        0.0643
      9 C           5.8273   -2.4533   32.7651 C.ar    1  UNL1        0.0633
     10 CL          4.4052   -2.3306   33.2260 Cl      1  UNL1       -0.0821
     11 C           6.2068   -3.5175   31.7784 C.ar    1  UNL1        0.0299
     12 C           8.3878   -5.7686   29.3442 C.3     1  UNL1        0.1816
     13 S           8.0084   -4.7044   30.3308 S.O2    1  UNL1        0.0105
     14 O           6.5922   -4.7532   29.8388 O.2     1  UNL1       -0.1686
     15 O           9.4245   -4.6555   30.8228 O.2     1  UNL1       -0.1686
     16 C           6.2638    0.3647   36.7348 C.ar    1  UNL1        0.0506
     17 C           7.3150    1.2747   37.2977 C.ar    1  UNL1        0.0155
     18 C           6.9356    2.3389   38.2844 C.ar    1  UNL1        0.0127
     19 C           5.5049    2.4931   38.7081 C.ar    1  UNL1        0.0592
     20 CL          5.1254    3.5573   39.6947 Cl      1  UNL1       -0.0822
     21 C           4.4537    1.5831   38.1451 C.ar    1  UNL1        0.0295
     22 C           4.8332    0.5189   37.1585 C.ar    1  UNL1        0.0170
     23 C           3.0231    1.7373   38.5688 C.ar    1  UNL1        0.0822
     24 C           2.2301    2.9264   38.1137 C.ar    1  UNL1        0.0192
     25 C           0.7995    3.0806   38.5375 C.ar    1  UNL1        0.0031
     26 C           0.1619    2.0457   39.4163 C.ar    1  UNL1        0.0207
     27 C           0.9549    0.8566   39.8714 C.ar    1  UNL1        0.0988
     28 N           2.3855    0.7024   39.4477 N.ar    1  UNL1       -0.2438
@<TRIPOS>BOND
     1    12    13    1
     2    13    14    2
     3    13    15    2
     4    13     5    1
     5     5     6   ar
     6     6     7   ar
     7     7     8   ar
     8     8     1    1
     9     1     2    2
    10     1     3   am
    11     3    16    1
    12    16    17   ar
    13    17    18   ar
    14    18    19   ar
    15    19    20    1
    16    19    21   ar
    17    21    23    1
    18    23    24   ar
    19    24    25   ar
    20    25    26   ar
    21    26    27   ar
    22    27    28   ar
    23    21    22   ar
    24     8     9   ar
    25     9    10    1
    26     9    11   ar
    27    11     5   ar
    28    22    16   ar
    29    28    23   ar
    30     3     4    1
@<TRIPOS>MOLECULE
*****
 28 30 0 0 0
SMALL
GASTEIGER

@<TRIPOS>ATOM
      1 C           1.8192    1.7897   25.0493 C.2     1  UNL1        0.2503
      2 O           2.2437    3.0129   24.2920 O.2     1  UNL1       -0.2698
      3 N           1.4187    0.5494   24.3069 N.am    1  UNL1       -0.2804
      4 H           1.1401   -0.2534   24.8039 H       1  UNL1        0.1552
      5 C           1.7470    1.8410   29.5484 C.ar    1  UNL1        0.1066
      6 C           3.0376    1.6041   28.8217 C.ar    1  UNL1        0.0185
      7 C           3.0616    1.5870   27.3220 C.ar    1  UNL1        0.0067
      8 C           1.7951    1.8068   26.5490 C.ar    1  UNL1        0.0643
      9 C           0.5045    2.0437   27.2757 C.ar    1  UNL1        0.0633
     10 CL         -0.7621    2.2635   26.5028 Cl      1  UNL1       -0.0821
     11 C           0.4804    2.0608   28.7755 C.ar    1  UNL1        0.0299
     12 C           1.6988    1.8752   32.5478 C.3     1  UNL1        0.1816
     13 S           1.7229    1.8581   31.0481 S.O2    1  UNL1        0.0105
     14 O           0.2806    1.4467   31.0297 O.2     1  UNL1       -0.1686
     15 O           3.1653    2.2695   31.0666 O.2     1  UNL1       -0.1686
     16 C           1.4428    0.5323   22.8072 C.ar    1  UNL1        0.0506
     17 C           0.4419    1.3368   22.0318 C.ar    1  UNL1        0.0155
     18 C           0.4659    1.3197   20.5321 C.ar    1  UNL1        0.0127
     19 C           1.4909    0.4982   19.8077 C.ar    1  UNL1        0.0592
     20 CL          1.5150    0.4811   18.3080 Cl      1  UNL1       -0.0822
     21 C           2.4917   -0.3062   20.5831 C.ar    1  UNL1        0.0295
     22 C           2.4677   -0.2891   22.0828 C.ar    1  UNL1        0.0170
     23 C           3.5166   -1.1277   19.8588 C.ar    1  UNL1        0.0822
     24 C           3.2821   -2.5922   19.6347 C.ar    1  UNL1        0.0192
     25 C           4.3071   -3.4137   18.9103 C.ar    1  UNL1        0.0031
     26 C           5.5665   -2.7707   18.4101 C.ar    1  UNL1        0.0207
     27 C           5.8010   -1.3062   18.6341 C.ar    1  UNL1        0.0988
     28 N           4.7761   -0.4847   19.3585 N.ar    1  UNL1       -0.2438
@<TRIPOS>BOND
     1    12    13    1
     2    13    14    2
     3    13    15    2
     4    13     5    1
     5     5     6   ar
     6     6     7   ar
     7     7     8   ar
     8     8     1    1
     9     1     2    2
    10     1     3   am
    11     3    16    1
    12    16    17   ar
    13    17    18   ar
    14    18    19   ar
    15    19    20    1
    16    19    21   ar
    17    21    23    1
    18    23    24   ar
    19    24    25   ar
    20    25    26   ar
    21    26    27   ar
    22    27    28   ar
    23    21    22   ar
    24     8     9   ar
    25     9    10    1
    26     9    11   ar
    27    11     5   ar
    28    22    16   ar
    29    28    23   ar
    30     3     4    1
