@<TRIPOS>MOLECULE
*****
 31 35 0 0 0
SMALL
GASTEIGER

@<TRIPOS>ATOM
      1 C          -7.5833  -18.7931   22.0518 C.3     1  UNL1        0.2026
      2 C          -8.3320  -19.2341   20.8291 C.ar    1  UNL1        0.0163
      3 C          -8.0796  -20.3328   19.8396 C.ar    1  UNL1        0.0104
      4 C          -9.0227  -20.5393   18.6916 C.ar    1  UNL1        0.0583
      5 CL         -8.7704  -21.6380   17.7020 Cl      1  UNL1       -0.0822
      6 C         -10.2181  -19.6472   18.5331 C.ar    1  UNL1        0.0224
      7 C         -10.4704  -18.5485   19.5226 C.ar    1  UNL1        0.0544
      8 CL        -11.6658  -17.6564   19.3641 Cl      1  UNL1       -0.0826
      9 C          -9.5274  -18.3420   20.6706 C.ar    1  UNL1       -0.0106
     10 C          -9.5175  -17.3496   21.7954 C.3     1  UNL1        0.0470
     11 C          -8.3160  -17.6284   22.6490 C.3     1  UNL1        0.1066
     12 N          -7.9172  -16.8748   23.8832 N.3     1  UNL1       -0.2702
     13 C          -8.7721  -16.6530   25.0956 C.3     1  UNL1        0.0736
     14 C          -7.9768  -15.8518   26.0833 C.3     1  UNL1        0.0344
     15 C          -8.0136  -15.2196   27.4430 C.3     1  UNL1        0.0700
     16 N          -6.6899  -14.5556   27.6814 N.3     1  UNL1       -0.2974
     17 C          -5.8350  -14.7774   26.4690 C.3     1  UNL1        0.0700
     18 C          -6.6303  -15.5785   25.4813 C.3     1  UNL1        0.0344
     19 C          -6.5935  -16.2108   24.1216 C.3     1  UNL1        0.0736
     20 H          -6.2406  -14.9636   28.5012 H       1  UNL1        0.1232
     21 O          -6.3232  -19.4087   22.5839 O.3     1  UNL1       -0.4734
     22 C          -2.3293  -18.1203   20.9595 C.ar    1  UNL1        0.1059
     23 C          -2.6909  -17.8225   22.3845 C.ar    1  UNL1        0.0215
     24 C          -4.0222  -18.2520   22.9260 C.ar    1  UNL1        0.0382
     25 C          -4.9920  -18.9792   22.0425 C.ar    1  UNL1        0.1390
     26 C          -4.6304  -19.2770   20.6174 C.ar    1  UNL1        0.0382
     27 C          -3.2991  -18.8476   20.0759 C.ar    1  UNL1        0.0215
     28 C           0.3332  -17.2613   19.8765 C.3     1  UNL1        0.1816
     29 S          -0.9981  -17.6908   20.4180 S.O2    1  UNL1        0.0105
     30 O          -1.2256  -16.3086   20.9546 O.2     1  UNL1       -0.1686
     31 O          -0.7704  -19.0729   19.8814 O.2     1  UNL1       -0.1686
@<TRIPOS>BOND
     1    28    29    1
     2    29    30    2
     3    29    31    2
     4    29    22    1
     5    22    23   ar
     6    23    24   ar
     7    24    25   ar
     8    25    21    1
     9     1    21    1
    10     1     2    1
    11     2     3   ar
    12     3     4   ar
    13     4     5    1
    14     4     6   ar
    15     6     7   ar
    16     7     8    1
    17     7     9   ar
    18     9    10    1
    19    10    11    1
    20    11    12    1
    21    12    13    1
    22    14    13    1
    23    14    15    1
    24    15    16    1
    25    16    17    1
    26    18    17    1
    27    18    19    1
    28    25    26   ar
    29    26    27   ar
    30    27    22   ar
    31    11     1    1
    32    19    12    1
    33     9     2   ar
    34    18    14    1
    35    16    20    1
@<TRIPOS>MOLECULE
*****
 31 35 0 0 0
SMALL
GASTEIGER

@<TRIPOS>ATOM
      1 C           2.7244    0.2132   21.7355 C.3     1  UNL1        0.2026
      2 C           3.4637   -1.0803   21.9103 C.ar    1  UNL1        0.0163
      3 C           4.3615   -1.5836   23.0014 C.ar    1  UNL1        0.0104
      4 C           4.9717   -2.9501   22.8998 C.ar    1  UNL1        0.0583
      5 CL          5.8696   -3.4535   23.9909 Cl      1  UNL1       -0.0822
      6 C           4.6841   -3.8132   21.7072 C.ar    1  UNL1        0.0224
      7 C           3.7862   -3.3098   20.6161 C.ar    1  UNL1        0.0544
      8 CL          3.4986   -4.1729   19.4235 Cl      1  UNL1       -0.0826
      9 C           3.1760   -1.9434   20.7177 C.ar    1  UNL1       -0.0106
     10 C           2.2590   -1.1833   19.8058 C.3     1  UNL1        0.0470
     11 C           1.9799    0.1495   20.4348 C.3     1  UNL1        0.1066
     12 N           1.1092    1.2291   19.8635 N.3     1  UNL1       -0.2702
     13 C           1.2471    1.8453   18.5029 C.3     1  UNL1        0.0736
     14 C           0.1709    2.8791   18.3510 C.3     1  UNL1        0.0344
     15 C          -0.4090    3.8988   17.4163 C.3     1  UNL1        0.0700
     16 N          -1.5705    4.5517   18.1052 N.3     1  UNL1       -0.2974
     17 C          -1.7084    3.9354   19.4658 C.3     1  UNL1        0.0700
     18 C          -0.6322    2.9017   19.6177 C.3     1  UNL1        0.0344
     19 C          -0.0522    1.8820   20.5525 C.3     1  UNL1        0.0736
     20 H          -2.4233    4.3975   17.5673 H       1  UNL1        0.1232
     21 O           2.7290    1.3677   22.6932 O.3     1  UNL1       -0.4734
     22 C           0.6956    0.9844   26.6892 C.ar    1  UNL1        0.1059
     23 C          -0.1107    1.3014   25.4647 C.ar    1  UNL1        0.0215
     24 C           0.5670    1.4292   24.1327 C.ar    1  UNL1        0.0382
     25 C           2.0512    1.2399   24.0251 C.ar    1  UNL1        0.1390
     26 C           2.8575    0.9228   25.2497 C.ar    1  UNL1        0.0382
     27 C           2.1797    0.7951   26.5817 C.ar    1  UNL1        0.0215
     28 C          -0.6600    0.7288   29.3532 C.3     1  UNL1        0.1816
     29 S           0.0178    0.8566   28.0212 S.O2    1  UNL1        0.0105
     30 O          -1.1038    1.7253   27.5339 O.2     1  UNL1       -0.1686
     31 O           1.1393   -0.0121   28.5085 O.2     1  UNL1       -0.1686
@<TRIPOS>BOND
     1    28    29    1
     2    29    30    2
     3    29    31    2
     4    29    22    1
     5    22    23   ar
     6    23    24   ar
     7    24    25   ar
     8    25    21    1
     9     1    21    1
    10     1     2    1
    11     2     3   ar
    12     3     4   ar
    13     4     5    1
    14     4     6   ar
    15     6     7   ar
    16     7     8    1
    17     7     9   ar
    18     9    10    1
    19    10    11    1
    20    11    12    1
    21    12    13    1
    22    14    13    1
    23    14    15    1
    24    15    16    1
    25    16    17    1
    26    18    17    1
    27    18    19    1
    28    25    26   ar
    29    26    27   ar
    30    27    22   ar
    31    11     1    1
    32    19    12    1
    33     9     2   ar
    34    18    14    1
    35    16    20    1
@<TRIPOS>MOLECULE
*****
 31 35 0 0 0
SMALL
GASTEIGER

@<TRIPOS>ATOM
      1 C          -4.0461    3.2483   20.7939 C.3     1  UNL1        0.2026
      2 C          -4.8992    3.9807   19.8011 C.ar    1  UNL1        0.0163
      3 C          -6.3763    4.2352   19.7417 C.ar    1  UNL1        0.0104
      4 C          -6.9572    5.0174   18.6013 C.ar    1  UNL1        0.0583
      5 CL         -8.4343    5.2720   18.5419 Cl      1  UNL1       -0.0822
      6 C          -6.0612    5.5451   17.5203 C.ar    1  UNL1        0.0224
      7 C          -4.5842    5.2906   17.5796 C.ar    1  UNL1        0.0544
      8 CL         -3.6881    5.8182   16.4986 Cl      1  UNL1       -0.0826
      9 C          -4.0032    4.5084   18.7200 C.ar    1  UNL1       -0.0106
     10 C          -2.5962    4.1021   19.0448 C.3     1  UNL1        0.0470
     11 C          -2.6227    3.3234   20.3265 C.3     1  UNL1        0.1066
     12 N          -1.4345    2.7248   21.0193 N.3     1  UNL1       -0.2702
     13 C          -1.0089    2.9951   22.4320 C.3     1  UNL1        0.0736
     14 C           0.2254    2.1881   22.7067 C.3     1  UNL1        0.0344
     15 C           1.2512    1.8565   23.7496 C.3     1  UNL1        0.0700
     16 N           2.2224    0.8826   23.1512 N.3     1  UNL1       -0.2974
     17 C           1.7968    0.6123   21.7385 C.3     1  UNL1        0.0700
     18 C           0.5626    1.4192   21.4638 C.3     1  UNL1        0.0344
     19 C          -0.4632    1.7508   20.4209 C.3     1  UNL1        0.0736
     20 H           2.2164    0.0144   23.6866 H       1  UNL1        0.1232
     21 O          -4.5311    2.5615   22.0361 O.3     1  UNL1       -0.4734
     22 C          -5.8084    4.9944   25.5998 C.ar    1  UNL1        0.1059
     23 C          -6.7413    4.8184   24.4384 C.ar    1  UNL1        0.0215
     24 C          -6.3156    4.0075   23.2505 C.ar    1  UNL1        0.0382
     25 C          -4.9569    3.3724   23.2239 C.ar    1  UNL1        0.1390
     26 C          -4.0239    3.5484   24.3853 C.ar    1  UNL1        0.0382
     27 C          -4.4497    4.3593   25.5732 C.ar    1  UNL1        0.0215
     28 C          -6.6598    6.6162   27.9756 C.3     1  UNL1        0.1816
     29 S          -6.2341    5.8053   26.7877 S.O2    1  UNL1        0.0105
     30 O          -5.1480    5.1744   27.6077 O.2     1  UNL1       -0.1686
     31 O          -7.3202    6.4362   25.9677 O.2     1  UNL1       -0.1686
@<TRIPOS>BOND
     1    28    29    1
     2    29    30    2
     3    29    31    2
     4    29    22    1
     5    22    23   ar
     6    23    24   ar
     7    24    25   ar
     8    25    21    1
     9     1    21    1
    10     1     2    1
    11     2     3   ar
    12     3     4   ar
    13     4     5    1
    14     4     6   ar
    15     6     7   ar
    16     7     8    1
    17     7     9   ar
    18     9    10    1
    19    10    11    1
    20    11    12    1
    21    12    13    1
    22    14    13    1
    23    14    15    1
    24    15    16    1
    25    16    17    1
    26    18    17    1
    27    18    19    1
    28    25    26   ar
    29    26    27   ar
    30    27    22   ar
    31    11     1    1
    32    19    12    1
    33     9     2   ar
    34    18    14    1
    35    16    20    1
@<TRIPOS>MOLECULE
*****
 31 35 0 0 0
SMALL
GASTEIGER

@<TRIPOS>ATOM
      1 C           2.8103    0.2052   31.4736 C.3     1  UNL1        0.2026
      2 C           2.3573    1.4757   32.1298 C.ar    1  UNL1        0.0163
      3 C           1.0975    2.2792   31.9989 C.ar    1  UNL1        0.0104
      4 C           0.9222    3.5350   32.8002 C.ar    1  UNL1        0.0583
      5 CL         -0.3377    4.3385   32.6693 Cl      1  UNL1       -0.0822
      6 C           2.0067    3.9873   33.7325 C.ar    1  UNL1        0.0224
      7 C           3.2666    3.1839   33.8634 C.ar    1  UNL1        0.0544
      8 CL          4.3511    3.6362   34.7957 Cl      1  UNL1       -0.0826
      9 C           3.4419    1.9281   33.0621 C.ar    1  UNL1       -0.0106
     10 C           4.5651    0.9371   32.9821 C.3     1  UNL1        0.0470
     11 C           4.1747   -0.1277   32.0003 C.3     1  UNL1        0.1066
     12 N           5.0034   -1.3166   31.6132 N.3     1  UNL1       -0.2702
     13 C           5.3817   -2.4575   32.5106 C.3     1  UNL1        0.0736
     14 C           6.2113   -3.4194   31.7128 C.3     1  UNL1        0.0344
     15 C           6.9578   -4.7189   31.7744 C.3     1  UNL1        0.0700
     16 N           7.5536   -4.9758   30.4220 N.3     1  UNL1       -0.2974
     17 C           7.1753   -3.8349   29.5246 C.3     1  UNL1        0.0700
     18 C           6.3457   -2.8731   30.3224 C.3     1  UNL1        0.0344
     19 C           5.5992   -1.5735   30.2608 C.3     1  UNL1        0.0736
     20 H           7.1887   -5.8498   30.0433 H       1  UNL1        0.1232
     21 O           2.0349   -0.5924   30.4673 O.3     1  UNL1       -0.4734
     22 C          -0.0522    1.4922   27.0690 C.ar    1  UNL1        0.1059
     23 C           1.4264    1.6601   27.2570 C.ar    1  UNL1        0.0215
     24 C           2.1221    0.9652   28.3898 C.ar    1  UNL1        0.0382
     25 C           1.3392    0.1024   29.3346 C.ar    1  UNL1        0.1390
     26 C          -0.1395   -0.0655   29.1465 C.ar    1  UNL1        0.0382
     27 C          -0.8352    0.6294   28.0138 C.ar    1  UNL1        0.0215
     28 C          -1.4437    2.8818   24.8035 C.3     1  UNL1        0.1816
     29 S          -0.7480    2.1870   25.9363 S.O2    1  UNL1        0.0105
     30 O          -1.5966    2.9388   26.9186 O.2     1  UNL1       -0.1686
     31 O           0.1006    1.4353   24.9540 O.2     1  UNL1       -0.1686
@<TRIPOS>BOND
     1    28    29    1
     2    29    30    2
     3    29    31    2
     4    29    22    1
     5    22    23   ar
     6    23    24   ar
     7    24    25   ar
     8    25    21    1
     9     1    21    1
    10     1     2    1
    11     2     3   ar
    12     3     4   ar
    13     4     5    1
    14     4     6   ar
    15     6     7   ar
    16     7     8    1
    17     7     9   ar
    18     9    10    1
    19    10    11    1
    20    11    12    1
    21    12    13    1
    22    14    13    1
    23    14    15    1
    24    15    16    1
    25    16    17    1
    26    18    17    1
    27    18    19    1
    28    25    26   ar
    29    26    27   ar
    30    27    22   ar
    31    11     1    1
    32    19    12    1
    33     9     2   ar
    34    18    14    1
    35    16    20    1
@<TRIPOS>MOLECULE
*****
 31 35 0 0 0
SMALL
GASTEIGER

@<TRIPOS>ATOM
      1 C           6.3828   -2.7116   24.5770 C.3     1  UNL1        0.2026
      2 C           6.5352   -3.4582   25.8691 C.ar    1  UNL1        0.0163
      3 C           6.3612   -3.0370   27.2982 C.ar    1  UNL1        0.0104
      4 C           6.5874   -4.0249   28.4040 C.ar    1  UNL1        0.0583
      5 CL          6.4135   -3.6037   29.8332 Cl      1  UNL1       -0.0822
      6 C           6.9876   -5.4339   28.0807 C.ar    1  UNL1        0.0224
      7 C           7.1616   -5.8550   26.6517 C.ar    1  UNL1        0.0544
      8 CL          7.5617   -7.2641   26.3284 Cl      1  UNL1       -0.0826
      9 C           6.9354   -4.8672   25.5458 C.ar    1  UNL1       -0.0106
     10 C           7.0303   -4.9914   24.0540 C.3     1  UNL1        0.0470
     11 C           6.6888   -3.6592   23.4552 C.3     1  UNL1        0.1066
     12 N           6.6587   -3.3320   21.9917 N.3     1  UNL1       -0.2702
     13 C           7.7510   -2.6569   21.2164 C.3     1  UNL1        0.0736
     14 C           7.2983   -2.5301   19.7920 C.3     1  UNL1        0.0344
     15 C           7.6937   -2.0346   18.4326 C.3     1  UNL1        0.0700
     16 N           6.5658   -2.3250   17.4873 N.3     1  UNL1       -0.2974
     17 C           5.4734   -3.0000   18.2625 C.3     1  UNL1        0.0700
     18 C           5.9261   -3.1268   19.6869 C.3     1  UNL1        0.0344
     19 C           5.5308   -3.6223   21.0463 C.3     1  UNL1        0.0736
     20 H           6.8899   -2.9387   16.7398 H       1  UNL1        0.1232
     21 O           5.9929   -1.2704   24.4322 O.3     1  UNL1       -0.4734
     22 C           3.2814    0.0005   21.0733 C.ar    1  UNL1        0.1059
     23 C           4.6972    0.4936   21.1218 C.ar    1  UNL1        0.0215
     24 C           5.6010    0.0700   22.2414 C.ar    1  UNL1        0.0382
     25 C           5.0891   -0.8468   23.3126 C.ar    1  UNL1        0.1390
     26 C           3.6733   -1.3399   23.2641 C.ar    1  UNL1        0.0382
     27 C           2.7694   -0.9162   22.1445 C.ar    1  UNL1        0.0215
     28 C           1.4737    0.8478   18.8341 C.3     1  UNL1        0.1816
     29 S           2.3775    0.4241   19.9537 S.O2    1  UNL1        0.0105
     30 O           1.5995   -0.8500   20.0996 O.2     1  UNL1       -0.1686
     31 O           3.1555    1.6983   19.8077 O.2     1  UNL1       -0.1686
@<TRIPOS>BOND
     1    28    29    1
     2    29    30    2
     3    29    31    2
     4    29    22    1
     5    22    23   ar
     6    23    24   ar
     7    24    25   ar
     8    25    21    1
     9     1    21    1
    10     1     2    1
    11     2     3   ar
    12     3     4   ar
    13     4     5    1
    14     4     6   ar
    15     6     7   ar
    16     7     8    1
    17     7     9   ar
    18     9    10    1
    19    10    11    1
    20    11    12    1
    21    12    13    1
    22    14    13    1
    23    14    15    1
    24    15    16    1
    25    16    17    1
    26    18    17    1
    27    18    19    1
    28    25    26   ar
    29    26    27   ar
    30    27    22   ar
    31    11     1    1
    32    19    12    1
    33     9     2   ar
    34    18    14    1
    35    16    20    1
