@<TRIPOS>MOLECULE
*****
 39 44 0 0 0
SMALL
GASTEIGER

@<TRIPOS>ATOM
      1 N          -8.1661  -19.9136   21.6582 N.3     1  UNL1       -0.2679
      2 C          -8.7118  -19.4621   22.9804 C.3     1  UNL1        0.0978
      3 C          -9.3393  -20.4564   23.9118 C.3     1  UNL1        0.0224
      4 C          -9.8850  -20.0049   25.2341 C.3     1  UNL1        0.0065
      5 C          -9.8032  -18.5590   25.6249 C.3     1  UNL1        0.0277
      6 C          -9.1756  -17.5646   24.6935 C.ar    1  UNL1       -0.0073
      7 C          -9.0938  -16.1188   25.0844 C.ar    1  UNL1       -0.0015
      8 C          -8.4663  -15.1245   24.1530 C.ar    1  UNL1        0.0203
      9 C          -7.9206  -15.5761   22.8308 C.ar    1  UNL1        0.0985
     10 N          -8.0024  -17.0219   22.4399 N.ar    1  UNL1       -0.2471
     11 C          -8.6299  -18.0162   23.3713 C.ar    1  UNL1        0.0695
     12 C          -8.9051  -19.5929   20.3928 C.3     1  UNL1        0.0724
     13 F         -13.0244  -15.6328   19.9558 F       1  UNL1       -0.2043
     14 C         -12.5330  -16.9335   20.5186 C.3     1  UNL1        0.2639
     15 F         -13.8945  -16.8761   21.1456 F       1  UNL1       -0.2043
     16 C         -12.5145  -18.2143   21.2992 C.3     1  UNL1        0.0666
     17 C         -11.3052  -19.1008   21.2573 C.3     1  UNL1        0.0070
     18 C         -10.1144  -18.7064   20.4347 C.3     1  UNL1        0.0164
     19 C         -10.1329  -17.4257   19.6542 C.3     1  UNL1        0.0070
     20 C         -11.3422  -16.5392   19.6961 C.3     1  UNL1        0.0666
     21 C          -6.8814  -20.6859   21.6013 C.3     1  UNL1        0.0886
     22 C          -5.6191  -20.0099   21.1544 C.3     1  UNL1        0.0749
     23 C          -5.0190  -18.9159   21.9869 C.3     1  UNL1        0.0444
     24 C          -3.7568  -18.2400   21.5400 C.ar    1  UNL1       -0.0101
     25 C          -3.0946  -18.6581   20.2606 C.ar    1  UNL1       -0.0091
     26 C          -1.8322  -17.9821   19.8137 C.ar    1  UNL1       -0.0032
     27 C          -1.2321  -16.8881   20.6462 C.ar    1  UNL1        0.0010
     28 C          -1.8943  -16.4700   21.9255 C.ar    1  UNL1        0.0142
     29 C          -3.1566  -17.1460   22.3724 C.ar    1  UNL1        0.0436
     30 C          -3.6947  -19.7521   19.4281 C.3     1  UNL1        0.0954
     31 N          -4.9569  -20.4280   19.8750 N.3     1  UNL1       -0.2934
     32 H          -4.7431  -21.4212   19.9651 H       1  UNL1        0.1236
     33 N          -3.8188  -16.7279   23.6518 N.pl3   1  UNL1       -0.3049
     34 C          -4.6184  -15.4597   23.7029 C.3     1  UNL1        0.1079
     35 C          -5.2805  -15.0417   24.9822 C.3     1  UNL1        0.0903
     36 N          -5.1431  -15.8917   26.2105 N.3     1  UNL1       -0.2946
     37 C          -4.3436  -17.1598   26.1593 C.3     1  UNL1        0.0903
     38 C          -3.6814  -17.5779   24.8800 C.3     1  UNL1        0.1079
     39 H          -6.0874  -16.1504   26.4967 H       1  UNL1        0.1233
@<TRIPOS>BOND
     1    13    14    1
     2    14    15    1
     3    14    16    1
     4    16    17    1
     5    17    18    1
     6    18    12    1
     7    12     1    1
     8     1    21    1
     9    22    21    1
    10    22    23    1
    11    23    24    1
    12    24    25   ar
    13    25    26   ar
    14    26    27   ar
    15    27    28   ar
    16    28    29   ar
    17    29    33    1
    18    33    34    1
    19    34    35    1
    20    35    36    1
    21    36    37    1
    22    37    38    1
    23    25    30    1
    24    30    31    1
    25     2     1    1
    26     2     3    1
    27     3     4    1
    28     4     5    1
    29     5     6    1
    30     6     7   ar
    31     7     8   ar
    32     8     9   ar
    33     9    10   ar
    34    10    11   ar
    35    18    19    1
    36    19    20    1
    37    20    14    1
    38    31    22    1
    39    11     2    1
    40    29    24   ar
    41    38    33    1
    42    11     6   ar
    43    36    39    1
    44    31    32    1
@<TRIPOS>MOLECULE
*****
 39 44 0 0 0
SMALL
GASTEIGER

@<TRIPOS>ATOM
      1 N          -9.3222  -18.1955   20.8513 N.3     1  UNL1       -0.2679
      2 C          -8.2330  -19.2070   20.6500 C.3     1  UNL1        0.0978
      3 C          -7.0544  -19.2346   21.5773 C.3     1  UNL1        0.0224
      4 C          -5.9652  -20.2461   21.3760 C.3     1  UNL1        0.0065
      5 C          -6.0546  -21.2299   20.2473 C.3     1  UNL1        0.0277
      6 C          -7.2333  -21.2023   19.3199 C.ar    1  UNL1       -0.0073
      7 C          -7.3227  -22.1862   18.1912 C.ar    1  UNL1       -0.0015
      8 C          -8.5013  -22.1585   17.2638 C.ar    1  UNL1        0.0203
      9 C          -9.5905  -21.1470   17.4651 C.ar    1  UNL1        0.0985
     10 N          -9.5011  -20.1632   18.5938 N.ar    1  UNL1       -0.2471
     11 C          -8.3225  -20.1908   19.5212 C.ar    1  UNL1        0.0695
     12 C         -10.7600  -18.6154   20.7706 C.3     1  UNL1        0.0724
     13 F         -14.7177  -17.8286   24.8399 F       1  UNL1       -0.2043
     14 C         -13.3839  -18.3699   24.4182 C.3     1  UNL1        0.2639
     15 F         -13.3901  -18.7858   25.8594 F       1  UNL1       -0.2043
     16 C         -12.0521  -19.0557   24.4971 C.3     1  UNL1        0.0666
     17 C         -11.1775  -19.1376   23.2812 C.3     1  UNL1        0.0070
     18 C         -11.6346  -18.5336   21.9864 C.3     1  UNL1        0.0164
     19 C         -12.9663  -17.8478   21.9076 C.3     1  UNL1        0.0070
     20 C         -13.8409  -17.7659   23.1235 C.3     1  UNL1        0.0666
     21 C          -8.9737  -16.7641   21.1334 C.3     1  UNL1        0.0886
     22 C          -8.5885  -16.3454   22.5214 C.3     1  UNL1        0.0749
     23 C          -7.1508  -16.3912   22.9467 C.3     1  UNL1        0.0444
     24 C          -6.7657  -15.9726   24.3347 C.ar    1  UNL1       -0.0101
     25 C          -7.8182  -15.5081   25.2972 C.ar    1  UNL1       -0.0091
     26 C          -7.4330  -15.0894   26.6852 C.ar    1  UNL1       -0.0032
     27 C          -5.9953  -15.1353   27.1105 C.ar    1  UNL1        0.0010
     28 C          -4.9428  -15.5997   26.1480 C.ar    1  UNL1        0.0142
     29 C          -5.3280  -16.0184   24.7601 C.ar    1  UNL1        0.0436
     30 C          -9.2558  -15.4623   24.8718 C.3     1  UNL1        0.0954
     31 N          -9.6410  -15.8809   23.4839 N.3     1  UNL1       -0.2934
     32 H         -10.1021  -15.0801   23.0521 H       1  UNL1        0.1236
     33 N          -4.2754  -16.4829   23.7976 N.pl3   1  UNL1       -0.3049
     34 C          -3.8958  -17.9331   23.7437 C.3     1  UNL1        0.1079
     35 C          -2.8433  -18.3976   22.7812 C.3     1  UNL1        0.0903
     36 N          -2.1704  -17.4119   21.8725 N.3     1  UNL1       -0.2946
     37 C          -2.5500  -15.9617   21.9264 C.3     1  UNL1        0.0903
     38 C          -3.6026  -15.4972   22.8889 C.3     1  UNL1        0.1079
     39 H          -2.3431  -17.7262   20.9176 H       1  UNL1        0.1233
@<TRIPOS>BOND
     1    13    14    1
     2    14    15    1
     3    14    16    1
     4    16    17    1
     5    17    18    1
     6    18    12    1
     7    12     1    1
     8     1    21    1
     9    22    21    1
    10    22    23    1
    11    23    24    1
    12    24    25   ar
    13    25    26   ar
    14    26    27   ar
    15    27    28   ar
    16    28    29   ar
    17    29    33    1
    18    33    34    1
    19    34    35    1
    20    35    36    1
    21    36    37    1
    22    37    38    1
    23    25    30    1
    24    30    31    1
    25     2     1    1
    26     2     3    1
    27     3     4    1
    28     4     5    1
    29     5     6    1
    30     6     7   ar
    31     7     8   ar
    32     8     9   ar
    33     9    10   ar
    34    10    11   ar
    35    18    19    1
    36    19    20    1
    37    20    14    1
    38    31    22    1
    39    11     2    1
    40    29    24   ar
    41    38    33    1
    42    11     6   ar
    43    36    39    1
    44    31    32    1
@<TRIPOS>MOLECULE
*****
 39 44 0 0 0
SMALL
GASTEIGER

@<TRIPOS>ATOM
      1 N           0.1551    2.3255   20.1888 N.3     1  UNL1       -0.2679
      2 C          -0.5855    3.1797   19.2029 C.3     1  UNL1        0.0978
      3 C           0.1326    3.7482   18.0150 C.3     1  UNL1        0.0224
      4 C          -0.6080    4.6024   17.0291 C.3     1  UNL1        0.0065
      5 C          -2.0666    4.8881   17.2312 C.3     1  UNL1        0.0277
      6 C          -2.7847    4.3196   18.4191 C.ar    1  UNL1       -0.0073
      7 C          -4.2433    4.6053   18.6212 C.ar    1  UNL1       -0.0015
      8 C          -4.9613    4.0369   19.8091 C.ar    1  UNL1        0.0203
      9 C          -4.2208    3.1827   20.7950 C.ar    1  UNL1        0.0985
     10 N          -2.7622    2.8970   20.5929 N.ar    1  UNL1       -0.2471
     11 C          -2.0441    3.4654   19.4050 C.ar    1  UNL1        0.0695
     12 C           0.1330    0.8319   20.0523 C.3     1  UNL1        0.0724
     13 F           4.6761   -2.4722   18.9186 F       1  UNL1       -0.2043
     14 C           3.7681   -1.3424   18.5328 C.3     1  UNL1        0.2639
     15 F           4.7165   -1.3229   17.3708 F       1  UNL1       -0.2043
     16 C           3.1895   -0.2057   17.7433 C.3     1  UNL1        0.0666
     17 C           1.9778    0.5191   18.2498 C.3     1  UNL1        0.0070
     18 C           1.3447    0.1071   19.5458 C.3     1  UNL1        0.0164
     19 C           1.9233   -1.0295   20.3352 C.3     1  UNL1        0.0070
     20 C           3.1350   -1.7542   19.8287 C.3     1  UNL1        0.0666
     21 C           0.9176    2.9650   21.3112 C.3     1  UNL1        0.0886
     22 C           0.7432    2.4674   22.7155 C.3     1  UNL1        0.0749
     23 C          -0.3642    3.0081   23.5707 C.3     1  UNL1        0.0444
     24 C          -0.5385    2.5105   24.9749 C.ar    1  UNL1       -0.0101
     25 C           0.3946    1.4722   25.5240 C.ar    1  UNL1       -0.0091
     26 C           0.2202    0.9747   26.9284 C.ar    1  UNL1       -0.0032
     27 C          -0.8872    1.5154   27.7835 C.ar    1  UNL1        0.0010
     28 C          -1.8202    2.5536   27.2345 C.ar    1  UNL1        0.0142
     29 C          -1.6459    3.0512   25.8302 C.ar    1  UNL1        0.0436
     30 C           1.5019    0.9316   24.6688 C.3     1  UNL1        0.0954
     31 N           1.6762    1.4291   23.2646 N.3     1  UNL1       -0.2934
     32 H           1.6046    0.6160   22.6530 H       1  UNL1        0.1236
     33 N          -2.5789    4.0894   25.2811 N.pl3   1  UNL1       -0.3049
     34 C          -2.2304    5.5443   25.3909 C.3     1  UNL1        0.1079
     35 C          -3.1634    6.5825   24.8418 C.3     1  UNL1        0.0903
     36 N          -4.4450    6.1659   24.1829 N.3     1  UNL1       -0.2946
     37 C          -4.7935    4.7111   24.0732 C.3     1  UNL1        0.0903
     38 C          -3.8605    3.6729   24.6223 C.3     1  UNL1        0.1079
     39 H          -4.4212    6.5355   23.2326 H       1  UNL1        0.1233
@<TRIPOS>BOND
     1    13    14    1
     2    14    15    1
     3    14    16    1
     4    16    17    1
     5    17    18    1
     6    18    12    1
     7    12     1    1
     8     1    21    1
     9    22    21    1
    10    22    23    1
    11    23    24    1
    12    24    25   ar
    13    25    26   ar
    14    26    27   ar
    15    27    28   ar
    16    28    29   ar
    17    29    33    1
    18    33    34    1
    19    34    35    1
    20    35    36    1
    21    36    37    1
    22    37    38    1
    23    25    30    1
    24    30    31    1
    25     2     1    1
    26     2     3    1
    27     3     4    1
    28     4     5    1
    29     5     6    1
    30     6     7   ar
    31     7     8   ar
    32     8     9   ar
    33     9    10   ar
    34    10    11   ar
    35    18    19    1
    36    19    20    1
    37    20    14    1
    38    31    22    1
    39    11     2    1
    40    29    24   ar
    41    38    33    1
    42    11     6   ar
    43    36    39    1
    44    31    32    1
@<TRIPOS>MOLECULE
*****
 39 44 0 0 0
SMALL
GASTEIGER

@<TRIPOS>ATOM
      1 N           0.0990    2.1930   20.4282 N.3     1  UNL1       -0.2679
      2 C          -0.6943    2.9889   19.4346 C.3     1  UNL1        0.0978
      3 C          -0.0607    3.4272   18.1476 C.3     1  UNL1        0.0224
      4 C          -0.8540    4.2231   17.1540 C.3     1  UNL1        0.0065
      5 C          -2.2808    4.5808   17.4474 C.3     1  UNL1        0.0277
      6 C          -2.9145    4.1426   18.7345 C.ar    1  UNL1       -0.0073
      7 C          -4.3413    4.5003   19.0279 C.ar    1  UNL1       -0.0015
      8 C          -4.9749    4.0620   20.3150 C.ar    1  UNL1        0.0203
      9 C          -4.1816    3.2661   21.3086 C.ar    1  UNL1        0.0985
     10 N          -2.7548    2.9084   21.0151 N.ar    1  UNL1       -0.2471
     11 C          -2.1212    3.3466   19.7281 C.ar    1  UNL1        0.0695
     12 C           0.1605    0.6985   20.3142 C.3     1  UNL1        0.0724
     13 F           4.7501   -2.3714   18.7802 F       1  UNL1       -0.2043
     14 C           3.7717   -1.2720   18.4904 C.3     1  UNL1        0.2639
     15 F           4.6376   -1.1789   17.2691 F       1  UNL1       -0.2043
     16 C           3.0941   -0.1401   17.7763 C.3     1  UNL1        0.0666
     17 C           1.8903    0.5167   18.3843 C.3     1  UNL1        0.0070
     18 C           1.3642    0.0417   19.7063 C.3     1  UNL1        0.0164
     19 C           2.0418   -1.0901   20.4203 C.3     1  UNL1        0.0070
     20 C           3.2456   -1.7469   19.8123 C.3     1  UNL1        0.0666
     21 C           0.8307    2.8914   21.5358 C.3     1  UNL1        0.0886
     22 C           0.4519    2.6339   22.9642 C.3     1  UNL1        0.0749
     23 C           1.4116    1.9340   23.8801 C.3     1  UNL1        0.0444
     24 C           1.0328    1.6765   25.3085 C.ar    1  UNL1       -0.0101
     25 C          -0.3058    2.1189   25.8208 C.ar    1  UNL1       -0.0091
     26 C          -0.6846    1.8614   27.2492 C.ar    1  UNL1       -0.0032
     27 C           0.2751    1.1614   28.1652 C.ar    1  UNL1        0.0010
     28 C           1.6137    0.7190   27.6528 C.ar    1  UNL1        0.0142
     29 C           1.9925    0.9765   26.2245 C.ar    1  UNL1        0.0436
     30 C          -1.2655    2.8188   24.9049 C.3     1  UNL1        0.0954
     31 N          -0.8867    3.0763   23.4766 N.3     1  UNL1       -0.2934
     32 H          -0.9370    4.0853   23.3359 H       1  UNL1        0.1236
     33 N           3.3311    0.5341   25.7121 N.pl3   1  UNL1       -0.3049
     34 C           4.4958    1.4788   25.7436 C.3     1  UNL1        0.1079
     35 C           5.8344    1.0363   25.2312 C.3     1  UNL1        0.0903
     36 N           6.0082   -0.3508   24.6873 N.3     1  UNL1       -0.2946
     37 C           4.8434   -1.2954   24.6558 C.3     1  UNL1        0.0903
     38 C           3.5049   -0.8530   25.1682 C.3     1  UNL1        0.1079
     39 H           6.7346   -0.7976   25.2468 H       1  UNL1        0.1233
@<TRIPOS>BOND
     1    13    14    1
     2    14    15    1
     3    14    16    1
     4    16    17    1
     5    17    18    1
     6    18    12    1
     7    12     1    1
     8     1    21    1
     9    22    21    1
    10    22    23    1
    11    23    24    1
    12    24    25   ar
    13    25    26   ar
    14    26    27   ar
    15    27    28   ar
    16    28    29   ar
    17    29    33    1
    18    33    34    1
    19    34    35    1
    20    35    36    1
    21    36    37    1
    22    37    38    1
    23    25    30    1
    24    30    31    1
    25     2     1    1
    26     2     3    1
    27     3     4    1
    28     4     5    1
    29     5     6    1
    30     6     7   ar
    31     7     8   ar
    32     8     9   ar
    33     9    10   ar
    34    10    11   ar
    35    18    19    1
    36    19    20    1
    37    20    14    1
    38    31    22    1
    39    11     2    1
    40    29    24   ar
    41    38    33    1
    42    11     6   ar
    43    36    39    1
    44    31    32    1
@<TRIPOS>MOLECULE
*****
 39 44 0 0 0
SMALL
GASTEIGER

@<TRIPOS>ATOM
      1 N           5.9718   -3.3105   23.2291 N.3     1  UNL1       -0.2679
      2 C           7.0446   -4.3457   23.0636 C.3     1  UNL1        0.0978
      3 C           7.8104   -4.4331   21.7768 C.3     1  UNL1        0.0224
      4 C           8.8833   -5.4683   21.6113 C.3     1  UNL1        0.0065
      5 C           9.1904   -6.4160   22.7327 C.3     1  UNL1        0.0277
      6 C           8.4246   -6.3286   24.0196 C.ar    1  UNL1       -0.0073
      7 C           8.7318   -7.2763   25.1409 C.ar    1  UNL1       -0.0015
      8 C           7.9660   -7.1888   26.4278 C.ar    1  UNL1        0.0203
      9 C           6.8931   -6.1537   26.5932 C.ar    1  UNL1        0.0985
     10 N           6.5860   -5.2060   25.4719 N.ar    1  UNL1       -0.2471
     11 C           7.3518   -5.2934   24.1851 C.ar    1  UNL1        0.0695
     12 C           4.6220   -3.5237   22.6102 C.3     1  UNL1        0.0724
     13 F           3.6987   -1.4773   17.3375 F       1  UNL1       -0.2043
     14 C           3.5169   -1.3610   18.8219 C.3     1  UNL1        0.2639
     15 F           2.7707   -0.1402   18.3716 F       1  UNL1       -0.2043
     16 C           3.0759   -0.8207   20.1499 C.3     1  UNL1        0.0666
     17 C           3.4443   -1.5416   21.4127 C.3     1  UNL1        0.0070
     18 C           4.2537   -2.8028   21.3474 C.3     1  UNL1        0.0164
     19 C           4.6946   -3.3431   20.0194 C.3     1  UNL1        0.0070
     20 C           4.3262   -2.6222   18.7567 C.3     1  UNL1        0.0666
     21 C           6.2485   -2.0623   24.0133 C.3     1  UNL1        0.0886
     22 C           5.3506   -1.6770   25.1515 C.3     1  UNL1        0.0749
     23 C           4.3058   -0.6184   24.9573 C.3     1  UNL1        0.0444
     24 C           3.4079   -0.2332   26.0955 C.ar    1  UNL1       -0.0101
     25 C           3.5548   -0.9066   27.4278 C.ar    1  UNL1       -0.0091
     26 C           2.6569   -0.5213   28.5659 C.ar    1  UNL1       -0.0032
     27 C           1.6121    0.5373   28.3718 C.ar    1  UNL1        0.0010
     28 C           1.4652    1.2107   27.0395 C.ar    1  UNL1        0.0142
     29 C           2.3630    0.8254   25.9014 C.ar    1  UNL1        0.0436
     30 C           4.5996   -1.9652   27.6219 C.3     1  UNL1        0.0954
     31 N           5.4975   -2.3504   26.4838 N.3     1  UNL1       -0.2934
     32 H           5.3608   -3.3487   26.3258 H       1  UNL1        0.1236
     33 N           2.2161    1.4988   24.5691 N.pl3   1  UNL1       -0.3049
     34 C           1.2539    0.9540   23.5554 C.3     1  UNL1        0.1079
     35 C           1.1070    1.6274   22.2231 C.3     1  UNL1        0.0903
     36 N           1.9223    2.8456   21.9045 N.3     1  UNL1       -0.2946
     37 C           2.8844    3.3903   22.9182 C.3     1  UNL1        0.0903
     38 C           3.0313    2.7170   24.2504 C.3     1  UNL1        0.1079
     39 H           1.2626    3.5942   21.6926 H       1  UNL1        0.1233
@<TRIPOS>BOND
     1    13    14    1
     2    14    15    1
     3    14    16    1
     4    16    17    1
     5    17    18    1
     6    18    12    1
     7    12     1    1
     8     1    21    1
     9    22    21    1
    10    22    23    1
    11    23    24    1
    12    24    25   ar
    13    25    26   ar
    14    26    27   ar
    15    27    28   ar
    16    28    29   ar
    17    29    33    1
    18    33    34    1
    19    34    35    1
    20    35    36    1
    21    36    37    1
    22    37    38    1
    23    25    30    1
    24    30    31    1
    25     2     1    1
    26     2     3    1
    27     3     4    1
    28     4     5    1
    29     5     6    1
    30     6     7   ar
    31     7     8   ar
    32     8     9   ar
    33     9    10   ar
    34    10    11   ar
    35    18    19    1
    36    19    20    1
    37    20    14    1
    38    31    22    1
    39    11     2    1
    40    29    24   ar
    41    38    33    1
    42    11     6   ar
    43    36    39    1
    44    31    32    1
@<TRIPOS>MOLECULE
*****
 39 44 0 0 0
SMALL
GASTEIGER

@<TRIPOS>ATOM
      1 N          -9.0502  -17.8743   21.9123 N.3     1  UNL1       -0.2679
      2 C         -10.4943  -17.5171   21.7199 C.3     1  UNL1        0.0978
      3 C         -10.9294  -16.7955   20.4790 C.3     1  UNL1        0.0224
      4 C         -12.3735  -16.4382   20.2865 C.3     1  UNL1        0.0065
      5 C         -13.3824  -16.8025   21.3350 C.3     1  UNL1        0.0277
      6 C         -12.9473  -17.5241   22.5760 C.ar    1  UNL1       -0.0073
      7 C         -13.9562  -17.8884   23.6245 C.ar    1  UNL1       -0.0015
      8 C         -13.5210  -18.6100   24.8654 C.ar    1  UNL1        0.0203
      9 C         -12.0769  -18.9673   25.0578 C.ar    1  UNL1        0.0985
     10 N         -11.0680  -18.6030   24.0094 N.ar    1  UNL1       -0.2471
     11 C         -11.5032  -17.8814   22.7685 C.ar    1  UNL1        0.0695
     12 C          -8.1210  -16.9062   22.5827 C.3     1  UNL1        0.0724
     13 F          -8.8121  -16.5817   28.2624 F       1  UNL1       -0.2043
     14 C          -8.6761  -15.8996   26.9334 C.3     1  UNL1        0.2639
     15 F          -8.8237  -14.7034   27.8263 F       1  UNL1       -0.2043
     16 C          -8.5914  -14.8019   25.9145 C.3     1  UNL1        0.0666
     17 C          -8.4063  -15.1375   24.4643 C.3     1  UNL1        0.0070
     18 C          -8.3060  -16.5706   24.0329 C.3     1  UNL1        0.0164
     19 C          -8.3908  -17.6682   25.0518 C.3     1  UNL1        0.0070
     20 C          -8.5759  -17.3327   26.5020 C.3     1  UNL1        0.0666
     21 C          -8.5354  -19.1996   21.4345 C.3     1  UNL1        0.0886
     22 C          -7.0601  -19.4162   21.2702 C.3     1  UNL1        0.0749
     23 C          -6.0898  -18.6355   22.1062 C.3     1  UNL1        0.0444
     24 C          -4.6147  -18.8521   21.9419 C.ar    1  UNL1       -0.0101
     25 C          -4.1099  -19.8494   20.9415 C.ar    1  UNL1       -0.0091
     26 C          -2.6347  -20.0659   20.7772 C.ar    1  UNL1       -0.0032
     27 C          -1.6643  -19.2853   21.6132 C.ar    1  UNL1        0.0010
     28 C          -2.1691  -18.2880   22.6135 C.ar    1  UNL1        0.0142
     29 C          -3.6442  -18.0714   22.7779 C.ar    1  UNL1        0.0436
     30 C          -5.0802  -20.6300   20.1055 C.3     1  UNL1        0.0954
     31 N          -6.5554  -20.4134   20.2698 N.3     1  UNL1       -0.2934
     32 H          -6.9589  -21.3152   20.5236 H       1  UNL1        0.1236
     33 N          -4.1490  -17.0742   23.7783 N.pl3   1  UNL1       -0.3049
     34 C          -4.1852  -17.4266   25.2359 C.3     1  UNL1        0.1079
     35 C          -4.6900  -16.4294   26.2362 C.3     1  UNL1        0.0903
     36 N          -5.1586  -15.0798   25.7790 N.3     1  UNL1       -0.2946
     37 C          -5.1224  -14.7274   24.3214 C.3     1  UNL1        0.0903
     38 C          -4.6176  -15.7246   23.3211 C.3     1  UNL1        0.1079
     39 H          -4.5849  -14.3893   26.2632 H       1  UNL1        0.1233
@<TRIPOS>BOND
     1    13    14    1
     2    14    15    1
     3    14    16    1
     4    16    17    1
     5    17    18    1
     6    18    12    1
     7    12     1    1
     8     1    21    1
     9    22    21    1
    10    22    23    1
    11    23    24    1
    12    24    25   ar
    13    25    26   ar
    14    26    27   ar
    15    27    28   ar
    16    28    29   ar
    17    29    33    1
    18    33    34    1
    19    34    35    1
    20    35    36    1
    21    36    37    1
    22    37    38    1
    23    25    30    1
    24    30    31    1
    25     2     1    1
    26     2     3    1
    27     3     4    1
    28     4     5    1
    29     5     6    1
    30     6     7   ar
    31     7     8   ar
    32     8     9   ar
    33     9    10   ar
    34    10    11   ar
    35    18    19    1
    36    19    20    1
    37    20    14    1
    38    31    22    1
    39    11     2    1
    40    29    24   ar
    41    38    33    1
    42    11     6   ar
    43    36    39    1
    44    31    32    1
@<TRIPOS>MOLECULE
*****
 39 44 0 0 0
SMALL
GASTEIGER

@<TRIPOS>ATOM
      1 N           6.4504   -2.6572   24.7417 N.3     1  UNL1       -0.2679
      2 C           7.3057   -3.6580   24.0228 C.3     1  UNL1        0.0978
      3 C           7.9988   -3.2747   22.7490 C.3     1  UNL1        0.0224
      4 C           8.8541   -4.2756   22.0301 C.3     1  UNL1        0.0065
      5 C           9.0163   -5.6597   22.5850 C.3     1  UNL1        0.0277
      6 C           8.3231   -6.0430   23.8589 C.ar    1  UNL1       -0.0073
      7 C           8.4853   -7.4270   24.4138 C.ar    1  UNL1       -0.0015
      8 C           7.7921   -7.8103   25.6876 C.ar    1  UNL1        0.0203
      9 C           6.9368   -6.8095   26.4065 C.ar    1  UNL1        0.0985
     10 N           6.7747   -5.4254   25.8516 N.ar    1  UNL1       -0.2471
     11 C           7.4678   -5.0421   24.5778 C.ar    1  UNL1        0.0695
     12 C           4.9973   -2.5247   24.3934 C.3     1  UNL1        0.0724
     13 F           3.1913   -1.7806   19.0058 F       1  UNL1       -0.2043
     14 C           3.6911   -2.6883   20.0903 C.3     1  UNL1        0.2639
     15 F           3.5237   -3.6798   18.9772 F       1  UNL1       -0.2043
     16 C           4.1327   -3.9406   20.7882 C.3     1  UNL1        0.0666
     17 C           4.5682   -3.8860   22.2226 C.3     1  UNL1        0.0070
     18 C           4.5619   -2.5792   22.9591 C.3     1  UNL1        0.0164
     19 C           4.1203   -1.3271   22.2612 C.3     1  UNL1        0.0070
     20 C           3.6849   -1.3817   20.8268 C.3     1  UNL1        0.0666
     21 C           7.0480   -1.7888   25.8088 C.3     1  UNL1        0.0886
     22 C           6.9694   -2.2068   27.2473 C.3     1  UNL1        0.0749
     23 C           5.9929   -1.5396   28.1699 C.3     1  UNL1        0.0444
     24 C           5.9143   -1.9576   29.6083 C.ar    1  UNL1       -0.0101
     25 C           6.8121   -3.0429   30.1241 C.ar    1  UNL1       -0.0091
     26 C           6.7334   -3.4609   31.5626 C.ar    1  UNL1       -0.0032
     27 C           5.7570   -2.7936   32.4852 C.ar    1  UNL1        0.0010
     28 C           4.8592   -1.7083   31.9694 C.ar    1  UNL1        0.0142
     29 C           4.9378   -1.2903   30.5310 C.ar    1  UNL1        0.0436
     30 C           7.7886   -3.7101   29.2015 C.3     1  UNL1        0.0954
     31 N           7.8672   -3.2921   27.7631 N.3     1  UNL1       -0.2934
     32 H           7.6755   -4.1234   27.2040 H       1  UNL1        0.1236
     33 N           4.0400   -0.2050   30.0152 N.pl3   1  UNL1       -0.3049
     34 C           2.6864   -0.5485   29.4674 C.3     1  UNL1        0.1079
     35 C           1.7886    0.5368   28.9516 C.3     1  UNL1        0.0903
     36 N           2.2443    1.9656   28.9836 N.3     1  UNL1       -0.2946
     37 C           3.5978    2.3090   29.5313 C.3     1  UNL1        0.0903
     38 C           4.4956    1.2237   30.0471 C.3     1  UNL1        0.1079
     39 H           1.5621    2.4799   29.5407 H       1  UNL1        0.1233
@<TRIPOS>BOND
     1    13    14    1
     2    14    15    1
     3    14    16    1
     4    16    17    1
     5    17    18    1
     6    18    12    1
     7    12     1    1
     8     1    21    1
     9    22    21    1
    10    22    23    1
    11    23    24    1
    12    24    25   ar
    13    25    26   ar
    14    26    27   ar
    15    27    28   ar
    16    28    29   ar
    17    29    33    1
    18    33    34    1
    19    34    35    1
    20    35    36    1
    21    36    37    1
    22    37    38    1
    23    25    30    1
    24    30    31    1
    25     2     1    1
    26     2     3    1
    27     3     4    1
    28     4     5    1
    29     5     6    1
    30     6     7   ar
    31     7     8   ar
    32     8     9   ar
    33     9    10   ar
    34    10    11   ar
    35    18    19    1
    36    19    20    1
    37    20    14    1
    38    31    22    1
    39    11     2    1
    40    29    24   ar
    41    38    33    1
    42    11     6   ar
    43    36    39    1
    44    31    32    1
@<TRIPOS>MOLECULE
*****
 39 44 0 0 0
SMALL
GASTEIGER

@<TRIPOS>ATOM
      1 N           3.5710    0.4502   25.3322 N.3     1  UNL1       -0.2679
      2 C           2.1604    0.9602   25.3279 C.3     1  UNL1        0.0978
      3 C           1.5680    1.5171   24.0674 C.3     1  UNL1        0.0224
      4 C           0.1574    2.0271   24.0631 C.3     1  UNL1        0.0065
      5 C          -0.6609    1.9801   25.3193 C.3     1  UNL1        0.0277
      6 C          -0.0686    1.4232   26.5799 C.ar    1  UNL1       -0.0073
      7 C          -0.8869    1.3763   27.8361 C.ar    1  UNL1       -0.0015
      8 C          -0.2946    0.8194   29.0966 C.ar    1  UNL1        0.0203
      9 C           1.1161    0.3094   29.1009 C.ar    1  UNL1        0.0985
     10 N           1.9344    0.3563   27.8447 N.ar    1  UNL1       -0.2471
     11 C           1.3420    0.9132   26.5842 C.ar    1  UNL1        0.0695
     12 C           4.7179    1.4165   25.3021 C.3     1  UNL1        0.0724
     13 F           6.5493    3.4611   20.2715 F       1  UNL1       -0.2043
     14 C           6.6733    2.4666   21.3875 C.3     1  UNL1        0.2639
     15 F           7.7958    2.0084   20.5044 F       1  UNL1       -0.2043
     16 C           7.1872    1.3129   22.1969 C.3     1  UNL1        0.0666
     17 C           6.5354    0.9629   23.5018 C.3     1  UNL1        0.0070
     18 C           5.3697    1.7665   23.9973 C.3     1  UNL1        0.0164
     19 C           4.8559    2.9202   23.1879 C.3     1  UNL1        0.0070
     20 C           5.5076    3.2702   21.8830 C.3     1  UNL1        0.0666
     21 C           3.8347   -1.0260   25.3665 C.3     1  UNL1        0.0886
     22 C           4.1407   -1.7630   24.0963 C.3     1  UNL1        0.0749
     23 C           3.5886   -1.2701   22.7916 C.3     1  UNL1        0.0444
     24 C           3.8946   -2.0071   21.5215 C.ar    1  UNL1       -0.0101
     25 C           4.7526   -3.2370   21.5561 C.ar    1  UNL1       -0.0091
     26 C           5.0585   -3.9740   20.2859 C.ar    1  UNL1       -0.0032
     27 C           4.5065   -3.4810   18.9812 C.ar    1  UNL1        0.0010
     28 C           3.6485   -2.2511   18.9466 C.ar    1  UNL1        0.0142
     29 C           3.3426   -1.5142   20.2167 C.ar    1  UNL1        0.0436
     30 C           5.3046   -3.7299   22.8608 C.3     1  UNL1        0.0954
     31 N           4.9986   -2.9929   24.1309 N.3     1  UNL1       -0.2934
     32 H           5.8939   -2.7161   24.5337 H       1  UNL1        0.1236
     33 N           2.4846   -0.2842   20.1821 N.pl3   1  UNL1       -0.3049
     34 C           3.1173    1.0676   20.0330 C.3     1  UNL1        0.1079
     35 C           2.2593    2.2976   19.9984 C.3     1  UNL1        0.0903
     36 N           0.7686    2.1756   20.1130 N.3     1  UNL1       -0.2946
     37 C           0.1360    0.8238   20.2621 C.3     1  UNL1        0.0903
     38 C           0.9940   -0.4062   20.2967 C.3     1  UNL1        0.1079
     39 H           0.3734    2.5944   19.2711 H       1  UNL1        0.1233
@<TRIPOS>BOND
     1    13    14    1
     2    14    15    1
     3    14    16    1
     4    16    17    1
     5    17    18    1
     6    18    12    1
     7    12     1    1
     8     1    21    1
     9    22    21    1
    10    22    23    1
    11    23    24    1
    12    24    25   ar
    13    25    26   ar
    14    26    27   ar
    15    27    28   ar
    16    28    29   ar
    17    29    33    1
    18    33    34    1
    19    34    35    1
    20    35    36    1
    21    36    37    1
    22    37    38    1
    23    25    30    1
    24    30    31    1
    25     2     1    1
    26     2     3    1
    27     3     4    1
    28     4     5    1
    29     5     6    1
    30     6     7   ar
    31     7     8   ar
    32     8     9   ar
    33     9    10   ar
    34    10    11   ar
    35    18    19    1
    36    19    20    1
    37    20    14    1
    38    31    22    1
    39    11     2    1
    40    29    24   ar
    41    38    33    1
    42    11     6   ar
    43    36    39    1
    44    31    32    1
@<TRIPOS>MOLECULE
*****
 39 44 0 0 0
SMALL
GASTEIGER

@<TRIPOS>ATOM
      1 N           0.3475    1.6849   21.3393 N.3     1  UNL1       -0.2679
      2 C           1.2399    1.6560   22.5445 C.3     1  UNL1        0.0978
      3 C           0.7151    1.1474   23.8544 C.3     1  UNL1        0.0224
      4 C           1.6075    1.1185   25.0597 C.3     1  UNL1        0.0065
      5 C           3.0248    1.5984   24.9551 C.3     1  UNL1        0.0277
      6 C           3.5498    2.1071   23.6452 C.ar    1  UNL1       -0.0073
      7 C           4.9671    2.5869   23.5406 C.ar    1  UNL1       -0.0015
      8 C           5.4919    3.0955   22.2308 C.ar    1  UNL1        0.0203
      9 C           4.5994    3.1244   21.0255 C.ar    1  UNL1        0.0985
     10 N           3.1821    2.6445   21.1301 N.ar    1  UNL1       -0.2471
     11 C           2.6573    2.1359   22.4399 C.ar    1  UNL1        0.0695
     12 C           0.2044    0.4618   20.4826 C.3     1  UNL1        0.0724
     13 F           4.5570   -0.9544   17.0343 F       1  UNL1       -0.2043
     14 C           3.7760   -1.1829   18.2943 C.3     1  UNL1        0.2639
     15 F           4.8191   -2.2514   18.4369 F       1  UNL1       -0.2043
     16 C           3.3573   -1.7826   19.6040 C.3     1  UNL1        0.0666
     17 C           2.1667   -1.2343   20.3334 C.3     1  UNL1        0.0070
     18 C           1.3949   -0.0864   19.7532 C.3     1  UNL1        0.0164
     19 C           1.8136    0.5132   18.4436 C.3     1  UNL1        0.0070
     20 C           3.0041   -0.0350   17.7142 C.3     1  UNL1        0.0666
     21 C          -0.4019    2.9366   20.9907 C.3     1  UNL1        0.0886
     22 C          -1.7789    3.1641   21.5403 C.3     1  UNL1        0.0749
     23 C          -1.9586    3.5413   22.9809 C.3     1  UNL1        0.0444
     24 C          -3.3356    3.7687   23.5305 C.ar    1  UNL1       -0.0101
     25 C          -4.5329    3.6190   22.6394 C.ar    1  UNL1       -0.0091
     26 C          -5.9100    3.8465   23.1890 C.ar    1  UNL1       -0.0032
     27 C          -6.0897    4.2237   24.6296 C.ar    1  UNL1        0.0010
     28 C          -4.8923    4.3734   25.5207 C.ar    1  UNL1        0.0142
     29 C          -3.5153    4.1459   24.9712 C.ar    1  UNL1        0.0436
     30 C          -4.3533    3.2419   21.1988 C.3     1  UNL1        0.0954
     31 N          -2.9763    3.0144   20.6492 N.3     1  UNL1       -0.2934
     32 H          -2.8542    3.6720   19.8791 H       1  UNL1        0.1236
     33 N          -2.3180    4.2956   25.8622 N.pl3   1  UNL1       -0.3049
     34 C          -1.7366    5.6550   26.1151 C.3     1  UNL1        0.1079
     35 C          -0.5393    5.8047   27.0062 C.3     1  UNL1        0.0903
     36 N           0.0767    4.5949   27.6443 N.3     1  UNL1       -0.2946
     37 C          -0.5048    3.2356   27.3914 C.3     1  UNL1        0.0903
     38 C          -1.7021    3.0859   26.5003 C.3     1  UNL1        0.1079
     39 H           0.0452    4.7457   28.6526 H       1  UNL1        0.1233
@<TRIPOS>BOND
     1    13    14    1
     2    14    15    1
     3    14    16    1
     4    16    17    1
     5    17    18    1
     6    18    12    1
     7    12     1    1
     8     1    21    1
     9    22    21    1
    10    22    23    1
    11    23    24    1
    12    24    25   ar
    13    25    26   ar
    14    26    27   ar
    15    27    28   ar
    16    28    29   ar
    17    29    33    1
    18    33    34    1
    19    34    35    1
    20    35    36    1
    21    36    37    1
    22    37    38    1
    23    25    30    1
    24    30    31    1
    25     2     1    1
    26     2     3    1
    27     3     4    1
    28     4     5    1
    29     5     6    1
    30     6     7   ar
    31     7     8   ar
    32     8     9   ar
    33     9    10   ar
    34    10    11   ar
    35    18    19    1
    36    19    20    1
    37    20    14    1
    38    31    22    1
    39    11     2    1
    40    29    24   ar
    41    38    33    1
    42    11     6   ar
    43    36    39    1
    44    31    32    1
