@<TRIPOS>MOLECULE
*****
 25 28 0 0 0
SMALL
GASTEIGER

@<TRIPOS>ATOM
      1 C           6.7441   -4.1058   23.1731 C.ar    1  UNL1        0.1845
      2 N           7.6487   -4.8957   22.2744 N.ar    1  UNL1       -0.1274
      3 N           7.2898   -4.5713   20.8546 N.ar    1  UNL1       -0.1316
      4 C           6.1634   -3.5810   20.8758 C.ar    1  UNL1        0.1615
      5 N           5.8261   -3.2932   22.3088 N.ar    1  UNL1       -0.2944
      6 C           4.7268   -2.3285   22.6414 C.3     1  UNL1        0.1302
      7 C           3.9646   -1.6515   21.5410 C.3     1  UNL1        0.1186
      8 N           4.3019   -1.9392   20.1080 N.am    1  UNL1       -0.2688
      9 C           3.5398   -1.2622   19.0077 C.2     1  UNL1        0.2494
     10 O           3.8771   -1.5499   17.5747 O.2     1  UNL1       -0.2699
     11 C           5.4013   -2.9040   19.7754 C.3     1  UNL1        0.1343
     12 C           5.7386   -3.1917   18.3424 C.3     1  UNL1        0.0298
     13 C           2.4404   -0.2975   19.3403 C.ar    1  UNL1        0.0537
     14 C           1.2623   -0.7529   20.1494 C.ar    1  UNL1        0.0068
     15 C           0.1629    0.2119   20.4820 C.ar    1  UNL1        0.0298
     16 C           0.2416    1.6320   20.0056 C.ar    1  UNL1        0.1401
     17 F          -0.8578    2.5968   20.3382 F       1  UNL1       -0.2042
     18 C           1.4198    2.0874   19.1965 C.ar    1  UNL1        0.0298
     19 C           2.5191    1.1227   18.8638 C.ar    1  UNL1        0.0068
     20 C           6.9859   -5.7889   28.1721 C.3     1  UNL1        0.0594
     21 C           6.8666   -4.8987   26.9708 C.ar    1  UNL1        0.0887
     22 N           6.9137   -5.3403   25.5380 N.ar    1  UNL1       -0.2396
     23 C           6.7554   -4.1251   24.6730 C.ar    1  UNL1        0.1237
     24 C           6.6104   -2.9325   25.5711 C.ar    1  UNL1        0.0588
     25 S           6.6791   -3.4106   26.9912 S.2     1  UNL1       -0.0701
@<TRIPOS>BOND
     1    20    21    1
     2    21    22   ar
     3    22    23   ar
     4    23     1    1
     5     1     2   ar
     6     2     3   ar
     7     3     4   ar
     8     4     5   ar
     9     5     6    1
    10     6     7    1
    11     7     8    1
    12     8     9   am
    13     9    10    2
    14     9    13    1
    15    13    14   ar
    16    14    15   ar
    17    15    16   ar
    18    16    17    1
    19    16    18   ar
    20    18    19   ar
    21     8    11    1
    22    11    12    1
    23    23    24   ar
    24    24    25   ar
    25    25    21   ar
    26     5     1   ar
    27    19    13   ar
    28    11     4    1
@<TRIPOS>MOLECULE
*****
 25 28 0 0 0
SMALL
GASTEIGER

@<TRIPOS>ATOM
      1 C         -17.5242   -1.3220   20.1089 C.ar    1  UNL1        0.1845
      2 N         -18.6904   -2.1931   20.4708 N.ar    1  UNL1       -0.1274
      3 N         -18.2963   -3.6198   20.2274 N.ar    1  UNL1       -0.1316
      4 C         -16.8865   -3.6304   19.7151 C.ar    1  UNL1        0.1615
      5 N         -16.4093   -2.2102   19.6419 N.ar    1  UNL1       -0.2944
      6 C         -15.0213   -1.9094   19.1595 C.3     1  UNL1        0.1302
      7 C         -14.1104   -3.0287   18.7502 C.3     1  UNL1        0.1186
      8 N         -14.5876   -4.4489   18.8234 N.am    1  UNL1       -0.2688
      9 C         -13.6768   -5.5682   18.4142 C.2     1  UNL1        0.2494
     10 O         -14.1540   -6.9884   18.4874 O.2     1  UNL1       -0.2699
     11 C         -15.9757   -4.7497   19.3059 C.3     1  UNL1        0.1343
     12 C         -16.4529   -6.1699   19.3791 C.3     1  UNL1        0.0298
     13 C         -12.2888   -5.2674   17.9317 C.ar    1  UNL1        0.0537
     14 C         -11.1640   -5.1392   18.9158 C.ar    1  UNL1        0.0068
     15 C          -9.7759   -4.8383   18.4333 C.ar    1  UNL1        0.0298
     16 C          -9.5126   -4.6656   16.9668 C.ar    1  UNL1        0.1401
     17 F          -8.1246   -4.3648   16.4842 F       1  UNL1       -0.2042
     18 C         -10.6374   -4.7938   15.9827 C.ar    1  UNL1        0.0298
     19 C         -12.0255   -5.0946   16.4651 C.ar    1  UNL1        0.0068
     20 C         -17.0547    3.5839   22.0042 C.3     1  UNL1        0.0594
     21 C         -17.2646    2.4298   21.0696 C.ar    1  UNL1        0.0887
     22 N         -17.2145    0.9765   21.4379 N.ar    1  UNL1       -0.2396
     23 C         -17.4804    0.1747   20.1984 C.ar    1  UNL1        0.1237
     24 C         -17.6949    1.1324   19.0640 C.ar    1  UNL1        0.0588
     25 S         -17.5616    2.5260   19.6024 S.2     1  UNL1       -0.0701
@<TRIPOS>BOND
     1    20    21    1
     2    21    22   ar
     3    22    23   ar
     4    23     1    1
     5     1     2   ar
     6     2     3   ar
     7     3     4   ar
     8     4     5   ar
     9     5     6    1
    10     6     7    1
    11     7     8    1
    12     8     9   am
    13     9    10    2
    14     9    13    1
    15    13    14   ar
    16    14    15   ar
    17    15    16   ar
    18    16    17    1
    19    16    18   ar
    20    18    19   ar
    21     8    11    1
    22    11    12    1
    23    23    24   ar
    24    24    25   ar
    25    25    21   ar
    26     5     1   ar
    27    19    13   ar
    28    11     4    1
@<TRIPOS>MOLECULE
*****
 25 28 0 0 0
SMALL
GASTEIGER

@<TRIPOS>ATOM
      1 C         -18.5683   -3.8137   19.5953 C.ar    1  UNL1        0.1845
      2 N         -19.4882   -4.9548   19.9141 N.ar    1  UNL1       -0.1274
      3 N         -18.7160   -6.2309   19.7557 N.ar    1  UNL1       -0.1316
      4 C         -17.3188   -5.8786   19.3391 C.ar    1  UNL1        0.1615
      5 N         -17.2274   -4.3846   19.2399 N.ar    1  UNL1       -0.2944
      6 C         -15.9352   -3.7372   18.8388 C.3     1  UNL1        0.1302
      7 C         -14.7342   -4.5837   18.5369 C.3     1  UNL1        0.1186
      8 N         -14.8255   -6.0776   18.6361 N.am    1  UNL1       -0.2688
      9 C         -13.6246   -6.9241   18.3342 C.2     1  UNL1        0.2494
     10 O         -13.7159   -8.4180   18.4333 O.2     1  UNL1       -0.2699
     11 C         -16.1178   -6.7250   19.0372 C.3     1  UNL1        0.1343
     12 C         -16.2091   -8.2190   19.1363 C.3     1  UNL1        0.0298
     13 C         -12.3323   -6.2766   17.9331 C.ar    1  UNL1        0.0537
     14 C         -11.3420   -5.8659   18.9821 C.ar    1  UNL1        0.0068
     15 C         -10.0497   -5.2184   18.5810 C.ar    1  UNL1        0.0298
     16 C          -9.7478   -4.9817   17.1309 C.ar    1  UNL1        0.1401
     17 F          -8.4555   -4.3342   16.7298 F       1  UNL1       -0.2042
     18 C         -10.7382   -5.3925   16.0819 C.ar    1  UNL1        0.0298
     19 C         -12.0304   -6.0399   16.4829 C.ar    1  UNL1        0.0068
     20 C         -19.8363    1.0100   21.3287 C.3     1  UNL1        0.0594
     21 C         -19.5091   -0.1401   20.4232 C.ar    1  UNL1        0.0887
     22 N         -19.1884   -1.5400   20.8565 N.ar    1  UNL1       -0.2396
     23 C         -18.9262   -2.3574   19.6264 C.ar    1  UNL1        0.1237
     24 C         -19.0849   -1.4628   18.4328 C.ar    1  UNL1        0.0588
     25 S         -19.4451   -0.0925   18.9252 S.2     1  UNL1       -0.0701
@<TRIPOS>BOND
     1    20    21    1
     2    21    22   ar
     3    22    23   ar
     4    23     1    1
     5     1     2   ar
     6     2     3   ar
     7     3     4   ar
     8     4     5   ar
     9     5     6    1
    10     6     7    1
    11     7     8    1
    12     8     9   am
    13     9    10    2
    14     9    13    1
    15    13    14   ar
    16    14    15   ar
    17    15    16   ar
    18    16    17    1
    19    16    18   ar
    20    18    19   ar
    21     8    11    1
    22    11    12    1
    23    23    24   ar
    24    24    25   ar
    25    25    21   ar
    26     5     1   ar
    27    19    13   ar
    28    11     4    1
@<TRIPOS>MOLECULE
*****
 25 28 0 0 0
SMALL
GASTEIGER

@<TRIPOS>ATOM
      1 C         -18.3392   -5.4912   19.5748 C.ar    1  UNL1        0.1845
      2 N         -19.2490   -4.4178   20.0944 N.ar    1  UNL1       -0.1274
      3 N         -18.4823   -3.1286   20.1115 N.ar    1  UNL1       -0.1316
      4 C         -17.0987   -3.4053   19.6025 C.ar    1  UNL1        0.1615
      5 N         -17.0103   -4.8655   19.2707 N.ar    1  UNL1       -0.2944
      6 C         -15.7311   -5.4367   18.7347 C.3     1  UNL1        0.1302
      7 C         -14.5403   -4.5477   18.5304 C.3     1  UNL1        0.1186
      8 N         -14.6287   -3.0875   18.8621 N.am    1  UNL1       -0.2688
      9 C         -13.4380   -2.1985   18.6578 C.2     1  UNL1        0.2494
     10 O         -13.5264   -0.7383   18.9895 O.2     1  UNL1       -0.2699
     11 C         -15.9080   -2.5163   19.3982 C.3     1  UNL1        0.1343
     12 C         -15.9965   -1.0562   19.7299 C.3     1  UNL1        0.0298
     13 C         -12.1588   -2.7697   18.1217 C.ar    1  UNL1        0.0537
     14 C         -11.2586   -3.5657   19.0195 C.ar    1  UNL1        0.0068
     15 C          -9.9793   -4.1369   18.4834 C.ar    1  UNL1        0.0298
     16 C          -9.6004   -3.9121   17.0496 C.ar    1  UNL1        0.1401
     17 F          -8.3211   -4.4833   16.5135 F       1  UNL1       -0.2042
     18 C         -10.5006   -3.1161   16.1518 C.ar    1  UNL1        0.0298
     19 C         -11.7798   -2.5449   16.6879 C.ar    1  UNL1        0.0068
     20 C         -18.8746  -10.3033   17.4681 C.3     1  UNL1        0.0594
     21 C         -18.9418   -9.1486   18.4230 C.ar    1  UNL1        0.0887
     22 N         -18.4157   -7.7661   18.1734 N.ar    1  UNL1       -0.2396
     23 C         -18.6958   -6.9366   19.3914 C.ar    1  UNL1        0.1237
     24 C         -19.3950   -7.8063   20.3938 C.ar    1  UNL1        0.0588
     25 S         -19.5470   -9.1733   19.7953 S.2     1  UNL1       -0.0701
@<TRIPOS>BOND
     1    20    21    1
     2    21    22   ar
     3    22    23   ar
     4    23     1    1
     5     1     2   ar
     6     2     3   ar
     7     3     4   ar
     8     4     5   ar
     9     5     6    1
    10     6     7    1
    11     7     8    1
    12     8     9   am
    13     9    10    2
    14     9    13    1
    15    13    14   ar
    16    14    15   ar
    17    15    16   ar
    18    16    17    1
    19    16    18   ar
    20    18    19   ar
    21     8    11    1
    22    11    12    1
    23    23    24   ar
    24    24    25   ar
    25    25    21   ar
    26     5     1   ar
    27    19    13   ar
    28    11     4    1
@<TRIPOS>MOLECULE
*****
 25 28 0 0 0
SMALL
GASTEIGER

@<TRIPOS>ATOM
      1 C         -14.0938   -5.4334   19.3232 C.ar    1  UNL1        0.1845
      2 N         -15.1393   -6.5089   19.3125 N.ar    1  UNL1       -0.1274
      3 N         -16.4761   -5.8578   19.5103 N.ar    1  UNL1       -0.1316
      4 C         -16.2567   -4.3799   19.6433 C.ar    1  UNL1        0.1615
      5 N         -14.7843   -4.1176   19.5277 N.ar    1  UNL1       -0.2944
      6 C         -14.2626   -2.7146   19.6235 C.3     1  UNL1        0.1302
      7 C         -15.2133   -1.5737   19.8350 C.3     1  UNL1        0.1186
      8 N         -16.6857   -1.8360   19.9506 N.am    1  UNL1       -0.2688
      9 C         -17.6364   -0.6952   20.1621 C.2     1  UNL1        0.2494
     10 O         -19.1087   -0.9574   20.2777 O.2     1  UNL1       -0.2699
     11 C         -17.2074   -3.2391   19.8548 C.3     1  UNL1        0.1343
     12 C         -18.6797   -3.5014   19.9704 C.3     1  UNL1        0.0298
     13 C         -17.1147    0.7079   20.2579 C.ar    1  UNL1        0.0537
     14 C         -16.4221    1.3324   19.0831 C.ar    1  UNL1        0.0068
     15 C         -15.9004    2.7356   19.1789 C.ar    1  UNL1        0.0298
     16 C         -16.0713    3.5141   20.4496 C.ar    1  UNL1        0.1401
     17 F         -15.5497    4.9172   20.5455 F       1  UNL1       -0.2042
     18 C         -16.7639    2.8896   21.6244 C.ar    1  UNL1        0.0298
     19 C         -17.2856    1.4865   21.5286 C.ar    1  UNL1        0.0068
     20 C          -9.3789   -7.7322   18.7181 C.3     1  UNL1        0.0594
     21 C         -10.4497   -6.6945   18.8802 C.ar    1  UNL1        0.0887
     22 N         -11.9195   -6.9588   19.0218 N.ar    1  UNL1       -0.2396
     23 C         -12.6169   -5.6378   19.1584 C.ar    1  UNL1        0.1237
     24 C         -11.5783   -4.5571   19.1011 C.ar    1  UNL1        0.0588
     25 S         -10.2389   -5.2101   18.9293 S.2     1  UNL1       -0.0701
@<TRIPOS>BOND
     1    20    21    1
     2    21    22   ar
     3    22    23   ar
     4    23     1    1
     5     1     2   ar
     6     2     3   ar
     7     3     4   ar
     8     4     5   ar
     9     5     6    1
    10     6     7    1
    11     7     8    1
    12     8     9   am
    13     9    10    2
    14     9    13    1
    15    13    14   ar
    16    14    15   ar
    17    15    16   ar
    18    16    17    1
    19    16    18   ar
    20    18    19   ar
    21     8    11    1
    22    11    12    1
    23    23    24   ar
    24    24    25   ar
    25    25    21   ar
    26     5     1   ar
    27    19    13   ar
    28    11     4    1
@<TRIPOS>MOLECULE
*****
 25 28 0 0 0
SMALL
GASTEIGER

@<TRIPOS>ATOM
      1 C           2.1600    1.7396   25.6267 C.ar    1  UNL1        0.1845
      2 N           2.3934    3.2114   25.4556 N.ar    1  UNL1       -0.1274
      3 N           3.0712    3.4227   24.1343 N.ar    1  UNL1       -0.1316
      4 C           3.2567    2.0815   23.4887 C.ar    1  UNL1        0.1615
      5 N           2.6935    1.0412   24.4111 N.ar    1  UNL1       -0.2944
      6 C           2.7392   -0.4074   24.0249 C.3     1  UNL1        0.1302
      7 C           3.3482   -0.8159   22.7162 C.3     1  UNL1        0.1186
      8 N           3.9114    0.2243   21.7939 N.am    1  UNL1       -0.2688
      9 C           4.5203   -0.1841   20.4854 C.2     1  UNL1        0.2494
     10 O           5.0835    0.8561   19.5630 O.2     1  UNL1       -0.2699
     11 C           3.8656    1.6731   22.1802 C.3     1  UNL1        0.1343
     12 C           4.4288    2.7133   21.2578 C.3     1  UNL1        0.0298
     13 C           4.5660   -1.6328   20.0992 C.ar    1  UNL1        0.0537
     14 C           5.8017   -2.4410   20.3640 C.ar    1  UNL1        0.0068
     15 C           5.8474   -3.8897   19.9777 C.ar    1  UNL1        0.0298
     16 C           4.6575   -4.5302   19.3267 C.ar    1  UNL1        0.1401
     17 F           4.7032   -5.9790   18.9405 F       1  UNL1       -0.2042
     18 C           3.4219   -3.7221   19.0619 C.ar    1  UNL1        0.0298
     19 C           3.3761   -2.2734   19.4481 C.ar    1  UNL1        0.0068
     20 C          -1.4910   -0.0373   29.0021 C.3     1  UNL1        0.0594
     21 C          -0.1707    0.2648   28.3578 C.ar    1  UNL1        0.0887
     22 N           0.0331    1.0117   27.0729 N.ar    1  UNL1       -0.2396
     23 C           1.5075    1.0816   26.8062 C.ar    1  UNL1        0.1237
     24 C           2.2151    0.3779   27.9262 C.ar    1  UNL1        0.0588
     25 S           1.1779   -0.1269   28.8851 S.2     1  UNL1       -0.0701
@<TRIPOS>BOND
     1    20    21    1
     2    21    22   ar
     3    22    23   ar
     4    23     1    1
     5     1     2   ar
     6     2     3   ar
     7     3     4   ar
     8     4     5   ar
     9     5     6    1
    10     6     7    1
    11     7     8    1
    12     8     9   am
    13     9    10    2
    14     9    13    1
    15    13    14   ar
    16    14    15   ar
    17    15    16   ar
    18    16    17    1
    19    16    18   ar
    20    18    19   ar
    21     8    11    1
    22    11    12    1
    23    23    24   ar
    24    24    25   ar
    25    25    21   ar
    26     5     1   ar
    27    19    13   ar
    28    11     4    1
@<TRIPOS>MOLECULE
*****
 25 28 0 0 0
SMALL
GASTEIGER

@<TRIPOS>ATOM
      1 C         -13.3159   -5.9542   18.8176 C.ar    1  UNL1        0.1845
      2 N         -11.8235   -5.9896   18.9638 N.ar    1  UNL1       -0.1274
      3 N         -11.3239   -4.5752   18.9619 N.ar    1  UNL1       -0.1316
      4 C         -12.5076   -3.6657   18.8146 C.ar    1  UNL1        0.1615
      5 N         -13.7387   -4.5179   18.7254 N.ar    1  UNL1       -0.2944
      6 C         -15.0857   -3.8761   18.5717 C.3     1  UNL1        0.1302
      7 C         -15.2016   -2.3819   18.5072 C.3     1  UNL1        0.1186
      8 N         -13.9704   -1.5297   18.5964 N.am    1  UNL1       -0.2688
      9 C         -14.0863   -0.0356   18.5319 C.2     1  UNL1        0.2494
     10 O         -12.8551    0.8167   18.6211 O.2     1  UNL1       -0.2699
     11 C         -12.6234   -2.1716   18.7501 C.3     1  UNL1        0.1343
     12 C         -11.3923   -1.3193   18.8392 C.3     1  UNL1        0.0298
     13 C         -15.4333    0.6063   18.3782 C.ar    1  UNL1        0.0537
     14 C         -16.2311    0.9757   19.5936 C.ar    1  UNL1        0.0068
     15 C         -17.5781    1.6176   19.4398 C.ar    1  UNL1        0.0298
     16 C         -18.1273    1.8900   18.0709 C.ar    1  UNL1        0.1401
     17 F         -19.4743    2.5318   17.9171 F       1  UNL1       -0.2042
     18 C         -17.3295    1.5205   16.8555 C.ar    1  UNL1        0.0298
     19 C         -15.9825    0.8787   17.0092 C.ar    1  UNL1        0.0068
     20 C         -17.3801   -9.2063   19.7044 C.3     1  UNL1        0.0594
     21 C         -16.0940   -8.6407   19.1793 C.ar    1  UNL1        0.0887
     22 N         -15.5178   -7.2978   19.5185 N.ar    1  UNL1       -0.2396
     23 C         -14.2258   -7.1458   18.7718 C.ar    1  UNL1        0.1237
     24 C         -14.0035   -8.3945   17.9710 C.ar    1  UNL1        0.0588
     25 S         -15.1580   -9.3184   18.2229 S.2     1  UNL1       -0.0701
@<TRIPOS>BOND
     1    20    21    1
     2    21    22   ar
     3    22    23   ar
     4    23     1    1
     5     1     2   ar
     6     2     3   ar
     7     3     4   ar
     8     4     5   ar
     9     5     6    1
    10     6     7    1
    11     7     8    1
    12     8     9   am
    13     9    10    2
    14     9    13    1
    15    13    14   ar
    16    14    15   ar
    17    15    16   ar
    18    16    17    1
    19    16    18   ar
    20    18    19   ar
    21     8    11    1
    22    11    12    1
    23    23    24   ar
    24    24    25   ar
    25    25    21   ar
    26     5     1   ar
    27    19    13   ar
    28    11     4    1
@<TRIPOS>MOLECULE
*****
 25 28 0 0 0
SMALL
GASTEIGER

@<TRIPOS>ATOM
      1 C         -13.1223   -7.0736   18.1160 C.ar    1  UNL1        0.1845
      2 N         -11.7523   -7.6588   17.9414 N.ar    1  UNL1       -0.1274
      3 N         -10.8041   -6.5367   17.6387 N.ar    1  UNL1       -0.1316
      4 C         -11.5881   -5.2579   17.6262 C.ar    1  UNL1        0.1615
      5 N         -13.0209   -5.5897   17.9213 N.ar    1  UNL1       -0.2944
      6 C         -14.0480   -4.4979   17.9744 C.3     1  UNL1        0.1302
      7 C         -13.6423   -3.0741   17.7326 C.3     1  UNL1        0.1186
      8 N         -12.2095   -2.7423   17.4376 N.am    1  UNL1       -0.2688
      9 C         -11.8039   -1.3186   17.1958 C.2     1  UNL1        0.2494
     10 O         -10.3711   -0.9868   16.9007 O.2     1  UNL1       -0.2699
     11 C         -11.1824   -3.8342   17.3844 C.3     1  UNL1        0.1343
     12 C          -9.7496   -3.5024   17.0894 C.3     1  UNL1        0.0298
     13 C         -12.8310   -0.2268   17.2489 C.ar    1  UNL1        0.0537
     14 C         -13.4567    0.2766   15.9820 C.ar    1  UNL1        0.0068
     15 C         -14.4839    1.3685   16.0353 C.ar    1  UNL1        0.0298
     16 C         -14.8853    1.9570   17.3553 C.ar    1  UNL1        0.1401
     17 F         -15.9124    3.0489   17.4086 F       1  UNL1       -0.2042
     18 C         -14.2595    1.4536   18.6222 C.ar    1  UNL1        0.0298
     19 C         -13.2324    0.3617   18.5691 C.ar    1  UNL1        0.0068
     20 C         -17.7901   -8.4387   20.1726 C.3     1  UNL1        0.0594
     21 C         -16.5197   -8.4654   19.3756 C.ar    1  UNL1        0.0887
     22 N         -15.4646   -7.3992   19.3621 N.ar    1  UNL1       -0.2396
     23 C         -14.3741   -7.8380   18.4303 C.ar    1  UNL1        0.1237
     24 C         -14.7552   -9.1753   17.8678 C.ar    1  UNL1        0.0588
     25 S         -16.0812   -9.5631   18.4520 S.2     1  UNL1       -0.0701
@<TRIPOS>BOND
     1    20    21    1
     2    21    22   ar
     3    22    23   ar
     4    23     1    1
     5     1     2   ar
     6     2     3   ar
     7     3     4   ar
     8     4     5   ar
     9     5     6    1
    10     6     7    1
    11     7     8    1
    12     8     9   am
    13     9    10    2
    14     9    13    1
    15    13    14   ar
    16    14    15   ar
    17    15    16   ar
    18    16    17    1
    19    16    18   ar
    20    18    19   ar
    21     8    11    1
    22    11    12    1
    23    23    24   ar
    24    24    25   ar
    25    25    21   ar
    26     5     1   ar
    27    19    13   ar
    28    11     4    1
@<TRIPOS>MOLECULE
*****
 25 28 0 0 0
SMALL
GASTEIGER

@<TRIPOS>ATOM
      1 C           5.7166   -2.5911   27.0219 C.ar    1  UNL1        0.1845
      2 N           6.6492   -3.5760   27.6624 N.ar    1  UNL1       -0.1274
      3 N           7.3207   -4.3557   26.5711 N.ar    1  UNL1       -0.1316
      4 C           6.8032   -3.8528   25.2561 C.ar    1  UNL1        0.1615
      5 N           5.8118   -2.7622   25.5347 N.ar    1  UNL1       -0.2944
      6 C           5.1238   -2.0657   24.3982 C.3     1  UNL1        0.1302
      7 C           5.4272   -2.4600   22.9831 C.3     1  UNL1        0.1186
      8 N           6.4186   -3.5506   22.7045 N.am    1  UNL1       -0.2688
      9 C           6.7220   -3.9448   21.2894 C.2     1  UNL1        0.2494
     10 O           7.7134   -5.0354   21.0108 O.2     1  UNL1       -0.2699
     11 C           7.1066   -4.2470   23.8410 C.3     1  UNL1        0.1343
     12 C           8.0980   -5.3376   23.5624 C.3     1  UNL1        0.0298
     13 C           6.0340   -3.2484   20.1529 C.ar    1  UNL1        0.0537
     14 C           6.7571   -2.1900   19.3738 C.ar    1  UNL1        0.0068
     15 C           6.0690   -1.4936   18.2373 C.ar    1  UNL1        0.0298
     16 C           4.6579   -1.8556   17.8799 C.ar    1  UNL1        0.1401
     17 F           3.9699   -1.1592   16.7434 F       1  UNL1       -0.2042
     18 C           3.9349   -2.9140   18.6590 C.ar    1  UNL1        0.0298
     19 C           4.6229   -3.6104   19.7955 C.ar    1  UNL1        0.0068
     20 C           1.4654   -0.0190   28.8084 C.3     1  UNL1        0.0594
     21 C           2.8882   -0.4254   28.5633 C.ar    1  UNL1        0.0887
     22 N           3.3435   -1.5653   27.7009 N.ar    1  UNL1       -0.2396
     23 C           4.8423   -1.6077   27.7420 C.ar    1  UNL1        0.1237
     24 C           5.3134   -0.4942   28.6298 C.ar    1  UNL1        0.0588
     25 S           4.1057    0.2365   29.1373 S.2     1  UNL1       -0.0701
@<TRIPOS>BOND
     1    20    21    1
     2    21    22   ar
     3    22    23   ar
     4    23     1    1
     5     1     2   ar
     6     2     3   ar
     7     3     4   ar
     8     4     5   ar
     9     5     6    1
    10     6     7    1
    11     7     8    1
    12     8     9   am
    13     9    10    2
    14     9    13    1
    15    13    14   ar
    16    14    15   ar
    17    15    16   ar
    18    16    17    1
    19    16    18   ar
    20    18    19   ar
    21     8    11    1
    22    11    12    1
    23    23    24   ar
    24    24    25   ar
    25    25    21   ar
    26     5     1   ar
    27    19    13   ar
    28    11     4    1
