@<TRIPOS>MOLECULE
*****
 30 33 0 0 0
SMALL
GASTEIGER

@<TRIPOS>ATOM
      1 C          -9.3669  -18.0718   22.9802 C.ar    1  UNL1        0.1581
      2 N          -8.7389  -19.3111   22.4147 N.ar    1  UNL1       -0.1641
      3 N          -7.2500  -19.1317   22.4456 N.ar    1  UNL1       -0.2463
      4 C          -6.9578  -17.7815   23.0301 C.ar    1  UNL1        0.0799
      5 C          -5.6695  -17.0639   23.3042 C.ar    1  UNL1        0.0188
      6 C          -5.6894  -15.6913   23.9087 C.ar    1  UNL1        0.0015
      7 C          -6.9978  -15.0363   24.2391 C.ar    1  UNL1        0.0001
      8 C          -8.2861  -15.7538   23.9650 C.ar    1  UNL1        0.0032
      9 C          -8.2662  -17.1265   23.3605 C.ar    1  UNL1        0.0413
     10 C         -13.1372  -17.9780   23.8980 C.ar    1  UNL1        0.1965
     11 N         -13.0639  -16.8956   22.8620 N.ar    1  UNL1       -0.0587
     12 O         -11.6427  -16.7991   22.3921 O.2     1  UNL1       -0.3311
     13 C         -10.8375  -17.8217   23.1377 C.ar    1  UNL1        0.2792
     14 N         -11.7611  -18.5502   24.0683 N.ar    1  UNL1       -0.1884
     15 N         -14.3211  -18.6245   26.1183 N.3     1  UNL1       -0.3147
     16 C         -14.3698  -18.4118   24.6343 C.3     1  UNL1        0.1355
     17 H         -15.2407  -18.9151   26.4505 H       1  UNL1        0.1192
     18 H         -14.0530  -17.7543   26.5780 H       1  UNL1        0.1192
     19 C          -6.2320  -20.1276   21.9745 C.3     1  UNL1        0.1538
     20 C          -4.9551  -19.6544   21.3454 C.ar    1  UNL1        0.0021
     21 C          -4.9640  -19.1119   19.9470 C.ar    1  UNL1       -0.0022
     22 C          -3.6872  -18.6388   19.3178 C.ar    1  UNL1        0.0042
     23 C          -2.4014  -18.7081   20.0872 C.ar    1  UNL1        0.0531
     24 C          -2.3925  -19.2506   21.4856 C.ar    1  UNL1        0.0042
     25 C          -3.6693  -19.7237   22.1148 C.ar    1  UNL1       -0.0022
     26 C          -1.1246  -18.2350   19.4581 C.2     1  UNL1        0.2427
     27 N          -1.1220  -17.7528   18.0378 N.am    1  UNL1       -0.3253
     28 O           0.1498  -18.2440   20.2494 O.2     1  UNL1       -0.2704
     29 H          -1.9583  -17.7469   17.5184 H       1  UNL1        0.1453
     30 H          -0.2839  -17.4423   17.6249 H       1  UNL1        0.1453
@<TRIPOS>BOND
     1    15    16    1
     2    16    10    1
     3    10    11   ar
     4    11    12   ar
     5    12    13   ar
     6    13     1    1
     7     1     2   ar
     8     2     3   ar
     9     3    19    1
    10    19    20    1
    11    20    21   ar
    12    21    22   ar
    13    22    23   ar
    14    23    26    1
    15    26    27   am
    16    26    28    2
    17    23    24   ar
    18    24    25   ar
    19     3     4   ar
    20     4     5   ar
    21     5     6   ar
    22     6     7   ar
    23     7     8   ar
    24     8     9   ar
    25    13    14   ar
    26    14    10   ar
    27     9     1   ar
    28    25    20   ar
    29     9     4   ar
    30    15    17    1
    31    15    18    1
    32    27    29    1
    33    27    30    1
@<TRIPOS>MOLECULE
*****
 30 33 0 0 0
SMALL
GASTEIGER

@<TRIPOS>ATOM
      1 C          -7.6534  -16.1450   23.2374 C.ar    1  UNL1        0.1581
      2 N          -6.2787  -16.6422   22.9012 N.ar    1  UNL1       -0.1641
      3 N          -5.4595  -16.6250   24.1576 N.ar    1  UNL1       -0.2463
      4 C          -6.3279  -16.1174   25.2703 C.ar    1  UNL1        0.0799
      5 C          -6.0592  -15.8869   26.7279 C.ar    1  UNL1        0.0188
      6 C          -7.1464  -15.3597   27.6168 C.ar    1  UNL1        0.0015
      7 C          -8.5023  -15.0631   27.0480 C.ar    1  UNL1        0.0001
      8 C          -8.7711  -15.2936   25.5904 C.ar    1  UNL1        0.0032
      9 C          -7.6839  -15.8207   24.7016 C.ar    1  UNL1        0.0413
     10 C         -10.9582  -16.2601   21.2049 C.ar    1  UNL1        0.1965
     11 N         -10.1552  -15.2836   20.3976 N.ar    1  UNL1       -0.0587
     12 O          -8.8195  -15.1217   21.0607 O.2     1  UNL1       -0.3311
     13 C          -8.7970  -15.9981   22.2779 C.ar    1  UNL1        0.2792
     14 N         -10.1187  -16.7016   22.3669 N.ar    1  UNL1       -0.1884
     15 N         -12.9464  -17.8708   21.6548 N.3     1  UNL1       -0.3147
     16 C         -12.3552  -16.7151   20.9032 C.3     1  UNL1        0.1355
     17 H         -13.8959  -18.0418   21.3235 H       1  UNL1        0.1192
     18 H         -12.9680  -17.6531   22.6511 H       1  UNL1        0.1192
     19 C          -4.0240  -17.0423   24.2799 C.3     1  UNL1        0.1538
     20 C          -3.2190  -17.3304   23.0473 C.ar    1  UNL1        0.0021
     21 C          -3.0988  -18.7376   22.5419 C.ar    1  UNL1       -0.0022
     22 C          -2.2939  -19.0257   21.3094 C.ar    1  UNL1        0.0042
     23 C          -1.6093  -17.9066   20.5822 C.ar    1  UNL1        0.0531
     24 C          -1.7295  -16.4994   21.0876 C.ar    1  UNL1        0.0042
     25 C          -2.5344  -16.2113   22.3201 C.ar    1  UNL1       -0.0022
     26 C          -0.8044  -18.1946   19.3497 C.2     1  UNL1        0.2427
     27 N          -1.3325  -17.8047   18.0010 N.am    1  UNL1       -0.3253
     28 O           0.5287  -18.8726   19.4658 O.2     1  UNL1       -0.2704
     29 H          -2.2074  -17.3597   17.9247 H       1  UNL1        0.1453
     30 H          -0.8042  -17.9938   17.1920 H       1  UNL1        0.1453
@<TRIPOS>BOND
     1    15    16    1
     2    16    10    1
     3    10    11   ar
     4    11    12   ar
     5    12    13   ar
     6    13     1    1
     7     1     2   ar
     8     2     3   ar
     9     3    19    1
    10    19    20    1
    11    20    21   ar
    12    21    22   ar
    13    22    23   ar
    14    23    26    1
    15    26    27   am
    16    26    28    2
    17    23    24   ar
    18    24    25   ar
    19     3     4   ar
    20     4     5   ar
    21     5     6   ar
    22     6     7   ar
    23     7     8   ar
    24     8     9   ar
    25    13    14   ar
    26    14    10   ar
    27     9     1   ar
    28    25    20   ar
    29     9     4   ar
    30    15    17    1
    31    15    18    1
    32    27    29    1
    33    27    30    1
@<TRIPOS>MOLECULE
*****
 30 33 0 0 0
SMALL
GASTEIGER

@<TRIPOS>ATOM
      1 C          -6.5113  -18.6490   20.8482 C.ar    1  UNL1        0.1581
      2 N          -7.0166  -17.5528   21.7387 N.ar    1  UNL1       -0.1641
      3 N          -8.5015  -17.4516   21.5522 N.ar    1  UNL1       -0.2463
      4 C          -8.9140  -18.4852   20.5465 C.ar    1  UNL1        0.0799
      5 C         -10.2506  -18.8481   19.9707 C.ar    1  UNL1        0.0188
      6 C         -10.3573  -19.9511   18.9598 C.ar    1  UNL1        0.0015
      7 C          -9.1273  -20.6912   18.5247 C.ar    1  UNL1        0.0001
      8 C          -7.7906  -20.3283   19.1005 C.ar    1  UNL1        0.0032
      9 C          -7.6839  -19.2253   20.1114 C.ar    1  UNL1        0.0413
     10 C          -2.6963  -19.0858   20.2820 C.ar    1  UNL1        0.1965
     11 N          -3.0789  -20.4584   20.7506 N.ar    1  UNL1       -0.0587
     12 O          -4.5545  -20.4619   21.0198 O.2     1  UNL1       -0.3311
     13 C          -5.0840  -19.0914   20.7175 C.ar    1  UNL1        0.2792
     14 N          -3.9356  -18.2410   20.2615 N.ar    1  UNL1       -0.1884
     15 N          -1.1014  -17.8744   18.6271 N.3     1  UNL1       -0.3147
     16 C          -1.3168  -18.6369   19.9007 C.3     1  UNL1        0.1355
     17 H          -0.1111  -17.6515   18.5277 H       1  UNL1        0.1192
     18 H          -1.6435  -17.0107   18.6521 H       1  UNL1        0.1192
     19 C          -9.4138  -16.4861   22.2491 C.3     1  UNL1        0.1538
     20 C         -10.6669  -16.9811   22.9087 C.ar    1  UNL1        0.0021
     21 C         -11.9945  -16.3914   22.5349 C.ar    1  UNL1       -0.0022
     22 C         -13.2475  -16.8863   23.1944 C.ar    1  UNL1        0.0042
     23 C         -13.1729  -17.9709   24.2279 C.ar    1  UNL1        0.0531
     24 C         -11.8453  -18.5606   24.6017 C.ar    1  UNL1        0.0042
     25 C         -10.5923  -18.0657   23.9422 C.ar    1  UNL1       -0.0022
     26 C         -14.4258  -18.4659   24.8875 C.2     1  UNL1        0.2427
     27 N         -14.4990  -18.5609   26.3826 N.am    1  UNL1       -0.3253
     28 O         -15.6057  -18.8658   24.0519 O.2     1  UNL1       -0.2704
     29 H         -13.7247  -18.2984   26.9311 H       1  UNL1        0.1453
     30 H         -15.3214  -18.8858   26.8156 H       1  UNL1        0.1453
@<TRIPOS>BOND
     1    15    16    1
     2    16    10    1
     3    10    11   ar
     4    11    12   ar
     5    12    13   ar
     6    13     1    1
     7     1     2   ar
     8     2     3   ar
     9     3    19    1
    10    19    20    1
    11    20    21   ar
    12    21    22   ar
    13    22    23   ar
    14    23    26    1
    15    26    27   am
    16    26    28    2
    17    23    24   ar
    18    24    25   ar
    19     3     4   ar
    20     4     5   ar
    21     5     6   ar
    22     6     7   ar
    23     7     8   ar
    24     8     9   ar
    25    13    14   ar
    26    14    10   ar
    27     9     1   ar
    28    25    20   ar
    29     9     4   ar
    30    15    17    1
    31    15    18    1
    32    27    29    1
    33    27    30    1
@<TRIPOS>MOLECULE
*****
 30 33 0 0 0
SMALL
GASTEIGER

@<TRIPOS>ATOM
      1 C          -9.6982  -18.8479   22.1472 C.ar    1  UNL1        0.1581
      2 N          -8.4294  -19.0533   22.9205 N.ar    1  UNL1       -0.1641
      3 N          -7.4336  -19.7102   22.0112 N.ar    1  UNL1       -0.2463
      4 C          -8.0870  -19.9108   20.6759 C.ar    1  UNL1        0.0799
      5 C          -7.5883  -20.5099   19.3944 C.ar    1  UNL1        0.0188
      6 C          -8.4893  -20.5761   18.1970 C.ar    1  UNL1        0.0015
      7 C          -9.8889  -20.0431   18.2811 C.ar    1  UNL1        0.0001
      8 C         -10.3875  -19.4440   19.5626 C.ar    1  UNL1        0.0032
      9 C          -9.4866  -19.3779   20.7600 C.ar    1  UNL1        0.0413
     10 C         -13.0873  -17.9113   23.7911 C.ar    1  UNL1        0.1965
     11 N         -12.7035  -16.6080   23.1552 N.ar    1  UNL1       -0.0587
     12 O         -11.3872  -16.8002   22.4621 O.2     1  UNL1       -0.3311
     13 C         -10.9575  -18.2223   22.6695 C.ar    1  UNL1        0.2792
     14 N         -12.0082  -18.9089   23.4908 N.ar    1  UNL1       -0.1884
     15 N         -14.2285  -18.6287   26.0120 N.3     1  UNL1       -0.3147
     16 C         -14.3316  -18.1712   24.5872 C.3     1  UNL1        0.1355
     17 H         -15.1645  -18.7555   26.3970 H       1  UNL1        0.1192
     18 H         -13.7281  -17.9279   26.5587 H       1  UNL1        0.1192
     19 C          -6.0307  -20.0984   22.3734 C.3     1  UNL1        0.1538
     20 C          -4.8711  -19.4831   21.6475 C.ar    1  UNL1        0.0021
     21 C          -4.5448  -19.9187   20.2497 C.ar    1  UNL1       -0.0022
     22 C          -3.3852  -19.3035   19.5238 C.ar    1  UNL1        0.0042
     23 C          -2.5520  -18.2528   20.1958 C.ar    1  UNL1        0.0531
     24 C          -2.8782  -17.8172   21.5936 C.ar    1  UNL1        0.0042
     25 C          -4.0378  -18.4324   22.3195 C.ar    1  UNL1       -0.0022
     26 C          -1.3924  -17.6375   19.4699 C.2     1  UNL1        0.2427
     27 N          -1.3033  -17.7394   17.9761 N.am    1  UNL1       -0.3253
     28 O          -0.3218  -16.9204   20.2379 O.2     1  UNL1       -0.2704
     29 H          -2.0059  -18.2101   17.4720 H       1  UNL1        0.1453
     30 H          -0.5422  -17.3356   17.4997 H       1  UNL1        0.1453
@<TRIPOS>BOND
     1    15    16    1
     2    16    10    1
     3    10    11   ar
     4    11    12   ar
     5    12    13   ar
     6    13     1    1
     7     1     2   ar
     8     2     3   ar
     9     3    19    1
    10    19    20    1
    11    20    21   ar
    12    21    22   ar
    13    22    23   ar
    14    23    26    1
    15    26    27   am
    16    26    28    2
    17    23    24   ar
    18    24    25   ar
    19     3     4   ar
    20     4     5   ar
    21     5     6   ar
    22     6     7   ar
    23     7     8   ar
    24     8     9   ar
    25    13    14   ar
    26    14    10   ar
    27     9     1   ar
    28    25    20   ar
    29     9     4   ar
    30    15    17    1
    31    15    18    1
    32    27    29    1
    33    27    30    1
@<TRIPOS>MOLECULE
*****
 30 33 0 0 0
SMALL
GASTEIGER

@<TRIPOS>ATOM
      1 C          -8.1162  -17.7851   22.6383 C.ar    1  UNL1        0.1581
      2 N          -6.8093  -18.4613   22.3469 N.ar    1  UNL1       -0.1641
      3 N          -6.9835  -19.2936   21.1113 N.ar    1  UNL1       -0.2463
      4 C          -8.3980  -19.1319   20.6390 C.ar    1  UNL1        0.0799
      5 C          -9.1390  -19.7131   19.4715 C.ar    1  UNL1        0.0188
      6 C         -10.5801  -19.3619   19.2478 C.ar    1  UNL1        0.0015
      7 C         -11.2801  -18.4296   20.1916 C.ar    1  UNL1        0.0001
      8 C         -10.5391  -17.8484   21.3591 C.ar    1  UNL1        0.0032
      9 C          -9.0980  -18.1996   21.5828 C.ar    1  UNL1        0.0413
     10 C          -8.2669  -15.7516   25.9411 C.ar    1  UNL1        0.1965
     11 N          -9.3694  -15.1078   25.1536 N.ar    1  UNL1       -0.0587
     12 O          -9.4471  -15.7912   23.8206 O.2     1  UNL1       -0.3311
     13 C          -8.3926  -16.8574   23.7841 C.ar    1  UNL1        0.2792
     14 N          -7.6633  -16.8329   25.0946 N.ar    1  UNL1       -0.1884
     15 N          -6.6354  -14.5142   27.5400 N.3     1  UNL1       -0.3147
     16 C          -7.8426  -15.3796   27.3308 C.3     1  UNL1        0.1355
     17 H          -6.4945  -14.3629   28.5388 H       1  UNL1        0.1192
     18 H          -6.7761  -13.6165   27.0767 H       1  UNL1        0.1192
     19 C          -5.9285  -20.1393   20.4619 C.3     1  UNL1        0.1538
     20 C          -4.5255  -19.6232   20.3367 C.ar    1  UNL1        0.0021
     21 C          -3.4815  -20.0406   21.3297 C.ar    1  UNL1       -0.0022
     22 C          -2.0787  -19.5246   21.2046 C.ar    1  UNL1        0.0042
     23 C          -1.7198  -18.5912   20.0866 C.ar    1  UNL1        0.0531
     24 C          -2.7638  -18.1738   19.0937 C.ar    1  UNL1        0.0042
     25 C          -4.1666  -18.6898   19.2187 C.ar    1  UNL1       -0.0022
     26 C          -0.3169  -18.0752   19.9615 C.2     1  UNL1        0.2427
     27 N          -0.0334  -16.6164   20.1657 N.am    1  UNL1       -0.3253
     28 O           0.8025  -19.0178   19.6322 O.2     1  UNL1       -0.2704
     29 H          -0.7681  -15.9977   20.3818 H       1  UNL1        0.1453
     30 H           0.8874  -16.2777   20.0835 H       1  UNL1        0.1453
@<TRIPOS>BOND
     1    15    16    1
     2    16    10    1
     3    10    11   ar
     4    11    12   ar
     5    12    13   ar
     6    13     1    1
     7     1     2   ar
     8     2     3   ar
     9     3    19    1
    10    19    20    1
    11    20    21   ar
    12    21    22   ar
    13    22    23   ar
    14    23    26    1
    15    26    27   am
    16    26    28    2
    17    23    24   ar
    18    24    25   ar
    19     3     4   ar
    20     4     5   ar
    21     5     6   ar
    22     6     7   ar
    23     7     8   ar
    24     8     9   ar
    25    13    14   ar
    26    14    10   ar
    27     9     1   ar
    28    25    20   ar
    29     9     4   ar
    30    15    17    1
    31    15    18    1
    32    27    29    1
    33    27    30    1
