@<TRIPOS>MOLECULE
*****
 24 27 0 0 0
SMALL
GASTEIGER

@<TRIPOS>ATOM
      1 O          -4.5370  -15.3451   24.6882 O.2     1  UNL1       -0.2699
      2 C          -4.7826  -16.3848   23.6353 C.2     1  UNL1        0.2494
      3 N          -6.1678  -16.9169   23.4154 N.am    1  UNL1       -0.2670
      4 C          -7.3072  -16.4092   24.2483 C.3     1  UNL1        0.1186
      5 C          -8.6923  -16.9412   24.0283 C.3     1  UNL1        0.1302
      6 N          -8.9380  -17.9809   22.9754 N.ar    1  UNL1       -0.2944
      7 C          -7.7985  -18.4886   22.1425 C.ar    1  UNL1        0.1636
      8 N          -8.3418  -19.5086   21.1862 N.ar    1  UNL1       -0.1315
      9 N          -9.8171  -19.6312   21.4281 N.ar    1  UNL1       -0.1274
     10 C         -10.1856  -18.6871   22.5339 C.ar    1  UNL1        0.1840
     11 C          -6.4134  -17.9566   22.3625 C.3     1  UNL1        0.1599
     12 C          -3.6431  -16.8926   22.8024 C.ar    1  UNL1        0.0537
     13 C          -2.8228  -15.9348   21.9901 C.ar    1  UNL1        0.0068
     14 C          -1.6833  -16.4426   21.1572 C.ar    1  UNL1        0.0298
     15 C          -1.3642  -17.9081   21.1365 C.ar    1  UNL1        0.1401
     16 F          -0.2247  -18.4158   20.3036 F       1  UNL1       -0.2042
     17 C          -2.1845  -18.8658   21.9488 C.ar    1  UNL1        0.0298
     18 C          -3.3239  -18.3581   22.7817 C.ar    1  UNL1        0.0068
     19 C         -11.5602  -18.4846   23.0990 C.ar    1  UNL1        0.1171
     20 C         -12.6486  -17.9152   22.2381 C.ar    1  UNL1        0.0223
     21 C         -14.0232  -17.7127   22.8033 C.ar    1  UNL1        0.0032
     22 C         -14.3095  -18.0797   24.2293 C.ar    1  UNL1        0.0207
     23 C         -13.2210  -18.6491   25.0902 C.ar    1  UNL1        0.0989
     24 N         -11.8465  -18.8516   24.5250 N.ar    1  UNL1       -0.2407
@<TRIPOS>BOND
     1     1     2    2
     2     2    12    1
     3    12    13   ar
     4    13    14   ar
     5    14    15   ar
     6    15    16    1
     7    15    17   ar
     8    17    18   ar
     9     2     3   am
    10     3     4    1
    11     4     5    1
    12     5     6    1
    13     6     7   ar
    14     7     8   ar
    15     8     9   ar
    16     9    10   ar
    17    10    19    1
    18    19    20   ar
    19    20    21   ar
    20    21    22   ar
    21    22    23   ar
    22    23    24   ar
    23     7    11    1
    24    18    12   ar
    25    11     3    1
    26    10     6   ar
    27    24    19   ar
@<TRIPOS>MOLECULE
*****
 24 27 0 0 0
SMALL
GASTEIGER

@<TRIPOS>ATOM
      1 O           6.5103   -2.2994   26.6998 O.2     1  UNL1       -0.2699
      2 C           6.4849   -3.2881   25.5721 C.2     1  UNL1        0.2494
      3 N           5.7407   -2.9670   24.3098 N.am    1  UNL1       -0.2670
      4 C           5.0221   -1.6573   24.1753 C.3     1  UNL1        0.1186
      5 C           4.2780   -1.3363   22.9131 C.3     1  UNL1        0.1302
      6 N           4.2526   -2.3250   21.7853 N.ar    1  UNL1       -0.2944
      7 C           4.9712   -3.6347   21.9198 C.ar    1  UNL1        0.1636
      8 N           4.7707   -4.4060   20.6491 N.ar    1  UNL1       -0.1315
      9 N           3.9282   -3.5730   19.7292 N.ar    1  UNL1       -0.1274
     10 C           3.6079   -2.2868   20.4314 C.ar    1  UNL1        0.1840
     11 C           5.7153   -3.9557   23.1821 C.3     1  UNL1        0.1599
     12 C           7.2035   -4.5978   25.7066 C.ar    1  UNL1        0.0537
     13 C           8.5562   -4.7785   25.0840 C.ar    1  UNL1        0.0068
     14 C           9.2748   -6.0883   25.2185 C.ar    1  UNL1        0.0298
     15 C           8.6408   -7.2173   25.9756 C.ar    1  UNL1        0.1401
     16 F           9.3594   -8.5271   26.1101 F       1  UNL1       -0.2042
     17 C           7.2881   -7.0367   26.5982 C.ar    1  UNL1        0.0298
     18 C           6.5695   -5.7269   26.4637 C.ar    1  UNL1        0.0068
     19 C           2.7871   -1.1603   19.8771 C.ar    1  UNL1        0.1171
     20 C           1.4429   -0.8510   20.4666 C.ar    1  UNL1        0.0223
     21 C           0.6222    0.2755   19.9122 C.ar    1  UNL1        0.0032
     22 C           1.1457    1.0927   18.7685 C.ar    1  UNL1        0.0207
     23 C           2.4899    0.7834   18.1791 C.ar    1  UNL1        0.0989
     24 N           3.3106   -0.3431   18.7334 N.ar    1  UNL1       -0.2407
@<TRIPOS>BOND
     1     1     2    2
     2     2    12    1
     3    12    13   ar
     4    13    14   ar
     5    14    15   ar
     6    15    16    1
     7    15    17   ar
     8    17    18   ar
     9     2     3   am
    10     3     4    1
    11     4     5    1
    12     5     6    1
    13     6     7   ar
    14     7     8   ar
    15     8     9   ar
    16     9    10   ar
    17    10    19    1
    18    19    20   ar
    19    20    21   ar
    20    21    22   ar
    21    22    23   ar
    22    23    24   ar
    23     7    11    1
    24    18    12   ar
    25    11     3    1
    26    10     6   ar
    27    24    19   ar
@<TRIPOS>MOLECULE
*****
 24 27 0 0 0
SMALL
GASTEIGER

@<TRIPOS>ATOM
      1 O         -18.0967   -2.6430   20.0275 O.2     1  UNL1       -0.2699
      2 C         -16.9318   -1.7577   19.6970 C.2     1  UNL1        0.2494
      3 N         -15.5845   -2.3600   19.4285 N.am    1  UNL1       -0.2670
      4 C         -15.4021   -3.8476   19.4904 C.3     1  UNL1        0.1186
      5 C         -14.0549   -4.4498   19.2219 C.3     1  UNL1        0.1302
      6 N         -12.8900   -3.5645   18.8914 N.ar    1  UNL1       -0.2944
      7 C         -13.0723   -2.0770   18.8295 C.ar    1  UNL1        0.1636
      8 N         -11.7492   -1.4619   18.4814 N.ar    1  UNL1       -0.1315
      9 N         -10.7492   -2.5694   18.3283 N.ar    1  UNL1       -0.1274
     10 C         -11.4541   -3.8689   18.5817 C.ar    1  UNL1        0.1840
     11 C         -14.4196   -1.4747   19.0980 C.3     1  UNL1        0.1599
     12 C         -17.1141   -0.2701   19.6350 C.ar    1  UNL1        0.0537
     13 C         -16.8730    0.5666   20.8564 C.ar    1  UNL1        0.0068
     14 C         -17.0553    2.0542   20.7944 C.ar    1  UNL1        0.0298
     15 C         -17.4788    2.7051   19.5111 C.ar    1  UNL1        0.1401
     16 F         -17.6612    4.1926   19.4492 F       1  UNL1       -0.2042
     17 C         -17.7200    1.8684   18.2897 C.ar    1  UNL1        0.0298
     18 C         -17.5377    0.3808   18.3517 C.ar    1  UNL1        0.0068
     19 C         -10.8325   -5.2332   18.5337 C.ar    1  UNL1        0.1171
     20 C          -9.6149   -5.5319   19.3572 C.ar    1  UNL1        0.0223
     21 C          -8.9934   -6.8962   19.3092 C.ar    1  UNL1        0.0032
     22 C          -9.5894   -7.9617   18.4378 C.ar    1  UNL1        0.0207
     23 C         -10.8071   -7.6630   17.6143 C.ar    1  UNL1        0.0989
     24 N         -11.4286   -6.2987   17.6623 N.ar    1  UNL1       -0.2407
@<TRIPOS>BOND
     1     1     2    2
     2     2    12    1
     3    12    13   ar
     4    13    14   ar
     5    14    15   ar
     6    15    16    1
     7    15    17   ar
     8    17    18   ar
     9     2     3   am
    10     3     4    1
    11     4     5    1
    12     5     6    1
    13     6     7   ar
    14     7     8   ar
    15     8     9   ar
    16     9    10   ar
    17    10    19    1
    18    19    20   ar
    19    20    21   ar
    20    21    22   ar
    21    22    23   ar
    22    23    24   ar
    23     7    11    1
    24    18    12   ar
    25    11     3    1
    26    10     6   ar
    27    24    19   ar
@<TRIPOS>MOLECULE
*****
 24 27 0 0 0
SMALL
GASTEIGER

@<TRIPOS>ATOM
      1 O         -10.6822   -1.9609   17.5168 O.2     1  UNL1       -0.2699
      2 C         -11.6016   -3.0546   17.9733 C.2     1  UNL1        0.2494
      3 N         -12.9933   -2.7245   18.4254 N.am    1  UNL1       -0.2670
      4 C         -13.4655   -1.3008   18.4210 C.3     1  UNL1        0.1186
      5 C         -14.8571   -0.9708   18.8731 C.3     1  UNL1        0.1302
      6 N         -15.7765   -2.0645   19.3297 N.ar    1  UNL1       -0.2944
      7 C         -15.3044   -3.4883   19.3340 C.ar    1  UNL1        0.1636
      8 N         -16.4275   -4.3475   19.8343 N.ar    1  UNL1       -0.1315
      9 N         -17.5938   -3.4548   20.1391 N.ar    1  UNL1       -0.1274
     10 C         -17.1915   -2.0439   19.8272 C.ar    1  UNL1        0.1840
     11 C         -13.9128   -3.8183   18.8819 C.3     1  UNL1        0.1599
     12 C         -11.1295   -4.4783   17.9777 C.ar    1  UNL1        0.0537
     13 C         -11.6019   -5.4285   16.9175 C.ar    1  UNL1        0.0068
     14 C         -11.1297   -6.8523   16.9219 C.ar    1  UNL1        0.0298
     15 C         -10.1851   -7.3258   17.9865 C.ar    1  UNL1        0.1401
     16 F          -9.7129   -8.7495   17.9909 F       1  UNL1       -0.2042
     17 C          -9.7126   -6.3757   19.0467 C.ar    1  UNL1        0.0298
     18 C         -10.1848   -4.9520   19.0423 C.ar    1  UNL1        0.0068
     19 C         -18.0529   -0.8261   19.9852 C.ar    1  UNL1        0.1171
     20 C         -19.3321   -0.7067   19.2110 C.ar    1  UNL1        0.0223
     21 C         -20.1934    0.5112   19.3689 C.ar    1  UNL1        0.0032
     22 C         -19.7755    1.6096   20.3011 C.ar    1  UNL1        0.0207
     23 C         -18.4963    1.4902   21.0753 C.ar    1  UNL1        0.0989
     24 N         -17.6351    0.2724   20.9173 N.ar    1  UNL1       -0.2407
@<TRIPOS>BOND
     1     1     2    2
     2     2    12    1
     3    12    13   ar
     4    13    14   ar
     5    14    15   ar
     6    15    16    1
     7    15    17   ar
     8    17    18   ar
     9     2     3   am
    10     3     4    1
    11     4     5    1
    12     5     6    1
    13     6     7   ar
    14     7     8   ar
    15     8     9   ar
    16     9    10   ar
    17    10    19    1
    18    19    20   ar
    19    20    21   ar
    20    21    22   ar
    21    22    23   ar
    22    23    24   ar
    23     7    11    1
    24    18    12   ar
    25    11     3    1
    26    10     6   ar
    27    24    19   ar
@<TRIPOS>MOLECULE
*****
 24 27 0 0 0
SMALL
GASTEIGER

@<TRIPOS>ATOM
      1 O          -0.4816    5.2386   24.7354 O.2     1  UNL1       -0.2699
      2 C          -1.3576    4.2360   25.4263 C.2     1  UNL1        0.2494
      3 N          -0.7512    3.2176   26.3458 N.am    1  UNL1       -0.2670
      4 C           0.7312    3.2019   26.5742 C.3     1  UNL1        0.1186
      5 C           1.3375    2.1836   27.4936 C.3     1  UNL1        0.1302
      6 N           0.4615    1.1810   28.1845 N.ar    1  UNL1       -0.2944
      7 C          -1.0209    1.1967   27.9560 C.ar    1  UNL1        0.1636
      8 N          -1.6270    0.0919   28.7696 N.ar    1  UNL1       -0.1315
      9 N          -0.5192   -0.6067   29.5010 N.ar    1  UNL1       -0.1274
     10 C           0.7716    0.0664   29.1394 C.ar    1  UNL1        0.1840
     11 C          -1.6272    2.2150   27.0367 C.3     1  UNL1        0.1599
     12 C          -2.8400    4.2517   25.1979 C.ar    1  UNL1        0.0537
     13 C          -3.7342    5.0163   26.1283 C.ar    1  UNL1        0.0068
     14 C          -5.2167    5.0320   25.8998 C.ar    1  UNL1        0.0298
     15 C          -5.8049    4.2831   24.7409 C.ar    1  UNL1        0.1401
     16 F          -7.2872    4.2988   24.5124 F       1  UNL1       -0.2042
     17 C          -4.9106    3.5185   23.8104 C.ar    1  UNL1        0.0298
     18 C          -3.4283    3.5028   24.0389 C.ar    1  UNL1        0.0068
     19 C           2.1333   -0.3091   29.6439 C.ar    1  UNL1        0.1171
     20 C           3.2558   -0.5363   28.6752 C.ar    1  UNL1        0.0223
     21 C           4.6175   -0.9118   29.1799 C.ar    1  UNL1        0.0032
     22 C           4.8568   -1.0601   30.6532 C.ar    1  UNL1        0.0207
     23 C           3.7343   -0.8329   31.6220 C.ar    1  UNL1        0.0989
     24 N           2.3726   -0.4574   31.1173 N.ar    1  UNL1       -0.2407
@<TRIPOS>BOND
     1     1     2    2
     2     2    12    1
     3    12    13   ar
     4    13    14   ar
     5    14    15   ar
     6    15    16    1
     7    15    17   ar
     8    17    18   ar
     9     2     3   am
    10     3     4    1
    11     4     5    1
    12     5     6    1
    13     6     7   ar
    14     7     8   ar
    15     8     9   ar
    16     9    10   ar
    17    10    19    1
    18    19    20   ar
    19    20    21   ar
    20    21    22   ar
    21    22    23   ar
    22    23    24   ar
    23     7    11    1
    24    18    12   ar
    25    11     3    1
    26    10     6   ar
    27    24    19   ar
@<TRIPOS>MOLECULE
*****
 24 27 0 0 0
SMALL
GASTEIGER

@<TRIPOS>ATOM
      1 O           3.9107   -1.1776   16.4528 O.2     1  UNL1       -0.2699
      2 C           3.7967   -0.6199   17.8406 C.2     1  UNL1        0.2494
      3 N           4.4665   -1.3182   18.9868 N.am    1  UNL1       -0.2670
      4 C           5.2502   -2.5741   18.7452 C.3     1  UNL1        0.1186
      5 C           5.9200   -3.2723   19.8915 C.3     1  UNL1        0.1302
      6 N           5.8060   -2.7147   21.2793 N.ar    1  UNL1       -0.2944
      7 C           5.0222   -1.4588   21.5208 C.ar    1  UNL1        0.1636
      8 N           5.0852   -1.1479   22.9869 N.ar    1  UNL1       -0.1315
      9 N           5.9079   -2.2117   23.6514 N.ar    1  UNL1       -0.1274
     10 C           6.3534   -3.1800   22.5961 C.ar    1  UNL1        0.1840
     11 C           4.3525   -0.7605   20.3746 C.3     1  UNL1        0.1599
     12 C           3.0130    0.6360   18.0821 C.ar    1  UNL1        0.0537
     13 C           1.5228    0.5712   18.2415 C.ar    1  UNL1        0.0068
     14 C           0.7391    1.8272   18.4830 C.ar    1  UNL1        0.0298
     15 C           1.4455    3.1479   18.5653 C.ar    1  UNL1        0.1401
     16 F           0.6618    4.4038   18.8069 F       1  UNL1       -0.2042
     17 C           2.9356    3.2127   18.4060 C.ar    1  UNL1        0.0298
     18 C           3.7193    1.9568   18.1644 C.ar    1  UNL1        0.0068
     19 C           7.1979   -4.3996   22.8184 C.ar    1  UNL1        0.1171
     20 C           7.1785   -5.0930   24.1483 C.ar    1  UNL1        0.0223
     21 C           8.0231   -6.3125   24.3706 C.ar    1  UNL1        0.0032
     22 C           8.8870   -6.8386   23.2629 C.ar    1  UNL1        0.0207
     23 C           8.9064   -6.1451   21.9330 C.ar    1  UNL1        0.0989
     24 N           8.0619   -4.9256   21.7108 N.ar    1  UNL1       -0.2407
@<TRIPOS>BOND
     1     1     2    2
     2     2    12    1
     3    12    13   ar
     4    13    14   ar
     5    14    15   ar
     6    15    16    1
     7    15    17   ar
     8    17    18   ar
     9     2     3   am
    10     3     4    1
    11     4     5    1
    12     5     6    1
    13     6     7   ar
    14     7     8   ar
    15     8     9   ar
    16     9    10   ar
    17    10    19    1
    18    19    20   ar
    19    20    21   ar
    20    21    22   ar
    21    22    23   ar
    22    23    24   ar
    23     7    11    1
    24    18    12   ar
    25    11     3    1
    26    10     6   ar
    27    24    19   ar
@<TRIPOS>MOLECULE
*****
 24 27 0 0 0
SMALL
GASTEIGER

@<TRIPOS>ATOM
      1 O           3.0611   -0.9468   29.8247 O.2     1  UNL1       -0.2699
      2 C           2.2394    0.2574   30.1781 C.2     1  UNL1        0.2494
      3 N           2.3904    0.8993   31.5254 N.am    1  UNL1       -0.2670
      4 C           3.3629    0.3370   32.5193 C.3     1  UNL1        0.1186
      5 C           3.5138    0.9789   33.8666 C.3     1  UNL1        0.1302
      6 N           2.6922    2.1831   34.2199 N.ar    1  UNL1       -0.2944
      7 C           1.7196    2.7453   33.2260 C.ar    1  UNL1        0.1636
      8 N           1.0508    3.9327   33.8527 N.ar    1  UNL1       -0.1315
      9 N           1.6100    4.1043   35.2339 N.ar    1  UNL1       -0.1274
     10 C           2.6244    3.0230   35.4609 C.ar    1  UNL1        0.1840
     11 C           1.5687    2.1034   31.8787 C.3     1  UNL1        0.1599
     12 C           1.2669    0.8196   29.1841 C.ar    1  UNL1        0.0537
     13 C           1.6844    1.9388   28.2769 C.ar    1  UNL1        0.0068
     14 C           0.7117    2.5011   27.2829 C.ar    1  UNL1        0.0298
     15 C          -0.6783    1.9441   27.1963 C.ar    1  UNL1        0.1401
     16 F          -1.6509    2.5064   26.2023 F       1  UNL1       -0.2042
     17 C          -1.0958    0.8250   28.1035 C.ar    1  UNL1        0.0298
     18 C          -0.1232    0.2627   29.0974 C.ar    1  UNL1        0.0068
     19 C           3.4297    2.8176   36.7096 C.ar    1  UNL1        0.1171
     20 C           3.0956    1.6899   37.6406 C.ar    1  UNL1        0.0223
     21 C           3.9010    1.4845   38.8892 C.ar    1  UNL1        0.0032
     22 C           5.0404    2.4068   39.2070 C.ar    1  UNL1        0.0207
     23 C           5.3745    3.5346   38.2761 C.ar    1  UNL1        0.0989
     24 N           4.5692    3.7399   37.0274 N.ar    1  UNL1       -0.2407
@<TRIPOS>BOND
     1     1     2    2
     2     2    12    1
     3    12    13   ar
     4    13    14   ar
     5    14    15   ar
     6    15    16    1
     7    15    17   ar
     8    17    18   ar
     9     2     3   am
    10     3     4    1
    11     4     5    1
    12     5     6    1
    13     6     7   ar
    14     7     8   ar
    15     8     9   ar
    16     9    10   ar
    17    10    19    1
    18    19    20   ar
    19    20    21   ar
    20    21    22   ar
    21    22    23   ar
    22    23    24   ar
    23     7    11    1
    24    18    12   ar
    25    11     3    1
    26    10     6   ar
    27    24    19   ar
@<TRIPOS>MOLECULE
*****
 24 27 0 0 0
SMALL
GASTEIGER

@<TRIPOS>ATOM
      1 O           7.4545   -4.9924   20.8970 O.2     1  UNL1       -0.2699
      2 C           6.5653   -3.9520   21.5107 C.2     1  UNL1        0.2494
      3 N           6.5143   -3.7937   23.0015 N.am    1  UNL1       -0.2670
      4 C           7.3526   -4.6758   23.8785 C.3     1  UNL1        0.1186
      5 C           7.3016   -4.5174   25.3692 C.3     1  UNL1        0.1302
      6 N           6.4123   -3.4770   25.9830 N.ar    1  UNL1       -0.2944
      7 C           5.5740   -2.5949   25.1060 C.ar    1  UNL1        0.1636
      8 N           4.7987   -1.6640   25.9905 N.ar    1  UNL1       -0.1315
      9 N           5.1578   -1.9709   27.4143 N.ar    1  UNL1       -0.1274
     10 C           6.1551   -3.0913   27.4096 C.ar    1  UNL1        0.1840
     11 C           5.6250   -2.7532   23.6153 C.3     1  UNL1        0.1599
     12 C           5.7270   -3.0699   20.6337 C.ar    1  UNL1        0.0537
     13 C           6.2692   -1.7561   20.1542 C.ar    1  UNL1        0.0068
     14 C           5.4309   -0.8740   19.2771 C.ar    1  UNL1        0.0298
     15 C           4.0504   -1.3056   18.8797 C.ar    1  UNL1        0.1401
     16 F           3.2122   -0.4235   18.0027 F       1  UNL1       -0.2042
     17 C           3.5082   -2.6194   19.3593 C.ar    1  UNL1        0.0298
     18 C           4.3465   -3.5015   20.2363 C.ar    1  UNL1        0.0068
     19 C           6.7846   -3.7164   28.6191 C.ar    1  UNL1        0.1171
     20 C           7.6627   -2.8956   29.5164 C.ar    1  UNL1        0.0223
     21 C           8.2922   -3.5207   30.7259 C.ar    1  UNL1        0.0032
     22 C           8.0435   -4.9667   31.0381 C.ar    1  UNL1        0.0207
     23 C           7.1654   -5.7875   30.1409 C.ar    1  UNL1        0.0989
     24 N           6.5359   -5.1623   28.9314 N.ar    1  UNL1       -0.2407
@<TRIPOS>BOND
     1     1     2    2
     2     2    12    1
     3    12    13   ar
     4    13    14   ar
     5    14    15   ar
     6    15    16    1
     7    15    17   ar
     8    17    18   ar
     9     2     3   am
    10     3     4    1
    11     4     5    1
    12     5     6    1
    13     6     7   ar
    14     7     8   ar
    15     8     9   ar
    16     9    10   ar
    17    10    19    1
    18    19    20   ar
    19    20    21   ar
    20    21    22   ar
    21    22    23   ar
    22    23    24   ar
    23     7    11    1
    24    18    12   ar
    25    11     3    1
    26    10     6   ar
    27    24    19   ar
@<TRIPOS>MOLECULE
*****
 24 27 0 0 0
SMALL
GASTEIGER

@<TRIPOS>ATOM
      1 O           6.1262   -0.8615   27.2878 O.2     1  UNL1       -0.2699
      2 C           6.2152   -2.0645   26.3963 C.2     1  UNL1        0.2494
      3 N           5.5821   -2.0389   25.0366 N.am    1  UNL1       -0.2670
      4 C           4.8601   -0.8103   24.5685 C.3     1  UNL1        0.1186
      5 C           4.2271   -0.7847   23.2089 C.3     1  UNL1        0.1302
      6 N           4.3161   -1.9877   22.3173 N.ar    1  UNL1       -0.2944
      7 C           5.0382   -3.2163   22.7854 C.ar    1  UNL1        0.1636
      8 N           4.9626   -4.2425   21.6940 N.ar    1  UNL1       -0.1315
      9 N           4.1938   -3.6480   20.5513 N.ar    1  UNL1       -0.1274
     10 C           3.7943   -2.2545   20.9365 C.ar    1  UNL1        0.1840
     11 C           5.6712   -3.2419   24.1451 C.3     1  UNL1        0.1599
     12 C           6.9372   -3.2931   26.8644 C.ar    1  UNL1        0.0537
     13 C           6.2239   -4.3056   27.7105 C.ar    1  UNL1        0.0068
     14 C           6.9460   -5.5343   28.1786 C.ar    1  UNL1        0.0298
     15 C           8.3813   -5.7504   27.8006 C.ar    1  UNL1        0.1401
     16 F           9.1034   -6.9790   28.2687 F       1  UNL1       -0.2042
     17 C           9.0947   -4.7379   26.9544 C.ar    1  UNL1        0.0298
     18 C           8.3727   -3.5093   26.4863 C.ar    1  UNL1        0.0068
     19 C           3.0105   -1.2961   20.0897 C.ar    1  UNL1        0.1171
     20 C           3.5864   -0.7908   18.8001 C.ar    1  UNL1        0.0223
     21 C           2.8026    0.1677   17.9534 C.ar    1  UNL1        0.0032
     22 C           1.4430    0.6208   18.3962 C.ar    1  UNL1        0.0207
     23 C           0.8671    0.1155   19.6858 C.ar    1  UNL1        0.0989
     24 N           1.6509   -0.8429   20.5325 N.ar    1  UNL1       -0.2407
@<TRIPOS>BOND
     1     1     2    2
     2     2    12    1
     3    12    13   ar
     4    13    14   ar
     5    14    15   ar
     6    15    16    1
     7    15    17   ar
     8    17    18   ar
     9     2     3   am
    10     3     4    1
    11     4     5    1
    12     5     6    1
    13     6     7   ar
    14     7     8   ar
    15     8     9   ar
    16     9    10   ar
    17    10    19    1
    18    19    20   ar
    19    20    21   ar
    20    21    22   ar
    21    22    23   ar
    22    23    24   ar
    23     7    11    1
    24    18    12   ar
    25    11     3    1
    26    10     6   ar
    27    24    19   ar
