@<TRIPOS>MOLECULE
*****
 36 39 0 0 0
SMALL
GASTEIGER

@<TRIPOS>ATOM
      1 O          -9.2624  -19.9163   22.6810 O.3     1  UNL1       -0.4741
      2 C          -7.9534  -19.7969   21.9585 C.ar    1  UNL1        0.1513
      3 C          -6.6774  -19.6619   22.7354 C.ar    1  UNL1        0.0688
      4 C          -5.3683  -19.5424   22.0128 C.ar    1  UNL1        0.1620
      5 F          -4.0924  -19.4075   22.7898 F       1  UNL1       -0.2026
      6 C          -5.3353  -19.5580   20.5133 C.ar    1  UNL1        0.1535
      7 C          -6.6112  -19.6930   19.7363 C.ar    1  UNL1        0.0369
      8 C          -7.9203  -19.8124   20.4589 C.ar    1  UNL1        0.0930
      9 CL         -9.1962  -19.9474   19.6819 Cl      1  UNL1       -0.0790
     10 S          -4.0262  -19.4386   19.7907 S.O2    1  UNL1        0.0772
     11 O          -4.5126  -18.1904   19.1159 O.2     1  UNL1       -0.1498
     12 O          -3.5399  -20.6867   20.4656 O.2     1  UNL1       -0.1498
     13 N          -2.7172  -19.3191   19.0681 N.pl3   1  UNL1       -0.1936
     14 H          -2.5641  -19.8281   18.2394 H       1  UNL1        0.1758
     15 C          -1.6413  -18.4241   19.6082 C.ar    1  UNL1        0.1786
     16 N          -0.1633  -18.6413   19.4727 N.ar    1  UNL1       -0.2214
     17 C           0.5368  -17.5063   20.1593 C.ar    1  UNL1        0.1079
     18 C          -0.5084  -16.5876   20.7192 C.ar    1  UNL1        0.0588
     19 S          -1.8547  -17.1549   20.3786 S.2     1  UNL1       -0.0497
     20 C          -9.9961  -18.6813   23.1129 C.3     1  UNL1        0.2110
     21 N         -11.9949  -19.1452   20.9244 N.3     1  UNL1       -0.3218
     22 C         -11.2856  -17.8273   21.0254 C.3     1  UNL1        0.0588
     23 C         -11.5758  -16.7414   20.0322 C.3     1  UNL1        0.0206
     24 C         -10.8666  -15.4235   20.1332 C.3     1  UNL1        0.0271
     25 C          -9.8672  -15.1916   21.2274 C.2     1  UNL1       -0.0302
     26 C          -9.5771  -16.2775   22.2207 C.2     1  UNL1       -0.0218
     27 C         -10.2863  -17.5954   22.1196 C.3     1  UNL1        0.0798
     28 H         -12.6329  -19.1278   20.1288 H       1  UNL1        0.1188
     29 H         -12.5233  -19.3134   21.7804 H       1  UNL1        0.1188
     30 C          -8.5777  -16.0456   23.3150 C.ar    1  UNL1       -0.0040
     31 C          -9.0466  -15.7692   24.7127 C.ar    1  UNL1        0.0020
     32 C          -8.0472  -15.5373   25.8070 C.ar    1  UNL1        0.0296
     33 C          -6.5789  -15.5817   25.5035 C.ar    1  UNL1        0.1401
     34 F          -5.5795  -15.3498   26.5978 F       1  UNL1       -0.2042
     35 C          -6.1100  -15.8581   24.1057 C.ar    1  UNL1        0.0296
     36 C          -7.1094  -16.0900   23.0115 C.ar    1  UNL1        0.0020
@<TRIPOS>BOND
     1    22    21    1
     2    22    23    1
     3    23    24    1
     4    24    25    1
     5    25    26    2
     6    26    30    1
     7    30    31   ar
     8    31    32   ar
     9    32    33   ar
    10    33    34    1
    11    33    35   ar
    12    35    36   ar
    13    26    27    1
    14    27    20    1
    15    20     1    1
    16     1     2    1
    17     2     3   ar
    18     3     4   ar
    19     4     5    1
    20     4     6   ar
    21     6    10    1
    22    10    11    2
    23    10    12    2
    24    10    13    1
    25    13    15    1
    26    15    16   ar
    27    16    17   ar
    28    17    18   ar
    29    18    19   ar
    30     6     7   ar
    31     7     8   ar
    32     8     9    1
    33    27    22    1
    34     8     2   ar
    35    36    30   ar
    36    19    15   ar
    37    21    28    1
    38    21    29    1
    39    13    14    1
@<TRIPOS>MOLECULE
*****
 36 39 0 0 0
SMALL
GASTEIGER

@<TRIPOS>ATOM
      1 O         -10.6116  -20.2845   22.3981 O.3     1  UNL1       -0.4741
      2 C          -9.2606  -20.0691   21.7830 C.ar    1  UNL1        0.1513
      3 C          -8.0221  -20.2602   22.6075 C.ar    1  UNL1        0.0688
      4 C          -6.6711  -20.0447   21.9924 C.ar    1  UNL1        0.1620
      5 F          -5.4326  -20.2358   22.8168 F       1  UNL1       -0.2026
      6 C          -6.5585  -19.6383   20.5529 C.ar    1  UNL1        0.1535
      7 C          -7.7970  -19.4473   19.7285 C.ar    1  UNL1        0.0369
      8 C          -9.1480  -19.6627   20.3435 C.ar    1  UNL1        0.0930
      9 CL        -10.3865  -19.4716   19.5191 Cl      1  UNL1       -0.0790
     10 S          -5.2075  -19.4229   19.9379 S.O2    1  UNL1        0.0772
     11 O          -4.8613  -20.8595   20.1951 O.2     1  UNL1       -0.1498
     12 O          -5.5537  -17.9863   19.6807 O.2     1  UNL1       -0.1498
     13 N          -3.8564  -19.2075   19.3229 N.pl3   1  UNL1       -0.1936
     14 H          -3.6056  -19.6921   18.5034 H       1  UNL1        0.1758
     15 C          -2.8874  -18.2538   19.9564 C.ar    1  UNL1        0.1786
     16 N          -3.0607  -17.5704   21.2804 N.ar    1  UNL1       -0.2214
     17 C          -1.8554  -16.7102   21.5195 C.ar    1  UNL1        0.1079
     18 C          -0.9370  -16.8620   20.3432 C.ar    1  UNL1        0.0588
     19 S          -1.5748  -17.8159   19.3771 S.2     1  UNL1       -0.0497
     20 C         -11.2628  -19.1841   23.1822 C.3     1  UNL1        0.2110
     21 N         -10.1732  -20.0990   25.8233 N.3     1  UNL1       -0.3218
     22 C          -9.8797  -18.7130   25.3305 C.3     1  UNL1        0.0588
     23 C          -9.0415  -17.7844   26.1581 C.3     1  UNL1        0.0206
     24 C          -8.7480  -16.3984   25.6653 C.3     1  UNL1        0.0271
     25 C          -9.2928  -15.9410   24.3448 C.2     1  UNL1       -0.0302
     26 C         -10.1311  -16.8695   23.5171 C.2     1  UNL1       -0.0218
     27 C         -10.4245  -18.2555   24.0099 C.3     1  UNL1        0.0798
     28 H          -9.7277  -20.2387   26.7302 H       1  UNL1        0.1188
     29 H          -9.8097  -20.7807   25.1573 H       1  UNL1        0.1188
     30 C         -10.6759  -16.4121   22.1965 C.ar    1  UNL1       -0.0040
     31 C         -12.1305  -16.5973   21.8805 C.ar    1  UNL1        0.0020
     32 C         -12.6754  -16.1399   20.5599 C.ar    1  UNL1        0.0296
     33 C         -11.7656  -15.4972   19.5553 C.ar    1  UNL1        0.1401
     34 F         -12.3104  -15.0398   18.2347 F       1  UNL1       -0.2042
     35 C         -10.3110  -15.3119   19.8713 C.ar    1  UNL1        0.0296
     36 C          -9.7662  -15.7694   21.1919 C.ar    1  UNL1        0.0020
@<TRIPOS>BOND
     1    22    21    1
     2    22    23    1
     3    23    24    1
     4    24    25    1
     5    25    26    2
     6    26    30    1
     7    30    31   ar
     8    31    32   ar
     9    32    33   ar
    10    33    34    1
    11    33    35   ar
    12    35    36   ar
    13    26    27    1
    14    27    20    1
    15    20     1    1
    16     1     2    1
    17     2     3   ar
    18     3     4   ar
    19     4     5    1
    20     4     6   ar
    21     6    10    1
    22    10    11    2
    23    10    12    2
    24    10    13    1
    25    13    15    1
    26    15    16   ar
    27    16    17   ar
    28    17    18   ar
    29    18    19   ar
    30     6     7   ar
    31     7     8   ar
    32     8     9    1
    33    27    22    1
    34     8     2   ar
    35    36    30   ar
    36    19    15   ar
    37    21    28    1
    38    21    29    1
    39    13    14    1
@<TRIPOS>MOLECULE
*****
 36 39 0 0 0
SMALL
GASTEIGER

@<TRIPOS>ATOM
      1 O          -8.7183  -15.6760   24.7498 O.3     1  UNL1       -0.4741
      2 C          -7.4099  -16.2277   24.2664 C.ar    1  UNL1        0.1513
      3 C          -7.3719  -17.1224   23.0631 C.ar    1  UNL1        0.0688
      4 C          -6.0634  -17.6742   22.5797 C.ar    1  UNL1        0.1620
      5 F          -6.0254  -18.5689   21.3764 F       1  UNL1       -0.2026
      6 C          -4.7930  -17.3311   23.2997 C.ar    1  UNL1        0.1535
      7 C          -4.8310  -16.4363   24.5030 C.ar    1  UNL1        0.0369
      8 C          -6.1394  -15.8846   24.9863 C.ar    1  UNL1        0.0930
      9 CL         -6.1774  -14.9899   26.1897 Cl      1  UNL1       -0.0790
     10 S          -3.4846  -17.8828   22.8163 S.O2    1  UNL1        0.0772
     11 O          -3.9523  -19.2717   23.1357 O.2     1  UNL1       -0.1498
     12 O          -3.0169  -16.4938   22.4969 O.2     1  UNL1       -0.1498
     13 N          -2.1761  -18.4346   22.3329 N.pl3   1  UNL1       -0.1936
     14 H          -1.5853  -18.9170   22.9553 H       1  UNL1        0.1758
     15 C          -1.7679  -18.2512   20.9012 C.ar    1  UNL1        0.1786
     16 N          -0.3768  -17.9828   20.4085 N.ar    1  UNL1       -0.2214
     17 C          -0.4283  -17.8697   18.9136 C.ar    1  UNL1        0.1079
     18 C          -1.8512  -18.0682   18.4825 C.ar    1  UNL1        0.0588
     19 S          -2.6792  -18.3040   19.7108 S.2     1  UNL1       -0.0497
     20 C         -10.0072  -16.2855   24.2838 C.3     1  UNL1        0.2110
     21 N          -9.1958  -17.9751   26.6262 N.3     1  UNL1       -0.3218
     22 C          -9.7453  -18.6220   25.3894 C.3     1  UNL1        0.0588
     23 C          -9.8891  -20.1136   25.3237 C.3     1  UNL1        0.0206
     24 C         -10.4385  -20.7604   24.0869 C.3     1  UNL1        0.0271
     25 C         -10.8442  -19.9156   22.9157 C.2     1  UNL1       -0.0302
     26 C         -10.7004  -18.4240   22.9814 C.2     1  UNL1       -0.0218
     27 C         -10.1510  -17.7772   24.2182 C.3     1  UNL1        0.0798
     28 H          -8.9743  -18.6933   27.3158 H       1  UNL1        0.1188
     29 H          -9.8902  -17.3355   27.0125 H       1  UNL1        0.1188
     30 C         -11.1061  -17.5791   21.8102 C.ar    1  UNL1       -0.0040
     31 C         -12.3479  -16.7411   21.8843 C.ar    1  UNL1        0.0020
     32 C         -12.7536  -15.8962   20.7131 C.ar    1  UNL1        0.0296
     33 C         -11.9175  -15.8895   19.4678 C.ar    1  UNL1        0.1401
     34 F         -12.3231  -15.0447   18.2966 F       1  UNL1       -0.2042
     35 C         -10.6756  -16.7276   19.3937 C.ar    1  UNL1        0.0296
     36 C         -10.2700  -17.5724   20.5649 C.ar    1  UNL1        0.0020
@<TRIPOS>BOND
     1    22    21    1
     2    22    23    1
     3    23    24    1
     4    24    25    1
     5    25    26    2
     6    26    30    1
     7    30    31   ar
     8    31    32   ar
     9    32    33   ar
    10    33    34    1
    11    33    35   ar
    12    35    36   ar
    13    26    27    1
    14    27    20    1
    15    20     1    1
    16     1     2    1
    17     2     3   ar
    18     3     4   ar
    19     4     5    1
    20     4     6   ar
    21     6    10    1
    22    10    11    2
    23    10    12    2
    24    10    13    1
    25    13    15    1
    26    15    16   ar
    27    16    17   ar
    28    17    18   ar
    29    18    19   ar
    30     6     7   ar
    31     7     8   ar
    32     8     9    1
    33    27    22    1
    34     8     2   ar
    35    36    30   ar
    36    19    15   ar
    37    21    28    1
    38    21    29    1
    39    13    14    1
@<TRIPOS>MOLECULE
*****
 36 39 0 0 0
SMALL
GASTEIGER

@<TRIPOS>ATOM
      1 O           5.3578    0.5572   19.2589 O.3     1  UNL1       -0.4741
      2 C           3.9639    1.0914   19.4062 C.ar    1  UNL1        0.1513
      3 C           3.6550    2.0961   20.4762 C.ar    1  UNL1        0.0688
      4 C           2.2610    2.6303   20.6235 C.ar    1  UNL1        0.1620
      5 F           1.9520    3.6350   21.6936 F       1  UNL1       -0.2026
      6 C           1.1761    2.1597   19.7007 C.ar    1  UNL1        0.1535
      7 C           1.4851    1.1550   18.6306 C.ar    1  UNL1        0.0369
      8 C           2.8790    0.6208   18.4834 C.ar    1  UNL1        0.0930
      9 CL          3.1879   -0.3839   17.4133 Cl      1  UNL1       -0.0790
     10 S          -0.2177    2.6939   19.8480 S.O2    1  UNL1        0.0772
     11 O          -0.6311    1.4260   20.5345 O.2     1  UNL1       -0.1498
     12 O           0.1957    3.9619   19.1615 O.2     1  UNL1       -0.1498
     13 N          -1.6117    3.2281   19.9953 N.pl3   1  UNL1       -0.1936
     14 H          -2.1598    3.4007   19.1959 H       1  UNL1        0.1758
     15 C          -2.1705    3.4993   21.3607 C.ar    1  UNL1        0.1786
     16 N          -3.5677    3.1998   21.8170 N.ar    1  UNL1       -0.2214
     17 C          -3.6910    3.6331   23.2477 C.ar    1  UNL1        0.1079
     18 C          -2.3700    4.2003   23.6757 C.ar    1  UNL1        0.0588
     19 S          -1.4302    4.1177   22.5095 S.2     1  UNL1       -0.0497
     20 C           5.8033   -0.6138   20.0838 C.3     1  UNL1        0.2110
     21 N           6.5500   -2.0127   17.5371 N.3     1  UNL1       -0.3218
     22 C           5.6376   -2.6828   18.5212 C.3     1  UNL1        0.0588
     23 C           5.0986   -4.0524   18.2320 C.3     1  UNL1        0.0206
     24 C           4.1862   -4.7225   19.2161 C.3     1  UNL1        0.0271
     25 C           3.8128   -4.0231   20.4894 C.2     1  UNL1       -0.0302
     26 C           4.3518   -2.6535   20.7786 C.2     1  UNL1       -0.0218
     27 C           5.2643   -1.9834   19.7945 C.3     1  UNL1        0.0798
     28 H           6.6955   -2.6267   16.7357 H       1  UNL1        0.1188
     29 H           7.4464   -1.8174   17.9829 H       1  UNL1        0.1188
     30 C           3.9785   -1.9540   22.0520 C.ar    1  UNL1       -0.0040
     31 C           2.8734   -0.9398   22.0543 C.ar    1  UNL1        0.0020
     32 C           2.5001   -0.2402   23.3276 C.ar    1  UNL1        0.0296
     33 C           3.2319   -0.5550   24.5986 C.ar    1  UNL1        0.1401
     34 F           2.8586    0.1444   25.8719 F       1  UNL1       -0.2042
     35 C           4.3370   -1.5693   24.5962 C.ar    1  UNL1        0.0296
     36 C           4.7103   -2.2688   23.3229 C.ar    1  UNL1        0.0020
@<TRIPOS>BOND
     1    22    21    1
     2    22    23    1
     3    23    24    1
     4    24    25    1
     5    25    26    2
     6    26    30    1
     7    30    31   ar
     8    31    32   ar
     9    32    33   ar
    10    33    34    1
    11    33    35   ar
    12    35    36   ar
    13    26    27    1
    14    27    20    1
    15    20     1    1
    16     1     2    1
    17     2     3   ar
    18     3     4   ar
    19     4     5    1
    20     4     6   ar
    21     6    10    1
    22    10    11    2
    23    10    12    2
    24    10    13    1
    25    13    15    1
    26    15    16   ar
    27    16    17   ar
    28    17    18   ar
    29    18    19   ar
    30     6     7   ar
    31     7     8   ar
    32     8     9    1
    33    27    22    1
    34     8     2   ar
    35    36    30   ar
    36    19    15   ar
    37    21    28    1
    38    21    29    1
    39    13    14    1
@<TRIPOS>MOLECULE
*****
 36 39 0 0 0
SMALL
GASTEIGER

@<TRIPOS>ATOM
      1 O           5.7524    0.2900   19.7211 O.3     1  UNL1       -0.4741
      2 C           4.3329    0.7532   19.8633 C.ar    1  UNL1        0.1513
      3 C           3.3179    0.3919   18.8196 C.ar    1  UNL1        0.0688
      4 C           1.8983    0.8552   18.9619 C.ar    1  UNL1        0.1620
      5 F           0.8834    0.4939   17.9181 F       1  UNL1       -0.2026
      6 C           1.4937    1.6796   20.1478 C.ar    1  UNL1        0.1535
      7 C           2.5086    2.0408   21.1916 C.ar    1  UNL1        0.0369
      8 C           3.9282    1.5776   21.0494 C.ar    1  UNL1        0.0930
      9 CL          4.9431    1.9389   22.0931 Cl      1  UNL1       -0.0790
     10 S           0.0741    2.1428   20.2901 S.O2    1  UNL1        0.0772
     11 O           0.4645    3.4968   19.7761 O.2     1  UNL1       -0.1498
     12 O          -0.3162    0.7887   20.8040 O.2     1  UNL1       -0.1498
     13 N          -1.3455    2.6060   20.4323 N.pl3   1  UNL1       -0.1936
     14 H          -1.9800    2.4837   19.6895 H       1  UNL1        0.1758
     15 C          -1.7984    3.2556   21.7062 C.ar    1  UNL1        0.1786
     16 N          -0.9637    3.4636   22.9350 N.ar    1  UNL1       -0.2214
     17 C          -1.8149    4.1478   23.9633 C.ar    1  UNL1        0.1079
     18 C          -3.1757    4.3627   23.3700 C.ar    1  UNL1        0.0588
     19 S          -3.1655    3.8113   21.9750 S.2     1  UNL1       -0.0497
     20 C           6.1884   -0.9974   20.3556 C.3     1  UNL1        0.2110
     21 N           6.5538   -2.1966   17.6300 N.3     1  UNL1       -0.3218
     22 C           5.6788   -2.8798   18.6389 C.3     1  UNL1        0.0588
     23 C           4.9865   -4.1625   18.2850 C.3     1  UNL1        0.0206
     24 C           4.1116   -4.8456   19.2938 C.3     1  UNL1        0.0271
     25 C           3.9289   -4.2461   20.6565 C.2     1  UNL1       -0.0302
     26 C           4.6212   -2.9634   21.0104 C.2     1  UNL1       -0.0218
     27 C           5.4961   -2.2802   20.0016 C.3     1  UNL1        0.0798
     28 H           6.5635   -2.7385   16.7660 H       1  UNL1        0.1188
     29 H           7.5029   -2.1242   17.9967 H       1  UNL1        0.1188
     30 C           4.4385   -2.3637   22.3732 C.ar    1  UNL1       -0.0040
     31 C           5.3671   -2.7408   23.4892 C.ar    1  UNL1        0.0020
     32 C           5.1845   -2.1412   24.8520 C.ar    1  UNL1        0.0296
     33 C           4.0731   -1.1645   25.0987 C.ar    1  UNL1        0.1401
     34 F           3.8905   -0.5648   26.4615 F       1  UNL1       -0.2042
     35 C           3.1445   -0.7874   23.9827 C.ar    1  UNL1        0.0296
     36 C           3.3272   -1.3870   22.6200 C.ar    1  UNL1        0.0020
@<TRIPOS>BOND
     1    22    21    1
     2    22    23    1
     3    23    24    1
     4    24    25    1
     5    25    26    2
     6    26    30    1
     7    30    31   ar
     8    31    32   ar
     9    32    33   ar
    10    33    34    1
    11    33    35   ar
    12    35    36   ar
    13    26    27    1
    14    27    20    1
    15    20     1    1
    16     1     2    1
    17     2     3   ar
    18     3     4   ar
    19     4     5    1
    20     4     6   ar
    21     6    10    1
    22    10    11    2
    23    10    12    2
    24    10    13    1
    25    13    15    1
    26    15    16   ar
    27    16    17   ar
    28    17    18   ar
    29    18    19   ar
    30     6     7   ar
    31     7     8   ar
    32     8     9    1
    33    27    22    1
    34     8     2   ar
    35    36    30   ar
    36    19    15   ar
    37    21    28    1
    38    21    29    1
    39    13    14    1
@<TRIPOS>MOLECULE
*****
 36 39 0 0 0
SMALL
GASTEIGER

@<TRIPOS>ATOM
      1 O           4.6573   -2.1517   23.6586 O.3     1  UNL1       -0.4741
      2 C           3.6701   -1.2527   22.9751 C.ar    1  UNL1        0.1513
      3 C           3.4402   -1.3767   21.4980 C.ar    1  UNL1        0.0688
      4 C           2.4529   -0.4777   20.8145 C.ar    1  UNL1        0.1620
      5 F           2.2231   -0.6017   19.3374 F       1  UNL1       -0.2026
      6 C           1.6956    0.5453   21.6081 C.ar    1  UNL1        0.1535
      7 C           1.9255    0.6694   23.0852 C.ar    1  UNL1        0.0369
      8 C           2.9127   -0.2296   23.7687 C.ar    1  UNL1        0.0930
      9 CL          3.1425   -0.1056   25.2458 Cl      1  UNL1       -0.0790
     10 S           0.7084    1.4443   20.9246 S.O2    1  UNL1        0.0772
     11 O           1.6927    2.5744   20.9893 O.2     1  UNL1       -0.1498
     12 O          -0.2758    0.3143   20.8599 O.2     1  UNL1       -0.1498
     13 N          -0.2788    2.3434   20.2411 N.pl3   1  UNL1       -0.1936
     14 H          -0.1589    2.5745   19.2916 H       1  UNL1        0.1758
     15 C          -1.4487    2.8903   21.0042 C.ar    1  UNL1        0.1786
     16 N          -2.8807    2.8673   20.5584 N.ar    1  UNL1       -0.2214
     17 C          -3.7090    3.5190   21.6258 C.ar    1  UNL1        0.1079
     18 C          -2.7889    3.9448   22.7313 C.ar    1  UNL1        0.0588
     19 S          -1.3919    3.5562   22.3472 S.2     1  UNL1       -0.0497
     20 C           4.9532   -3.5087   23.0922 C.3     1  UNL1        0.2110
     21 N           6.4009   -4.6637   25.4523 N.3     1  UNL1       -0.3218
     22 C           7.0978   -4.5457   24.1293 C.3     1  UNL1        0.0588
     23 C           8.5185   -5.0051   23.9863 C.3     1  UNL1        0.0206
     24 C           9.2154   -4.8871   22.6633 C.3     1  UNL1        0.0271
     25 C           8.4916   -4.3097   21.4832 C.2     1  UNL1       -0.0302
     26 C           7.0709   -3.8502   21.6262 C.2     1  UNL1       -0.0218
     27 C           6.3740   -3.9682   22.9492 C.3     1  UNL1        0.0798
     28 H           7.0368   -5.0742   26.1361 H       1  UNL1        0.1188
     29 H           5.5791   -5.2593   25.3518 H       1  UNL1        0.1188
     30 C           6.3470   -3.2728   20.4461 C.ar    1  UNL1       -0.0040
     31 C           5.3405   -4.1016   19.7046 C.ar    1  UNL1        0.0020
     32 C           4.6166   -3.5241   18.5245 C.ar    1  UNL1        0.0296
     33 C           4.8993   -2.1178   18.0859 C.ar    1  UNL1        0.1401
     34 F           4.1754   -1.5403   16.9059 F       1  UNL1       -0.2042
     35 C           5.9059   -1.2889   18.8275 C.ar    1  UNL1        0.0296
     36 C           6.6297   -1.8664   20.0076 C.ar    1  UNL1        0.0020
@<TRIPOS>BOND
     1    22    21    1
     2    22    23    1
     3    23    24    1
     4    24    25    1
     5    25    26    2
     6    26    30    1
     7    30    31   ar
     8    31    32   ar
     9    32    33   ar
    10    33    34    1
    11    33    35   ar
    12    35    36   ar
    13    26    27    1
    14    27    20    1
    15    20     1    1
    16     1     2    1
    17     2     3   ar
    18     3     4   ar
    19     4     5    1
    20     4     6   ar
    21     6    10    1
    22    10    11    2
    23    10    12    2
    24    10    13    1
    25    13    15    1
    26    15    16   ar
    27    16    17   ar
    28    17    18   ar
    29    18    19   ar
    30     6     7   ar
    31     7     8   ar
    32     8     9    1
    33    27    22    1
    34     8     2   ar
    35    36    30   ar
    36    19    15   ar
    37    21    28    1
    38    21    29    1
    39    13    14    1
@<TRIPOS>MOLECULE
*****
 36 39 0 0 0
SMALL
GASTEIGER

@<TRIPOS>ATOM
      1 O         -10.6194  -19.5622   22.1299 O.3     1  UNL1       -0.4741
      2 C          -9.1391  -19.7019   21.9325 C.ar    1  UNL1        0.1513
      3 C          -8.4683  -19.0165   20.7791 C.ar    1  UNL1        0.0688
      4 C          -6.9878  -19.1562   20.5817 C.ar    1  UNL1        0.1620
      5 F          -6.3170  -18.4708   19.4284 F       1  UNL1       -0.2026
      6 C          -6.1783  -19.9813   21.5377 C.ar    1  UNL1        0.1535
      7 C          -6.8491  -20.6667   22.6910 C.ar    1  UNL1        0.0369
      8 C          -8.3295  -20.5270   22.8885 C.ar    1  UNL1        0.0930
      9 CL         -9.0003  -21.2123   24.0418 Cl      1  UNL1       -0.0790
     10 S          -4.6980  -20.1210   21.3402 S.O2    1  UNL1        0.0772
     11 O          -4.4568  -19.1749   22.4790 O.2     1  UNL1       -0.1498
     12 O          -4.9391  -21.0670   20.2015 O.2     1  UNL1       -0.1498
     13 N          -3.2175  -20.2606   21.1428 N.pl3   1  UNL1       -0.1936
     14 H          -2.7579  -21.0824   21.4305 H       1  UNL1        0.1758
     15 C          -2.4375  -19.1483   20.5071 C.ar    1  UNL1        0.1786
     16 N          -1.1564  -18.5628   21.0230 N.ar    1  UNL1       -0.2214
     17 C          -0.7287  -17.4788   20.0786 C.ar    1  UNL1        0.1079
     18 C          -1.7454  -17.3943   18.9789 C.ar    1  UNL1        0.0588
     19 S          -2.8015  -18.4261   19.2437 S.2     1  UNL1       -0.0497
     20 C         -11.1537  -18.9590   23.3951 C.3     1  UNL1        0.2110
     21 N         -10.0448  -19.6937   26.0841 N.3     1  UNL1       -0.3218
     22 C          -9.7727  -18.3366   25.5059 C.3     1  UNL1        0.0588
     23 C          -8.9462  -17.3469   26.2723 C.3     1  UNL1        0.0206
     24 C          -8.6741  -15.9898   25.6941 C.3     1  UNL1        0.0271
     25 C          -9.2286  -15.6224   24.3497 C.2     1  UNL1       -0.0302
     26 C         -10.0551  -16.6121   23.5834 C.2     1  UNL1       -0.0218
     27 C         -10.3272  -17.9692   24.1615 C.3     1  UNL1        0.0798
     28 H          -9.5953  -19.7709   26.9965 H       1  UNL1        0.1188
     29 H          -9.6730  -20.4098   25.4602 H       1  UNL1        0.1188
     30 C         -10.6096  -16.2448   22.2388 C.ar    1  UNL1       -0.0040
     31 C          -9.7213  -15.6129   21.2084 C.ar    1  UNL1        0.0020
     32 C         -10.2758  -15.2456   19.8639 C.ar    1  UNL1        0.0296
     33 C         -11.7185  -15.5101   19.5498 C.ar    1  UNL1        0.1401
     34 F         -12.2730  -15.1428   18.2054 F       1  UNL1       -0.2042
     35 C         -12.6068  -16.1420   20.5804 C.ar    1  UNL1        0.0296
     36 C         -12.0523  -16.5093   21.9248 C.ar    1  UNL1        0.0020
@<TRIPOS>BOND
     1    22    21    1
     2    22    23    1
     3    23    24    1
     4    24    25    1
     5    25    26    2
     6    26    30    1
     7    30    31   ar
     8    31    32   ar
     9    32    33   ar
    10    33    34    1
    11    33    35   ar
    12    35    36   ar
    13    26    27    1
    14    27    20    1
    15    20     1    1
    16     1     2    1
    17     2     3   ar
    18     3     4   ar
    19     4     5    1
    20     4     6   ar
    21     6    10    1
    22    10    11    2
    23    10    12    2
    24    10    13    1
    25    13    15    1
    26    15    16   ar
    27    16    17   ar
    28    17    18   ar
    29    18    19   ar
    30     6     7   ar
    31     7     8   ar
    32     8     9    1
    33    27    22    1
    34     8     2   ar
    35    36    30   ar
    36    19    15   ar
    37    21    28    1
    38    21    29    1
    39    13    14    1
@<TRIPOS>MOLECULE
*****
 36 39 0 0 0
SMALL
GASTEIGER

@<TRIPOS>ATOM
      1 O           2.9563   -0.7616   23.0320 O.3     1  UNL1       -0.4741
      2 C           3.1180   -0.5754   24.5116 C.ar    1  UNL1        0.1513
      3 C           3.9993   -1.5045   25.2926 C.ar    1  UNL1        0.0688
      4 C           4.1610   -1.3182   26.7722 C.ar    1  UNL1        0.1620
      5 F           5.0423   -2.2473   27.5532 F       1  UNL1       -0.2026
      6 C           3.4414   -0.2027   27.4707 C.ar    1  UNL1        0.1535
      7 C           2.5601    0.7264   26.6897 C.ar    1  UNL1        0.0369
      8 C           2.3984    0.5401   25.2102 C.ar    1  UNL1        0.0930
      9 CL          1.5171    1.4693   24.4291 Cl      1  UNL1       -0.0790
     10 S           3.6032   -0.0164   28.9503 S.O2    1  UNL1        0.0772
     11 O           4.7696    0.8950   28.7080 O.2     1  UNL1       -0.1498
     12 O           2.4368   -0.9279   29.1925 O.2     1  UNL1       -0.1498
     13 N           3.7649    0.1699   30.4299 N.pl3   1  UNL1       -0.1936
     14 H           3.5003    1.0196   30.8509 H       1  UNL1        0.1758
     15 C           4.3298   -0.9384   31.2680 C.ar    1  UNL1        0.1786
     16 N           3.7356   -1.4755   32.5363 N.ar    1  UNL1       -0.2214
     17 C           4.6267   -2.5733   33.0372 C.ar    1  UNL1        0.1079
     18 C           5.7716   -2.7148   32.0785 C.ar    1  UNL1        0.0588
     19 S           5.5882   -1.7044   30.9850 S.2     1  UNL1       -0.0497
     20 C           4.1558   -1.0406   22.1757 C.3     1  UNL1        0.2110
     21 N           5.7351   -3.5116   22.8082 N.3     1  UNL1       -0.3218
     22 C           4.9350   -3.4366   21.5416 C.3     1  UNL1        0.0588
     23 C           4.9245   -4.5971   20.5913 C.3     1  UNL1        0.0206
     24 C           4.1243   -4.5222   19.3248 C.3     1  UNL1        0.0271
     25 C           3.3347   -3.2867   19.0085 C.2     1  UNL1       -0.0302
     26 C           3.3452   -2.1262   19.9588 C.2     1  UNL1       -0.0218
     27 C           4.1453   -2.2012   21.2254 C.3     1  UNL1        0.0798
     28 H           6.2049   -4.4155   22.8605 H       1  UNL1        0.1188
     29 H           5.1136   -3.4045   23.6098 H       1  UNL1        0.1188
     30 C           2.5555   -0.8907   19.6426 C.ar    1  UNL1       -0.0040
     31 C           1.1756   -0.7182   20.2047 C.ar    1  UNL1        0.0020
     32 C           0.3859    0.5173   19.8885 C.ar    1  UNL1        0.0296
     33 C           0.9762    1.5803   19.0101 C.ar    1  UNL1        0.1401
     34 F           0.1866    2.8158   18.6939 F       1  UNL1       -0.2042
     35 C           2.3562    1.4078   18.4479 C.ar    1  UNL1        0.0296
     36 C           3.1458    0.1723   18.7642 C.ar    1  UNL1        0.0020
@<TRIPOS>BOND
     1    22    21    1
     2    22    23    1
     3    23    24    1
     4    24    25    1
     5    25    26    2
     6    26    30    1
     7    30    31   ar
     8    31    32   ar
     9    32    33   ar
    10    33    34    1
    11    33    35   ar
    12    35    36   ar
    13    26    27    1
    14    27    20    1
    15    20     1    1
    16     1     2    1
    17     2     3   ar
    18     3     4   ar
    19     4     5    1
    20     4     6   ar
    21     6    10    1
    22    10    11    2
    23    10    12    2
    24    10    13    1
    25    13    15    1
    26    15    16   ar
    27    16    17   ar
    28    17    18   ar
    29    18    19   ar
    30     6     7   ar
    31     7     8   ar
    32     8     9    1
    33    27    22    1
    34     8     2   ar
    35    36    30   ar
    36    19    15   ar
    37    21    28    1
    38    21    29    1
    39    13    14    1
@<TRIPOS>MOLECULE
*****
 36 39 0 0 0
SMALL
GASTEIGER

@<TRIPOS>ATOM
      1 O          -8.7539  -18.5780   23.4375 O.3     1  UNL1       -0.4741
      2 C          -7.4386  -18.7905   22.7487 C.ar    1  UNL1        0.1513
      3 C          -7.2102  -20.0289   21.9338 C.ar    1  UNL1        0.0688
      4 C          -5.8947  -20.2414   21.2449 C.ar    1  UNL1        0.1620
      5 F          -5.6663  -21.4798   20.4299 F       1  UNL1       -0.2026
      6 C          -4.8077  -19.2155   21.3710 C.ar    1  UNL1        0.1535
      7 C          -5.0361  -17.9771   22.1859 C.ar    1  UNL1        0.0369
      8 C          -6.3515  -17.7646   22.8748 C.ar    1  UNL1        0.0930
      9 CL         -6.5799  -16.5262   23.6897 Cl      1  UNL1       -0.0790
     10 S          -3.4923  -19.4280   20.6821 S.O2    1  UNL1        0.0772
     11 O          -2.9068  -19.9492   21.9610 O.2     1  UNL1       -0.1498
     12 O          -4.0778  -18.9068   19.4033 O.2     1  UNL1       -0.1498
     13 N          -2.1769  -19.6406   19.9933 N.pl3   1  UNL1       -0.1936
     14 H          -2.0036  -20.4816   19.5117 H       1  UNL1        0.1758
     15 C          -1.1254  -18.5717   20.0382 C.ar    1  UNL1        0.1786
     16 N           0.3435  -18.7697   19.8082 N.ar    1  UNL1       -0.2214
     17 C           1.0185  -17.4375   19.9489 C.ar    1  UNL1        0.1079
     18 C          -0.0333  -16.4162   20.2658 C.ar    1  UNL1        0.0588
     19 S          -1.3584  -17.1171   20.3210 S.2     1  UNL1       -0.0497
     20 C         -10.0360  -18.7988   22.6908 C.3     1  UNL1        0.2110
     21 N         -10.9037  -20.3117   25.1317 N.3     1  UNL1       -0.3218
     22 C         -11.7823  -19.2367   24.5639 C.3     1  UNL1        0.0588
     23 C         -13.0948  -18.9182   25.2164 C.3     1  UNL1        0.0206
     24 C         -13.9734  -17.8433   24.6486 C.3     1  UNL1        0.0271
     25 C         -13.5396  -17.0868   23.4281 C.2     1  UNL1       -0.0302
     26 C         -12.2271  -17.4053   22.7756 C.2     1  UNL1       -0.0218
     27 C         -11.3485  -18.4803   23.3434 C.3     1  UNL1        0.0798
     28 H         -11.3509  -20.7174   25.9537 H       1  UNL1        0.1188
     29 H         -10.0042  -19.9107   25.3972 H       1  UNL1        0.1188
     30 C         -11.7932  -16.6489   21.5551 C.ar    1  UNL1       -0.0040
     31 C         -10.4940  -15.8992   21.5598 C.ar    1  UNL1        0.0020
     32 C         -10.0601  -15.1428   20.3393 C.ar    1  UNL1        0.0296
     33 C         -10.9255  -15.1360   19.1141 C.ar    1  UNL1        0.1401
     34 F         -10.4917  -14.3796   17.8936 F       1  UNL1       -0.2042
     35 C         -12.2248  -15.8856   19.1094 C.ar    1  UNL1        0.0296
     36 C         -12.6586  -16.6420   20.3299 C.ar    1  UNL1        0.0020
@<TRIPOS>BOND
     1    22    21    1
     2    22    23    1
     3    23    24    1
     4    24    25    1
     5    25    26    2
     6    26    30    1
     7    30    31   ar
     8    31    32   ar
     9    32    33   ar
    10    33    34    1
    11    33    35   ar
    12    35    36   ar
    13    26    27    1
    14    27    20    1
    15    20     1    1
    16     1     2    1
    17     2     3   ar
    18     3     4   ar
    19     4     5    1
    20     4     6   ar
    21     6    10    1
    22    10    11    2
    23    10    12    2
    24    10    13    1
    25    13    15    1
    26    15    16   ar
    27    16    17   ar
    28    17    18   ar
    29    18    19   ar
    30     6     7   ar
    31     7     8   ar
    32     8     9    1
    33    27    22    1
    34     8     2   ar
    35    36    30   ar
    36    19    15   ar
    37    21    28    1
    38    21    29    1
    39    13    14    1
