@<TRIPOS>MOLECULE
*****
 37 39 0 0 0
SMALL
GASTEIGER

@<TRIPOS>ATOM
      1 C          -7.2496  -18.3676   22.3444 C.3     1  UNL1        0.1621
      2 C          -6.1360  -17.4605   22.7764 C.ar    1  UNL1        0.1812
      3 N          -4.6722  -17.7873   22.7507 N.ar    1  UNL1       -0.1109
      4 N          -3.9220  -16.5960   23.2684 N.ar    1  UNL1       -0.0229
      5 N          -4.9222  -15.5329   23.6141 N.ar    1  UNL1       -0.0430
      6 N          -6.2905  -16.0672   23.3101 N.ar    1  UNL1       -0.2125
      7 C          -7.5858  -15.3364   23.5054 C.3     1  UNL1        0.1668
      8 C          -8.1687  -15.1979   24.8806 C.3     1  UNL1        0.1336
      9 C          -7.3666  -15.6076   26.0800 C.1     1  UNL1        0.0753
     10 N          -6.5645  -16.0174   27.2795 N.1     1  UNL1       -0.1958
     11 C          -8.2982  -14.7442   22.3257 C.3     1  UNL1        0.2324
     12 O          -8.8166  -15.6364   21.2371 O.3     1  UNL1       -0.4581
     13 C         -10.1438  -16.3176   21.3941 C.ar    1  UNL1        0.2249
     14 C         -11.1091  -15.8471   22.4414 C.ar    1  UNL1        0.0577
     15 C         -12.4363  -16.5283   22.5983 C.ar    1  UNL1        0.0064
     16 C         -12.7981  -17.6799   21.7080 C.ar    1  UNL1        0.0209
     17 C         -11.8328  -18.1504   20.6607 C.ar    1  UNL1        0.1021
     18 N         -10.5056  -17.4692   20.5037 N.ar    1  UNL1       -0.2101
     19 C          -9.1807  -19.5086   23.6555 C.2     1  UNL1        0.2351
     20 O          -8.4370  -20.8108   23.6177 O.2     1  UNL1       -0.2737
     21 N          -8.5870  -18.2871   23.0189 N.am    1  UNL1       -0.2965
     22 H          -9.0751  -17.4325   23.0437 H       1  UNL1        0.1499
     23 C         -11.0625  -20.4458   23.3719 C.3     1  UNL1        0.0249
     24 C         -10.5181  -19.4281   24.3300 C.3     1  UNL1        0.1086
     25 C          -9.9737  -18.4104   25.2880 C.3     1  UNL1        0.0249
     26 N         -11.8555  -19.3476   25.0045 N.3     1  UNL1       -0.3164
     27 H         -11.8147  -19.8346   25.8997 H       1  UNL1        0.1192
     28 H         -12.5619  -19.7839   24.4120 H       1  UNL1        0.1192
     29 C          -7.0259  -19.3554   21.2380 C.3     1  UNL1        0.1699
     30 O          -6.0059  -20.4434   21.3987 O.3     1  UNL1       -0.3468
     31 C          -4.9796  -20.6733   20.3292 C.3     1  UNL1        0.1687
     32 C          -3.8183  -19.7341   20.1898 C.ar    1  UNL1        0.0073
     33 C          -3.8745  -18.6147   19.1929 C.ar    1  UNL1       -0.0019
     34 C          -2.7132  -17.6756   19.0535 C.ar    1  UNL1       -0.0002
     35 C          -1.4957  -17.8559   19.9111 C.ar    1  UNL1       -0.0000
     36 C          -1.4396  -18.9753   20.9079 C.ar    1  UNL1       -0.0002
     37 C          -2.6009  -19.9144   21.0473 C.ar    1  UNL1       -0.0019
@<TRIPOS>BOND
     1    23    24    1
     2    24    25    1
     3    24    26    1
     4    24    19    1
     5    19    20    2
     6    19    21   am
     7    21     1    1
     8     1    29    1
     9    29    30    1
    10    30    31    1
    11    31    32    1
    12    32    33   ar
    13    33    34   ar
    14    34    35   ar
    15    35    36   ar
    16    36    37   ar
    17     1     2    1
    18     2     3   ar
    19     3     4   ar
    20     4     5   ar
    21     5     6   ar
    22     6     7    1
    23     7     8    1
    24     8     9    1
    25     9    10    3
    26     7    11    1
    27    11    12    1
    28    12    13    1
    29    13    14   ar
    30    14    15   ar
    31    15    16   ar
    32    16    17   ar
    33    17    18   ar
    34    37    32   ar
    35     6     2   ar
    36    18    13   ar
    37    26    27    1
    38    26    28    1
    39    21    22    1
@<TRIPOS>MOLECULE
*****
 37 39 0 0 0
SMALL
GASTEIGER

@<TRIPOS>ATOM
      1 C          -9.8705  -17.5909   21.7366 C.3     1  UNL1        0.1621
      2 C          -9.7653  -18.5603   20.5968 C.ar    1  UNL1        0.1812
      3 N         -10.8767  -18.9560   19.6705 N.ar    1  UNL1       -0.1109
      4 N         -10.3285  -19.9444   18.6843 N.ar    1  UNL1       -0.0229
      5 N          -8.8781  -20.1595   19.0011 N.ar    1  UNL1       -0.0430
      6 N          -8.5301  -19.3040   20.1831 N.ar    1  UNL1       -0.2125
      7 C          -7.1833  -19.2090   20.8366 C.3     1  UNL1        0.1668
      8 C          -7.0564  -19.3805   22.3214 C.3     1  UNL1        0.1336
      9 C          -8.1086  -20.1314   23.0823 C.1     1  UNL1        0.0753
     10 N          -9.1608  -20.8825   23.8431 N.1     1  UNL1       -0.1958
     11 C          -5.9634  -18.9425   20.0055 C.3     1  UNL1        0.2324
     12 O          -4.6320  -19.4864   20.4316 O.3     1  UNL1       -0.4581
     13 C          -3.4202  -18.6024   20.4138 C.ar    1  UNL1        0.2249
     14 C          -2.4178  -18.7261   19.3048 C.ar    1  UNL1        0.0577
     15 C          -1.2061  -17.8421   19.2871 C.ar    1  UNL1        0.0064
     16 C          -0.9968  -16.8345   20.3783 C.ar    1  UNL1        0.0209
     17 C          -1.9992  -16.7108   21.4873 C.ar    1  UNL1        0.1021
     18 N          -3.2110  -17.5948   21.5051 N.ar    1  UNL1       -0.2101
     19 C         -12.0583  -17.9795   23.0829 C.2     1  UNL1        0.2351
     20 O         -12.8663  -17.5561   21.8921 O.2     1  UNL1       -0.2737
     21 N         -10.5605  -17.9969   23.0051 N.am    1  UNL1       -0.2965
     22 H         -10.0302  -18.2748   23.7867 H       1  UNL1        0.1499
     23 C         -14.0557  -17.9066   23.7935 C.3     1  UNL1        0.0249
     24 C         -12.7483  -18.3854   24.3514 C.3     1  UNL1        0.1086
     25 C         -11.4408  -18.8643   24.9093 C.3     1  UNL1        0.0249
     26 N         -13.4382  -18.7914   25.6199 N.3     1  UNL1       -0.3164
     27 H         -13.5283  -19.8071   25.6480 H       1  UNL1        0.1192
     28 H         -14.3651  -18.3669   25.6537 H       1  UNL1        0.1192
     29 C          -9.2858  -16.2156   21.6079 C.3     1  UNL1        0.1699
     30 O          -7.8385  -15.9831   21.9264 O.3     1  UNL1       -0.3468
     31 C          -7.4470  -14.9042   22.8921 C.3     1  UNL1        0.1687
     32 C          -7.2944  -15.2220   24.3501 C.ar    1  UNL1        0.0073
     33 C          -5.9302  -15.2483   24.9732 C.ar    1  UNL1       -0.0019
     34 C          -5.7777  -15.5661   26.4312 C.ar    1  UNL1       -0.0002
     35 C          -6.9894  -15.8574   27.2661 C.ar    1  UNL1       -0.0000
     36 C          -8.3535  -15.8310   26.6430 C.ar    1  UNL1       -0.0002
     37 C          -8.5060  -15.5133   25.1850 C.ar    1  UNL1       -0.0019
@<TRIPOS>BOND
     1    23    24    1
     2    24    25    1
     3    24    26    1
     4    24    19    1
     5    19    20    2
     6    19    21   am
     7    21     1    1
     8     1    29    1
     9    29    30    1
    10    30    31    1
    11    31    32    1
    12    32    33   ar
    13    33    34   ar
    14    34    35   ar
    15    35    36   ar
    16    36    37   ar
    17     1     2    1
    18     2     3   ar
    19     3     4   ar
    20     4     5   ar
    21     5     6   ar
    22     6     7    1
    23     7     8    1
    24     8     9    1
    25     9    10    3
    26     7    11    1
    27    11    12    1
    28    12    13    1
    29    13    14   ar
    30    14    15   ar
    31    15    16   ar
    32    16    17   ar
    33    17    18   ar
    34    37    32   ar
    35     6     2   ar
    36    18    13   ar
    37    26    27    1
    38    26    28    1
    39    21    22    1
@<TRIPOS>MOLECULE
*****
 37 39 0 0 0
SMALL
GASTEIGER

@<TRIPOS>ATOM
      1 C          -9.2196  -18.7453   21.4861 C.3     1  UNL1        0.1621
      2 C          -9.4224  -19.4329   22.8037 C.ar    1  UNL1        0.1812
      3 N          -8.7261  -20.6791   23.2643 N.ar    1  UNL1       -0.1109
      4 N          -9.2304  -21.0114   24.6373 N.ar    1  UNL1       -0.0229
      5 N         -10.2385  -19.9705   25.0252 N.ar    1  UNL1       -0.0430
      6 N         -10.3571  -18.9949   23.8920 N.ar    1  UNL1       -0.2125
      7 C         -11.2531  -17.7926   23.8538 C.3     1  UNL1        0.1668
      8 C         -12.7314  -17.9646   23.6664 C.3     1  UNL1        0.1336
      9 C         -13.5965  -18.3406   24.8326 C.1     1  UNL1        0.0753
     10 N         -14.4617  -18.7166   25.9989 N.1     1  UNL1       -0.1958
     11 C         -10.6710  -16.4182   24.0032 C.3     1  UNL1        0.2324
     12 O          -9.2082  -16.1927   23.7594 O.3     1  UNL1       -0.4581
     13 C          -8.2809  -15.9676   24.9167 C.ar    1  UNL1        0.2249
     14 C          -8.7417  -16.2578   26.3144 C.ar    1  UNL1        0.0577
     15 C          -7.8144  -16.0327   27.4718 C.ar    1  UNL1        0.0064
     16 C          -6.4264  -15.5175   27.2314 C.ar    1  UNL1        0.0209
     17 C          -5.9656  -15.2274   25.8337 C.ar    1  UNL1        0.1021
     18 N          -6.8929  -15.4524   24.6764 N.ar    1  UNL1       -0.2101
     19 C         -10.4518  -16.6668   20.5313 C.2     1  UNL1        0.2351
     20 O          -9.3420  -15.7842   21.0206 O.2     1  UNL1       -0.2737
     21 N         -10.3906  -18.1474   20.7640 N.am    1  UNL1       -0.2965
     22 H         -11.1189  -18.7267   20.4429 H       1  UNL1        0.1499
     23 C         -12.5493  -16.9829   20.5550 C.3     1  UNL1        0.0249
     24 C         -11.6227  -16.0689   19.8093 C.3     1  UNL1        0.1086
     25 C         -10.6962  -15.1549   19.0635 C.3     1  UNL1        0.0249
     26 N         -12.7937  -15.4710   19.0872 N.3     1  UNL1       -0.3164
     27 H         -12.9890  -14.5440   19.4653 H       1  UNL1        0.1192
     28 H         -13.6111  -16.0682   19.2119 H       1  UNL1        0.1192
     29 C          -7.8459  -18.6557   20.8905 C.3     1  UNL1        0.1699
     30 O          -7.2587  -19.8380   20.1780 O.3     1  UNL1       -0.3468
     31 C          -6.0358  -20.5123   20.7256 C.3     1  UNL1        0.1687
     32 C          -4.7626  -19.7367   20.8918 C.ar    1  UNL1        0.0073
     33 C          -4.3394  -19.2727   22.2540 C.ar    1  UNL1       -0.0019
     34 C          -3.0663  -18.4972   22.4202 C.ar    1  UNL1       -0.0002
     35 C          -2.2163  -18.1858   21.2241 C.ar    1  UNL1       -0.0000
     36 C          -2.6395  -18.6497   19.8619 C.ar    1  UNL1       -0.0002
     37 C          -3.9126  -19.4252   19.6958 C.ar    1  UNL1       -0.0019
@<TRIPOS>BOND
     1    23    24    1
     2    24    25    1
     3    24    26    1
     4    24    19    1
     5    19    20    2
     6    19    21   am
     7    21     1    1
     8     1    29    1
     9    29    30    1
    10    30    31    1
    11    31    32    1
    12    32    33   ar
    13    33    34   ar
    14    34    35   ar
    15    35    36   ar
    16    36    37   ar
    17     1     2    1
    18     2     3   ar
    19     3     4   ar
    20     4     5   ar
    21     5     6   ar
    22     6     7    1
    23     7     8    1
    24     8     9    1
    25     9    10    3
    26     7    11    1
    27    11    12    1
    28    12    13    1
    29    13    14   ar
    30    14    15   ar
    31    15    16   ar
    32    16    17   ar
    33    17    18   ar
    34    37    32   ar
    35     6     2   ar
    36    18    13   ar
    37    26    27    1
    38    26    28    1
    39    21    22    1
@<TRIPOS>MOLECULE
*****
 37 39 0 0 0
SMALL
GASTEIGER

@<TRIPOS>ATOM
      1 C          -7.0777  -19.3169   21.8179 C.3     1  UNL1        0.1621
      2 C          -8.1229  -19.5524   22.8676 C.ar    1  UNL1        0.1812
      3 N          -8.4412  -20.8672   23.5158 N.ar    1  UNL1       -0.1109
      4 N          -9.5484  -20.6418   24.5023 N.ar    1  UNL1       -0.0229
      5 N          -9.9145  -19.1876   24.4638 N.ar    1  UNL1       -0.0430
      6 N          -9.0335  -18.5143   23.4536 N.ar    1  UNL1       -0.2125
      7 C          -9.0587  -17.0586   23.0927 C.3     1  UNL1        0.1668
      8 C          -8.1261  -16.5298   22.0436 C.3     1  UNL1        0.1336
      9 C          -8.5025  -15.3141   21.2496 C.1     1  UNL1        0.0753
     10 N          -8.8787  -14.0983   20.4555 N.1     1  UNL1       -0.1958
     11 C         -10.0164  -16.1317   23.7809 C.3     1  UNL1        0.2324
     12 O          -9.5072  -15.1284   24.7730 O.3     1  UNL1       -0.4581
     13 C          -8.1564  -15.3115   25.3988 C.ar    1  UNL1        0.2249
     14 C          -8.0382  -15.9278   26.7612 C.ar    1  UNL1        0.0577
     15 C          -6.6874  -16.1108   27.3871 C.ar    1  UNL1        0.0064
     16 C          -5.4547  -15.6775   26.6504 C.ar    1  UNL1        0.0209
     17 C          -5.5728  -15.0612   25.2880 C.ar    1  UNL1        0.1021
     18 N          -6.9237  -14.8781   24.6622 N.ar    1  UNL1       -0.2101
     19 C          -4.4813  -19.2799   21.7320 C.2     1  UNL1        0.2351
     20 O          -4.4908  -20.5318   20.9056 O.2     1  UNL1       -0.2737
     21 N          -5.7748  -18.6725   22.1881 N.am    1  UNL1       -0.2965
     22 H          -5.7685  -17.8509   22.7305 H       1  UNL1        0.1499
     23 C          -2.4532  -19.5744   21.1843 C.3     1  UNL1        0.0249
     24 C          -3.1784  -18.6355   22.1022 C.3     1  UNL1        0.1086
     25 C          -3.9036  -17.6966   23.0201 C.3     1  UNL1        0.0249
     26 N          -1.8754  -17.9911   22.4724 N.3     1  UNL1       -0.3164
     27 H          -1.8045  -17.0813   22.0166 H       1  UNL1        0.1192
     28 H          -1.1039  -18.5849   22.1682 H       1  UNL1        0.1192
     29 C          -7.3354  -19.7259   20.3980 C.3     1  UNL1        0.1699
     30 O          -8.3099  -18.9526   19.5598 O.3     1  UNL1       -0.3468
     31 C          -9.7537  -19.3573   19.5227 C.3     1  UNL1        0.1687
     32 C         -10.7922  -18.4917   20.1727 C.ar    1  UNL1        0.0073
     33 C         -11.5937  -19.0192   21.3256 C.ar    1  UNL1       -0.0019
     34 C         -12.6321  -18.1536   21.9754 C.ar    1  UNL1       -0.0002
     35 C         -12.8691  -16.7605   21.4723 C.ar    1  UNL1       -0.0000
     36 C         -12.0675  -16.2330   20.3194 C.ar    1  UNL1       -0.0002
     37 C         -11.0291  -17.0986   19.6696 C.ar    1  UNL1       -0.0019
@<TRIPOS>BOND
     1    23    24    1
     2    24    25    1
     3    24    26    1
     4    24    19    1
     5    19    20    2
     6    19    21   am
     7    21     1    1
     8     1    29    1
     9    29    30    1
    10    30    31    1
    11    31    32    1
    12    32    33   ar
    13    33    34   ar
    14    34    35   ar
    15    35    36   ar
    16    36    37   ar
    17     1     2    1
    18     2     3   ar
    19     3     4   ar
    20     4     5   ar
    21     5     6   ar
    22     6     7    1
    23     7     8    1
    24     8     9    1
    25     9    10    3
    26     7    11    1
    27    11    12    1
    28    12    13    1
    29    13    14   ar
    30    14    15   ar
    31    15    16   ar
    32    16    17   ar
    33    17    18   ar
    34    37    32   ar
    35     6     2   ar
    36    18    13   ar
    37    26    27    1
    38    26    28    1
    39    21    22    1
@<TRIPOS>MOLECULE
*****
 37 39 0 0 0
SMALL
GASTEIGER

@<TRIPOS>ATOM
      1 C          -4.4097  -18.5242   21.8295 C.3     1  UNL1        0.1621
      2 C          -5.0570  -19.6672   21.1055 C.ar    1  UNL1        0.1812
      3 N          -4.3655  -20.6412   20.1982 N.ar    1  UNL1       -0.1109
      4 N          -5.3906  -21.6129   19.6935 N.ar    1  UNL1       -0.0229
      5 N          -6.7158  -21.2396   20.2890 N.ar    1  UNL1       -0.0430
      6 N          -6.5096  -20.0371   21.1617 N.ar    1  UNL1       -0.2125
      7 C          -7.5699  -19.3288   21.9517 C.3     1  UNL1        0.1668
      8 C          -8.3011  -20.0527   23.0432 C.3     1  UNL1        0.1336
      9 C          -9.3229  -19.3291   23.8692 C.1     1  UNL1        0.0753
     10 N         -10.3448  -18.6054   24.6951 N.1     1  UNL1       -0.1958
     11 C          -7.8990  -17.8967   21.6503 C.3     1  UNL1        0.2324
     12 O          -9.0447  -17.5659   20.7405 O.3     1  UNL1       -0.4581
     13 C         -10.4143  -17.3424   21.3100 C.ar    1  UNL1        0.2249
     14 C         -11.4883  -18.3694   21.1056 C.ar    1  UNL1        0.0577
     15 C         -12.8579  -18.1460   21.6751 C.ar    1  UNL1        0.0064
     16 C         -13.1534  -16.8955   22.4490 C.ar    1  UNL1        0.0209
     17 C         -12.0794  -15.8685   22.6534 C.ar    1  UNL1        0.1021
     18 N         -10.7098  -16.0919   22.0839 N.ar    1  UNL1       -0.2101
     19 C          -1.9246  -18.1508   21.1699 C.2     1  UNL1        0.2351
     20 O          -1.5465  -19.4185   21.8771 O.2     1  UNL1       -0.2737
     21 N          -3.3562  -17.7037   21.1461 N.am    1  UNL1       -0.2965
     22 H          -3.6044  -16.8717   20.6820 H       1  UNL1        0.1499
     23 C          -0.3992  -18.5493   19.7507 C.3     1  UNL1        0.0249
     24 C          -0.8712  -17.3303   20.4865 C.3     1  UNL1        0.1086
     25 C          -1.3432  -16.1114   21.2223 C.3     1  UNL1        0.0249
     26 N           0.1823  -16.5099   19.8031 N.3     1  UNL1       -0.3164
     27 H          -0.2514  -15.9292   19.0853 H       1  UNL1        0.1192
     28 H           0.8682  -17.1289   19.3711 H       1  UNL1        0.1192
     29 C          -4.8158  -18.2016   23.2370 C.3     1  UNL1        0.1699
     30 O          -4.3119  -16.9514   23.8952 O.3     1  UNL1       -0.3468
     31 C          -5.1772  -15.7270   23.9414 C.3     1  UNL1        0.1687
     32 C          -6.2467  -15.6034   24.9859 C.ar    1  UNL1        0.0073
     33 C          -7.6914  -15.5939   24.5827 C.ar    1  UNL1       -0.0019
     34 C          -8.7608  -15.4703   25.6272 C.ar    1  UNL1       -0.0002
     35 C          -8.3855  -15.3562   27.0750 C.ar    1  UNL1       -0.0000
     36 C          -6.9407  -15.3657   27.4783 C.ar    1  UNL1       -0.0002
     37 C          -5.8714  -15.4893   26.4337 C.ar    1  UNL1       -0.0019
@<TRIPOS>BOND
     1    23    24    1
     2    24    25    1
     3    24    26    1
     4    24    19    1
     5    19    20    2
     6    19    21   am
     7    21     1    1
     8     1    29    1
     9    29    30    1
    10    30    31    1
    11    31    32    1
    12    32    33   ar
    13    33    34   ar
    14    34    35   ar
    15    35    36   ar
    16    36    37   ar
    17     1     2    1
    18     2     3   ar
    19     3     4   ar
    20     4     5   ar
    21     5     6   ar
    22     6     7    1
    23     7     8    1
    24     8     9    1
    25     9    10    3
    26     7    11    1
    27    11    12    1
    28    12    13    1
    29    13    14   ar
    30    14    15   ar
    31    15    16   ar
    32    16    17   ar
    33    17    18   ar
    34    37    32   ar
    35     6     2   ar
    36    18    13   ar
    37    26    27    1
    38    26    28    1
    39    21    22    1
@<TRIPOS>MOLECULE
*****
 37 39 0 0 0
SMALL
GASTEIGER

@<TRIPOS>ATOM
      1 C          -7.7088  -19.3251   22.1448 C.3     1  UNL1        0.1621
      2 C          -8.8236  -19.2004   23.1405 C.ar    1  UNL1        0.1812
      3 N          -9.2061  -20.2235   24.1687 N.ar    1  UNL1       -0.1109
      4 N         -10.3706  -19.6861   24.9466 N.ar    1  UNL1       -0.0229
      5 N         -10.7079  -18.3309   24.3991 N.ar    1  UNL1       -0.0430
      6 N          -9.7518  -18.0307   23.2830 N.ar    1  UNL1       -0.2125
      7 C          -9.7281  -16.7804   22.4547 C.3     1  UNL1        0.1668
      8 C         -10.9990  -16.2510   21.8593 C.3     1  UNL1        0.1336
      9 C         -11.0080  -15.7287   20.4532 C.1     1  UNL1        0.0753
     10 N         -11.0169  -15.2062   19.0471 N.1     1  UNL1       -0.1958
     11 C          -8.4335  -16.0594   22.2217 C.3     1  UNL1        0.2324
     12 O          -8.0613  -14.8890   23.0828 O.3     1  UNL1       -0.4581
     13 C          -7.5739  -15.1134   24.4835 C.ar    1  UNL1        0.2249
     14 C          -8.5502  -15.4432   25.5735 C.ar    1  UNL1        0.0577
     15 C          -8.0629  -15.6675   26.9743 C.ar    1  UNL1        0.0064
     16 C          -6.5992  -15.5621   27.2850 C.ar    1  UNL1        0.0209
     17 C          -5.6229  -15.2323   26.1950 C.ar    1  UNL1        0.1021
     18 N          -6.1103  -15.0079   24.7942 N.ar    1  UNL1       -0.2101
     19 C          -8.6345  -19.7794   19.7602 C.2     1  UNL1        0.2351
     20 O          -9.2604  -18.4163   19.7434 O.2     1  UNL1       -0.2737
     21 N          -7.8587  -20.2338   20.9609 N.am    1  UNL1       -0.2965
     22 H          -7.4480  -21.1285   20.9719 H       1  UNL1        0.1499
     23 C          -7.4386  -21.2847   18.8636 C.3     1  UNL1        0.0249
     24 C          -8.7845  -20.6882   18.5762 C.3     1  UNL1        0.1086
     25 C         -10.1304  -20.0916   18.2888 C.3     1  UNL1        0.0249
     26 N          -8.9345  -21.5969   17.3923 N.3     1  UNL1       -0.3164
     27 H          -9.5969  -22.3397   17.6156 H       1  UNL1        0.1192
     28 H          -8.0294  -22.0066   17.1613 H       1  UNL1        0.1192
     29 C          -6.4439  -18.5411   22.3331 C.3     1  UNL1        0.1699
     30 O          -5.1432  -19.2564   22.5489 O.3     1  UNL1       -0.3468
     31 C          -3.8723  -18.4735   22.6966 C.3     1  UNL1        0.1687
     32 C          -3.0136  -18.2040   21.4965 C.ar    1  UNL1        0.0073
     33 C          -3.2793  -18.9234   20.2074 C.ar    1  UNL1       -0.0019
     34 C          -2.4206  -18.6539   19.0074 C.ar    1  UNL1       -0.0002
     35 C          -1.2963  -17.6650   19.0965 C.ar    1  UNL1       -0.0000
     36 C          -1.0307  -16.9455   20.3856 C.ar    1  UNL1       -0.0002
     37 C          -1.8893  -17.2151   21.5856 C.ar    1  UNL1       -0.0019
@<TRIPOS>BOND
     1    23    24    1
     2    24    25    1
     3    24    26    1
     4    24    19    1
     5    19    20    2
     6    19    21   am
     7    21     1    1
     8     1    29    1
     9    29    30    1
    10    30    31    1
    11    31    32    1
    12    32    33   ar
    13    33    34   ar
    14    34    35   ar
    15    35    36   ar
    16    36    37   ar
    17     1     2    1
    18     2     3   ar
    19     3     4   ar
    20     4     5   ar
    21     5     6   ar
    22     6     7    1
    23     7     8    1
    24     8     9    1
    25     9    10    3
    26     7    11    1
    27    11    12    1
    28    12    13    1
    29    13    14   ar
    30    14    15   ar
    31    15    16   ar
    32    16    17   ar
    33    17    18   ar
    34    37    32   ar
    35     6     2   ar
    36    18    13   ar
    37    26    27    1
    38    26    28    1
    39    21    22    1
@<TRIPOS>MOLECULE
*****
 37 39 0 0 0
SMALL
GASTEIGER

@<TRIPOS>ATOM
      1 C          -9.3297  -18.0482   21.4529 C.3     1  UNL1        0.1621
      2 C          -9.2955  -19.0111   20.3033 C.ar    1  UNL1        0.1812
      3 N         -10.4206  -19.2867   19.3502 N.ar    1  UNL1       -0.1109
      4 N          -9.9506  -20.3134   18.3628 N.ar    1  UNL1       -0.0229
      5 N          -8.5351  -20.6724   18.7057 N.ar    1  UNL1       -0.0430
      6 N          -8.1302  -19.8675   19.9049 N.ar    1  UNL1       -0.2125
      7 C          -6.7946  -19.9114   20.5862 C.3     1  UNL1        0.1668
      8 C          -5.5458  -20.1000   19.7770 C.3     1  UNL1        0.1336
      9 C          -4.6822  -18.9196   19.4444 C.1     1  UNL1        0.0753
     10 N          -3.8184  -17.7391   19.1118 N.1     1  UNL1       -0.1958
     11 C          -6.7077  -19.7666   22.0767 C.3     1  UNL1        0.2324
     12 O          -5.4032  -20.0025   22.7784 O.3     1  UNL1       -0.4581
     13 C          -4.2803  -19.0199   22.6245 C.ar    1  UNL1        0.2249
     14 C          -2.9214  -19.4940   22.2018 C.ar    1  UNL1        0.0577
     15 C          -1.7986  -18.5114   22.0479 C.ar    1  UNL1        0.0064
     16 C          -2.0347  -17.0547   22.3166 C.ar    1  UNL1        0.0209
     17 C          -3.3936  -16.5806   22.7393 C.ar    1  UNL1        0.1021
     18 N          -4.5164  -17.5632   22.8932 N.ar    1  UNL1       -0.2101
     19 C         -11.5225  -18.0958   22.8455 C.2     1  UNL1        0.2351
     20 O         -12.2515  -17.4225   21.7207 O.2     1  UNL1       -0.2737
     21 N         -10.0616  -18.4086   22.7116 N.am    1  UNL1       -0.2965
     22 H          -9.5832  -18.8505   23.4499 H       1  UNL1        0.1499
     23 C         -11.0006  -19.0648   24.6590 C.3     1  UNL1        0.0249
     24 C         -12.2544  -18.4562   24.1043 C.3     1  UNL1        0.1086
     25 C         -13.5081  -17.8476   23.5495 C.3     1  UNL1        0.0249
     26 N         -12.9863  -18.8167   25.3630 N.3     1  UNL1       -0.3164
     27 H         -13.1331  -17.9770   25.9232 H       1  UNL1        0.1192
     28 H         -12.4349  -19.4891   25.8962 H       1  UNL1        0.1192
     29 C          -8.6321  -16.7248   21.3437 C.3     1  UNL1        0.1699
     30 O          -7.4425  -16.4305   22.2088 O.3     1  UNL1       -0.3468
     31 C          -7.4618  -15.2502   23.1343 C.3     1  UNL1        0.1687
     32 C          -7.3562  -15.4572   24.6162 C.ar    1  UNL1        0.0073
     33 C          -8.5544  -15.9081   25.3978 C.ar    1  UNL1       -0.0019
     34 C          -8.4487  -16.1151   26.8796 C.ar    1  UNL1       -0.0002
     35 C          -7.1448  -15.8712   27.5799 C.ar    1  UNL1       -0.0000
     36 C          -5.9465  -15.4204   26.7983 C.ar    1  UNL1       -0.0002
     37 C          -6.0522  -15.2134   25.3164 C.ar    1  UNL1       -0.0019
@<TRIPOS>BOND
     1    23    24    1
     2    24    25    1
     3    24    26    1
     4    24    19    1
     5    19    20    2
     6    19    21   am
     7    21     1    1
     8     1    29    1
     9    29    30    1
    10    30    31    1
    11    31    32    1
    12    32    33   ar
    13    33    34   ar
    14    34    35   ar
    15    35    36   ar
    16    36    37   ar
    17     1     2    1
    18     2     3   ar
    19     3     4   ar
    20     4     5   ar
    21     5     6   ar
    22     6     7    1
    23     7     8    1
    24     8     9    1
    25     9    10    3
    26     7    11    1
    27    11    12    1
    28    12    13    1
    29    13    14   ar
    30    14    15   ar
    31    15    16   ar
    32    16    17   ar
    33    17    18   ar
    34    37    32   ar
    35     6     2   ar
    36    18    13   ar
    37    26    27    1
    38    26    28    1
    39    21    22    1
@<TRIPOS>MOLECULE
*****
 37 39 0 0 0
SMALL
GASTEIGER

@<TRIPOS>ATOM
      1 C          -6.9751  -18.3485   21.8574 C.3     1  UNL1        0.1621
      2 C          -5.8448  -19.2098   21.3775 C.ar    1  UNL1        0.1812
      3 N          -5.9765  -20.4776   20.5866 N.ar    1  UNL1       -0.1109
      4 N          -4.5974  -21.0059   20.3245 N.ar    1  UNL1       -0.0229
      5 N          -3.6132  -20.0647   20.9534 N.ar    1  UNL1       -0.0430
      6 N          -4.3841  -18.9546   21.6042 N.ar    1  UNL1       -0.2125
      7 C          -3.7974  -17.7933   22.3505 C.3     1  UNL1        0.1668
      8 C          -2.5959  -17.0806   21.8043 C.3     1  UNL1        0.1336
      9 C          -2.1781  -17.2979   20.3802 C.1     1  UNL1        0.0753
     10 N          -1.7604  -17.5152   18.9559 N.1     1  UNL1       -0.1958
     11 C          -4.4121  -17.3447   23.6432 C.3     1  UNL1        0.2324
     12 O          -5.1582  -16.0450   23.7077 O.3     1  UNL1       -0.4581
     13 C          -6.1129  -15.7833   24.8347 C.ar    1  UNL1        0.2249
     14 C          -5.5914  -15.5676   26.2245 C.ar    1  UNL1        0.0577
     15 C          -6.5461  -15.3059   27.3515 C.ar    1  UNL1        0.0064
     16 C          -8.0221  -15.2601   27.0887 C.ar    1  UNL1        0.0209
     17 C          -8.5436  -15.4758   25.6989 C.ar    1  UNL1        0.1021
     18 N          -7.5889  -15.7375   24.5719 N.ar    1  UNL1       -0.2101
     19 C          -8.9654  -19.4611   23.1026 C.2     1  UNL1        0.2351
     20 O          -9.5401  -19.9028   21.7893 O.2     1  UNL1       -0.2737
     21 N          -7.6829  -18.6840   23.1366 N.am    1  UNL1       -0.2965
     22 H          -7.3057  -18.3941   23.9985 H       1  UNL1        0.1499
     23 C          -9.2347  -21.2250   24.2499 C.3     1  UNL1        0.0249
     24 C          -9.6732  -19.7966   24.3818 C.3     1  UNL1        0.1086
     25 C         -10.1117  -18.3682   24.5138 C.3     1  UNL1        0.0249
     26 N         -10.3810  -20.1321   25.6611 N.3     1  UNL1       -0.3164
     27 H          -9.8453  -19.7716   26.4507 H       1  UNL1        0.1192
     28 H         -10.4703  -21.1447   25.7448 H       1  UNL1        0.1192
     29 C          -7.3977  -17.1516   21.0580 C.3     1  UNL1        0.1699
     30 O          -8.0261  -15.9751   21.7443 O.3     1  UNL1       -0.3468
     31 C          -9.3305  -15.4259   21.2476 C.3     1  UNL1        0.1687
     32 C         -10.6013  -16.1895   21.4757 C.ar    1  UNL1        0.0073
     33 C         -11.5222  -15.7967   22.5927 C.ar    1  UNL1       -0.0019
     34 C         -12.7929  -16.5603   22.8207 C.ar    1  UNL1       -0.0002
     35 C         -13.1428  -17.7168   21.9318 C.ar    1  UNL1       -0.0000
     36 C         -12.2220  -18.1096   20.8148 C.ar    1  UNL1       -0.0002
     37 C         -10.9512  -17.3460   20.5868 C.ar    1  UNL1       -0.0019
@<TRIPOS>BOND
     1    23    24    1
     2    24    25    1
     3    24    26    1
     4    24    19    1
     5    19    20    2
     6    19    21   am
     7    21     1    1
     8     1    29    1
     9    29    30    1
    10    30    31    1
    11    31    32    1
    12    32    33   ar
    13    33    34   ar
    14    34    35   ar
    15    35    36   ar
    16    36    37   ar
    17     1     2    1
    18     2     3   ar
    19     3     4   ar
    20     4     5   ar
    21     5     6   ar
    22     6     7    1
    23     7     8    1
    24     8     9    1
    25     9    10    3
    26     7    11    1
    27    11    12    1
    28    12    13    1
    29    13    14   ar
    30    14    15   ar
    31    15    16   ar
    32    16    17   ar
    33    17    18   ar
    34    37    32   ar
    35     6     2   ar
    36    18    13   ar
    37    26    27    1
    38    26    28    1
    39    21    22    1
@<TRIPOS>MOLECULE
*****
 37 39 0 0 0
SMALL
GASTEIGER

@<TRIPOS>ATOM
      1 C          -8.8771  -18.6518   21.7421 C.3     1  UNL1        0.1621
      2 C          -9.1829  -18.9293   23.1841 C.ar    1  UNL1        0.1812
      3 N          -9.7342  -20.2096   23.7380 N.ar    1  UNL1       -0.1109
      4 N          -9.8831  -20.0468   25.2217 N.ar    1  UNL1       -0.0229
      5 N          -9.4238  -18.6658   25.5848 N.ar    1  UNL1       -0.0430
      6 N          -8.9911  -17.9751   24.3255 N.ar    1  UNL1       -0.2125
      7 C          -8.4598  -16.5760   24.2253 C.3     1  UNL1        0.1668
      8 C          -8.8986  -15.5347   25.2118 C.3     1  UNL1        0.1336
      9 C          -8.1085  -15.3105   26.4669 C.1     1  UNL1        0.0753
     10 N          -7.3184  -15.0861   27.7222 N.1     1  UNL1       -0.1958
     11 C          -7.4897  -16.2180   23.1386 C.3     1  UNL1        0.2324
     12 O          -6.2431  -15.4518   23.4685 O.3     1  UNL1       -0.4581
     13 C          -4.8974  -16.0697   23.2288 C.ar    1  UNL1        0.2249
     14 C          -4.5867  -17.4286   23.7827 C.ar    1  UNL1        0.0577
     15 C          -3.2410  -18.0465   23.5430 C.ar    1  UNL1        0.0064
     16 C          -2.2062  -17.3053   22.7495 C.ar    1  UNL1        0.0209
     17 C          -2.5169  -15.9464   22.1957 C.ar    1  UNL1        0.1021
     18 N          -3.8625  -15.3285   22.4353 N.ar    1  UNL1       -0.2101
     19 C         -11.1893  -17.6783   21.0668 C.2     1  UNL1        0.2351
     20 O         -11.8718  -18.7136   21.9108 O.2     1  UNL1       -0.2737
     21 N          -9.6920  -17.6474   20.9825 N.am    1  UNL1       -0.2965
     22 H          -9.2441  -16.9678   20.4285 H       1  UNL1        0.1499
     23 C         -10.9324  -16.5958   19.2606 C.3     1  UNL1        0.0249
     24 C         -12.0042  -16.6739   20.3071 C.3     1  UNL1        0.1086
     25 C         -13.0760  -16.7519   21.3536 C.3     1  UNL1        0.0249
     26 N         -12.8191  -15.6694   19.5474 N.3     1  UNL1       -0.3164
     27 H         -13.5954  -16.1418   19.0843 H       1  UNL1        0.1192
     28 H         -12.2322  -15.2143   18.8483 H       1  UNL1        0.1192
     29 C          -7.7565  -19.3787   21.0598 C.3     1  UNL1        0.1699
     30 O          -6.4520  -18.6813   20.8105 O.3     1  UNL1       -0.3468
     31 C          -5.6107  -19.0641   19.6292 C.3     1  UNL1        0.1687
     32 C          -4.1159  -18.9672   19.7100 C.ar    1  UNL1        0.0073
     33 C          -3.3434  -19.9575   20.5299 C.ar    1  UNL1       -0.0019
     34 C          -1.8487  -19.8606   20.6107 C.ar    1  UNL1       -0.0002
     35 C          -1.1266  -18.7733   19.8715 C.ar    1  UNL1       -0.0000
     36 C          -1.8992  -17.7830   19.0515 C.ar    1  UNL1       -0.0002
     37 C          -3.3938  -17.8799   18.9708 C.ar    1  UNL1       -0.0019
@<TRIPOS>BOND
     1    23    24    1
     2    24    25    1
     3    24    26    1
     4    24    19    1
     5    19    20    2
     6    19    21   am
     7    21     1    1
     8     1    29    1
     9    29    30    1
    10    30    31    1
    11    31    32    1
    12    32    33   ar
    13    33    34   ar
    14    34    35   ar
    15    35    36   ar
    16    36    37   ar
    17     1     2    1
    18     2     3   ar
    19     3     4   ar
    20     4     5   ar
    21     5     6   ar
    22     6     7    1
    23     7     8    1
    24     8     9    1
    25     9    10    3
    26     7    11    1
    27    11    12    1
    28    12    13    1
    29    13    14   ar
    30    14    15   ar
    31    15    16   ar
    32    16    17   ar
    33    17    18   ar
    34    37    32   ar
    35     6     2   ar
    36    18    13   ar
    37    26    27    1
    38    26    28    1
    39    21    22    1
