@<TRIPOS>MOLECULE
*****
 24 27 0 0 0
SMALL
GASTEIGER

@<TRIPOS>ATOM
      1 O         -13.0864  -17.9630   23.1862 O.2     1  UNL1       -0.5093
      2 C         -11.8602  -18.2168   22.3603 C.2     1  UNL1        0.1202
      3 C         -11.9578  -18.2518   20.8639 C.2     1  UNL1        0.0365
      4 C         -10.7316  -18.5056   20.0380 C.2     1  UNL1        0.0529
      5 C          -9.4078  -18.7243   20.7085 C.2     1  UNL1        0.2323
      6 N          -8.0378  -18.9946   20.1608 N.2     1  UNL1       -0.0308
      7 C          -7.0935  -19.1267   21.3187 C.2     1  UNL1        0.3752
      8 N          -7.8798  -18.9379   22.5821 N.2     1  UNL1       -0.0346
      9 C          -9.3102  -18.6893   22.2049 C.2     1  UNL1        0.2215
     10 C         -10.5364  -18.4355   23.0308 C.3     1  UNL1        0.1420
     11 H         -13.9134  -17.8263   22.7674 H       1  UNL1        0.2917
     12 C          -5.6212  -19.3995   21.2290 C.ar    1  UNL1        0.0884
     13 C          -5.0774  -20.2153   20.0938 C.ar    1  UNL1        0.0077
     14 C          -3.6051  -20.4881   20.0042 C.ar    1  UNL1        0.0003
     15 C          -2.6767  -19.9451   21.0498 C.ar    1  UNL1        0.0000
     16 C          -3.2205  -19.1293   22.1850 C.ar    1  UNL1        0.0003
     17 C          -4.6928  -18.8565   22.2746 C.ar    1  UNL1        0.0077
     18 C         -10.4387  -18.4005   24.5272 C.3     1  UNL1        0.0882
     19 N          -9.5715  -17.3771   25.1985 N.3     1  UNL1       -0.2719
     20 C          -9.1567  -17.5666   26.6275 C.3     1  UNL1        0.0721
     21 C          -8.2894  -16.5432   27.2987 C.3     1  UNL1        0.0174
     22 C          -7.8370  -15.3304   26.5410 C.3     1  UNL1        0.0029
     23 C          -8.2518  -15.1409   25.1119 C.3     1  UNL1        0.0174
     24 C          -9.1190  -16.1642   24.4407 C.3     1  UNL1        0.0721
@<TRIPOS>BOND
     1     1     2    1
     2     2     3    2
     3     3     4    1
     4     4     5    2
     5     5     6    1
     6     6     7    2
     7     7    12    1
     8    12    13   ar
     9    13    14   ar
    10    14    15   ar
    11    15    16   ar
    12    16    17   ar
    13     7     8    1
    14     8     9    2
    15     9    10    1
    16    10    18    1
    17    18    19    1
    18    19    20    1
    19    20    21    1
    20    21    22    1
    21    22    23    1
    22    23    24    1
    23    10     2    1
    24    24    19    1
    25     9     5    1
    26    17    12   ar
    27     1    11    1
@<TRIPOS>MOLECULE
*****
 24 27 0 0 0
SMALL
GASTEIGER

@<TRIPOS>ATOM
      1 O         -12.4870  -16.9763   22.0970 O.2     1  UNL1       -0.5093
      2 C         -11.2960  -17.7274   21.5798 C.2     1  UNL1        0.1202
      3 C         -11.4890  -18.9109   20.6789 C.2     1  UNL1        0.0365
      4 C         -10.2979  -19.6621   20.1617 C.2     1  UNL1        0.0529
      5 C          -8.9139  -19.2294   20.5455 C.2     1  UNL1        0.2323
      6 N          -7.5597  -19.7701   20.1939 N.2     1  UNL1       -0.0308
      7 C          -6.5297  -18.9205   20.8776 C.2     1  UNL1        0.3752
      8 N          -7.2474  -17.8548   21.6517 N.2     1  UNL1       -0.0346
      9 C          -8.7210  -18.0458   21.4465 C.2     1  UNL1        0.2215
     10 C          -9.9120  -17.2947   21.9636 C.3     1  UNL1        0.1420
     11 H         -13.3516  -17.2465   21.8572 H       1  UNL1        0.2917
     12 C          -5.0430  -19.1043   20.8006 C.ar    1  UNL1        0.0884
     13 C          -4.3302  -18.9130   19.4947 C.ar    1  UNL1        0.0077
     14 C          -2.8435  -19.0968   19.4179 C.ar    1  UNL1        0.0003
     15 C          -2.0695  -19.4720   20.6468 C.ar    1  UNL1        0.0000
     16 C          -2.7823  -19.6633   21.9527 C.ar    1  UNL1        0.0003
     17 C          -4.2690  -19.4795   22.0295 C.ar    1  UNL1        0.0077
     18 C          -9.7190  -16.1111   22.8646 C.3     1  UNL1        0.0882
     19 N          -9.2929  -16.3138   24.2884 N.3     1  UNL1       -0.2719
     20 C          -8.5195  -15.2432   24.9995 C.3     1  UNL1        0.0721
     21 C          -8.0934  -15.4461   26.4234 C.3     1  UNL1        0.0174
     22 C          -8.4406  -16.7194   27.1361 C.3     1  UNL1        0.0029
     23 C          -9.2140  -17.7901   26.4249 C.3     1  UNL1        0.0174
     24 C          -9.6401  -17.5873   25.0010 C.3     1  UNL1        0.0721
@<TRIPOS>BOND
     1     1     2    1
     2     2     3    2
     3     3     4    1
     4     4     5    2
     5     5     6    1
     6     6     7    2
     7     7    12    1
     8    12    13   ar
     9    13    14   ar
    10    14    15   ar
    11    15    16   ar
    12    16    17   ar
    13     7     8    1
    14     8     9    2
    15     9    10    1
    16    10    18    1
    17    18    19    1
    18    19    20    1
    19    20    21    1
    20    21    22    1
    21    22    23    1
    22    23    24    1
    23    10     2    1
    24    24    19    1
    25     9     5    1
    26    17    12   ar
    27     1    11    1
@<TRIPOS>MOLECULE
*****
 24 27 0 0 0
SMALL
GASTEIGER

@<TRIPOS>ATOM
      1 O          -8.8283  -20.6443   18.3409 O.2     1  UNL1       -0.5093
      2 C          -9.0273  -19.6265   19.4246 C.2     1  UNL1        0.1202
      3 C         -10.2615  -18.7742   19.4355 C.2     1  UNL1        0.0365
      4 C         -10.4606  -17.7563   20.5193 C.2     1  UNL1        0.0529
      5 C          -9.4254  -17.5908   21.5920 C.2     1  UNL1        0.2323
      6 N          -9.3476  -16.6777   22.7795 N.2     1  UNL1       -0.0308
      7 C          -8.0653  -16.9657   23.5024 C.2     1  UNL1        0.3752
      8 N          -7.3505  -18.0568   22.7618 N.2     1  UNL1       -0.0346
      9 C          -8.1911  -18.4432   21.5811 C.2     1  UNL1        0.2215
     10 C          -7.9921  -19.4610   20.4973 C.3     1  UNL1        0.1420
     11 H          -9.4749  -20.7478   17.6707 H       1  UNL1        0.2917
     12 C          -7.5825  -16.2825   24.7475 C.ar    1  UNL1        0.0884
     13 C          -8.5066  -16.1139   25.9169 C.ar    1  UNL1        0.0077
     14 C          -8.0236  -15.4307   27.1620 C.ar    1  UNL1        0.0003
     15 C          -6.6167  -14.9161   27.2376 C.ar    1  UNL1        0.0000
     16 C          -5.6926  -15.0847   26.0682 C.ar    1  UNL1        0.0003
     17 C          -6.1755  -15.7679   24.8231 C.ar    1  UNL1        0.0077
     18 C          -6.7578  -20.3133   20.4864 C.3     1  UNL1        0.0882
     19 N          -5.4073  -19.6796   20.6427 N.3     1  UNL1       -0.2719
     20 C          -4.7165  -19.7050   21.9739 C.3     1  UNL1        0.0721
     21 C          -3.3659  -19.0712   22.1302 C.3     1  UNL1        0.0174
     22 C          -2.7063  -18.4120   20.9554 C.3     1  UNL1        0.0029
     23 C          -3.3971  -18.3866   19.6241 C.3     1  UNL1        0.0174
     24 C          -4.7477  -19.0204   19.4678 C.3     1  UNL1        0.0721
@<TRIPOS>BOND
     1     1     2    1
     2     2     3    2
     3     3     4    1
     4     4     5    2
     5     5     6    1
     6     6     7    2
     7     7    12    1
     8    12    13   ar
     9    13    14   ar
    10    14    15   ar
    11    15    16   ar
    12    16    17   ar
    13     7     8    1
    14     8     9    2
    15     9    10    1
    16    10    18    1
    17    18    19    1
    18    19    20    1
    19    20    21    1
    20    21    22    1
    21    22    23    1
    22    23    24    1
    23    10     2    1
    24    24    19    1
    25     9     5    1
    26    17    12   ar
    27     1    11    1
@<TRIPOS>MOLECULE
*****
 24 27 0 0 0
SMALL
GASTEIGER

@<TRIPOS>ATOM
      1 O          -9.3248  -15.0453   26.0490 O.2     1  UNL1       -0.5093
      2 C          -7.9187  -15.4643   25.7366 C.2     1  UNL1        0.1202
      3 C          -6.8681  -15.4211   26.8062 C.2     1  UNL1        0.0365
      4 C          -5.4620  -15.8401   26.4938 C.2     1  UNL1        0.0529
      5 C          -5.1068  -16.3023   25.1118 C.2     1  UNL1        0.2323
      6 N          -3.8150  -16.7728   24.5119 N.2     1  UNL1       -0.0308
      7 C          -4.0673  -17.1069   23.0715 C.2     1  UNL1        0.3752
      8 N          -5.5151  -16.8428   22.7812 N.2     1  UNL1       -0.0346
      9 C          -6.1575  -16.3456   24.0421 C.2     1  UNL1        0.2215
     10 C          -7.5635  -15.9266   24.3546 C.3     1  UNL1        0.1420
     11 H          -9.5468  -14.7566   26.9124 H       1  UNL1        0.2917
     12 C          -3.0505  -17.6157   22.0932 C.ar    1  UNL1        0.0884
     13 C          -2.0813  -16.6646   21.4560 C.ar    1  UNL1        0.0077
     14 C          -1.0645  -17.1734   20.4776 C.ar    1  UNL1        0.0003
     15 C          -1.0168  -18.6334   20.1365 C.ar    1  UNL1        0.0000
     16 C          -1.9860  -19.5845   20.7737 C.ar    1  UNL1        0.0003
     17 C          -3.0028  -19.0756   21.7521 C.ar    1  UNL1        0.0077
     18 C          -8.6142  -15.9698   23.2850 C.3     1  UNL1        0.0882
     19 N          -9.8489  -16.7991   23.4796 N.3     1  UNL1       -0.2719
     20 C         -11.1369  -16.3909   22.8281 C.3     1  UNL1        0.0721
     21 C         -12.3716  -17.2203   23.0228 C.3     1  UNL1        0.0174
     22 C         -12.3182  -18.4577   23.8688 C.3     1  UNL1        0.0029
     23 C         -11.0301  -18.8659   24.5202 C.3     1  UNL1        0.0174
     24 C          -9.7955  -18.0366   24.3256 C.3     1  UNL1        0.0721
@<TRIPOS>BOND
     1     1     2    1
     2     2     3    2
     3     3     4    1
     4     4     5    2
     5     5     6    1
     6     6     7    2
     7     7    12    1
     8    12    13   ar
     9    13    14   ar
    10    14    15   ar
    11    15    16   ar
    12    16    17   ar
    13     7     8    1
    14     8     9    2
    15     9    10    1
    16    10    18    1
    17    18    19    1
    18    19    20    1
    19    20    21    1
    20    21    22    1
    21    22    23    1
    22    23    24    1
    23    10     2    1
    24    24    19    1
    25     9     5    1
    26    17    12   ar
    27     1    11    1
@<TRIPOS>MOLECULE
*****
 24 27 0 0 0
SMALL
GASTEIGER

@<TRIPOS>ATOM
      1 O          -9.6660   -3.5376   19.2217 O.2     1  UNL1       -0.5093
      2 C         -10.5574   -4.7199   18.9815 C.2     1  UNL1        0.1202
      3 C          -9.9882   -5.9846   18.4101 C.2     1  UNL1        0.0365
      4 C         -10.8796   -7.1669   18.1699 C.2     1  UNL1        0.0529
      5 C         -12.3403   -7.0843   18.5011 C.2     1  UNL1        0.2323
      6 N         -13.4558   -8.0790   18.3745 N.2     1  UNL1       -0.0308
      7 C         -14.7145   -7.4290   18.8676 C.2     1  UNL1        0.3752
      8 N         -14.3769   -6.0326   19.2989 N.2     1  UNL1       -0.0346
      9 C         -12.9095   -5.8196   19.0724 C.2     1  UNL1        0.2215
     10 C         -12.0180   -4.6374   19.3126 C.3     1  UNL1        0.1420
     11 H          -8.7535   -3.5891   19.0148 H       1  UNL1        0.2917
     12 C         -16.0725   -8.0639   18.9201 C.ar    1  UNL1        0.0884
     13 C         -16.3270   -9.3516   18.1940 C.ar    1  UNL1        0.0077
     14 C         -17.6851   -9.9864   18.2466 C.ar    1  UNL1        0.0003
     15 C         -18.7886   -9.3337   19.0252 C.ar    1  UNL1        0.0000
     16 C         -18.5341   -8.0460   19.7513 C.ar    1  UNL1        0.0003
     17 C         -17.1760   -7.4112   19.6987 C.ar    1  UNL1        0.0077
     18 C         -12.5872   -3.3726   19.8840 C.3     1  UNL1        0.0882
     19 N         -13.0107   -2.2609   18.9703 N.3     1  UNL1       -0.2719
     20 C         -14.3757   -2.2798   18.3488 C.3     1  UNL1        0.0721
     21 C         -14.7991   -1.1680   17.4351 C.3     1  UNL1        0.0174
     22 C         -13.8576   -0.0376   17.1429 C.3     1  UNL1        0.0029
     23 C         -12.4924   -0.0188   17.7645 C.3     1  UNL1        0.0174
     24 C         -12.0690   -1.1305   18.6782 C.3     1  UNL1        0.0721
@<TRIPOS>BOND
     1     1     2    1
     2     2     3    2
     3     3     4    1
     4     4     5    2
     5     5     6    1
     6     6     7    2
     7     7    12    1
     8    12    13   ar
     9    13    14   ar
    10    14    15   ar
    11    15    16   ar
    12    16    17   ar
    13     7     8    1
    14     8     9    2
    15     9    10    1
    16    10    18    1
    17    18    19    1
    18    19    20    1
    19    20    21    1
    20    21    22    1
    21    22    23    1
    22    23    24    1
    23    10     2    1
    24    24    19    1
    25     9     5    1
    26    17    12   ar
    27     1    11    1
@<TRIPOS>MOLECULE
*****
 24 27 0 0 0
SMALL
GASTEIGER

@<TRIPOS>ATOM
      1 O          -6.2741  -14.7179   25.3658 O.2     1  UNL1       -0.5093
      2 C          -6.0490  -15.8039   24.3557 C.2     1  UNL1        0.1202
      3 C          -4.6746  -16.3711   24.1580 C.2     1  UNL1        0.0365
      4 C          -4.4496  -17.4571   23.1479 C.2     1  UNL1        0.0529
      5 C          -5.5990  -17.9757   22.3356 C.2     1  UNL1        0.2323
      6 N          -5.6818  -19.0320   21.2739 N.2     1  UNL1       -0.0308
      7 C          -7.1075  -19.1176   20.8155 C.2     1  UNL1        0.3752
      8 N          -7.9057  -18.1141   21.5938 N.2     1  UNL1       -0.0346
      9 C          -6.9734  -17.4084   22.5334 C.2     1  UNL1        0.2215
     10 C          -7.1984  -16.3225   23.5434 C.3     1  UNL1        0.1420
     11 H          -5.5561  -14.3940   25.8732 H       1  UNL1        0.2917
     12 C          -7.6412  -20.0439   19.7633 C.ar    1  UNL1        0.0884
     13 C          -8.9177  -19.7117   19.0491 C.ar    1  UNL1        0.0077
     14 C          -9.4514  -20.6382   17.9970 C.ar    1  UNL1        0.0003
     15 C          -8.7086  -21.8967   17.6590 C.ar    1  UNL1        0.0000
     16 C          -7.4321  -22.2290   18.3732 C.ar    1  UNL1        0.0003
     17 C          -6.8984  -21.3025   19.4254 C.ar    1  UNL1        0.0077
     18 C          -8.5729  -15.7552   23.7411 C.3     1  UNL1        0.0882
     19 N          -9.7645  -16.6660   23.7611 N.3     1  UNL1       -0.2719
     20 C         -10.9379  -16.3856   22.8698 C.3     1  UNL1        0.0721
     21 C         -12.1295  -17.2965   22.8898 C.3     1  UNL1        0.0174
     22 C         -12.1477  -18.4877   23.8011 C.3     1  UNL1        0.0029
     23 C         -10.9742  -18.7682   24.6925 C.3     1  UNL1        0.0174
     24 C          -9.7826  -17.8573   24.6725 C.3     1  UNL1        0.0721
@<TRIPOS>BOND
     1     1     2    1
     2     2     3    2
     3     3     4    1
     4     4     5    2
     5     5     6    1
     6     6     7    2
     7     7    12    1
     8    12    13   ar
     9    13    14   ar
    10    14    15   ar
    11    15    16   ar
    12    16    17   ar
    13     7     8    1
    14     8     9    2
    15     9    10    1
    16    10    18    1
    17    18    19    1
    18    19    20    1
    19    20    21    1
    20    21    22    1
    21    22    23    1
    22    23    24    1
    23    10     2    1
    24    24    19    1
    25     9     5    1
    26    17    12   ar
    27     1    11    1
@<TRIPOS>MOLECULE
*****
 24 27 0 0 0
SMALL
GASTEIGER

@<TRIPOS>ATOM
      1 O         -10.0202   -8.9318   17.3371 O.2     1  UNL1       -0.5093
      2 C         -10.3351   -7.5676   17.8756 C.2     1  UNL1        0.1202
      3 C          -9.3652   -6.8801   18.7902 C.2     1  UNL1        0.0365
      4 C          -9.6801   -5.5158   19.3287 C.2     1  UNL1        0.0529
      5 C         -10.9649   -4.8393   18.9525 C.2     1  UNL1        0.2323
      6 N         -11.5435   -3.5062   19.3242 N.2     1  UNL1       -0.0308
      7 C         -12.8710   -3.3699   18.6393 C.2     1  UNL1        0.3752
      8 N         -13.1128   -4.6187   17.8442 N.2     1  UNL1       -0.0346
      9 C         -11.9348   -5.5268   18.0378 C.2     1  UNL1        0.2215
     10 C         -11.6199   -6.8910   17.4994 C.3     1  UNL1        0.1420
     11 H          -9.2177   -9.3545   17.5721 H       1  UNL1        0.2917
     12 C         -13.7946   -2.1917   18.7329 C.ar    1  UNL1        0.0884
     13 C         -13.5793   -0.9980   17.8505 C.ar    1  UNL1        0.0077
     14 C         -14.5029    0.1802   17.9442 C.ar    1  UNL1        0.0003
     15 C         -15.6418    0.1647   18.9203 C.ar    1  UNL1        0.0000
     16 C         -15.8571   -1.0290   19.8027 C.ar    1  UNL1        0.0003
     17 C         -14.9335   -2.2072   19.7089 C.ar    1  UNL1        0.0077
     18 C         -12.5898   -7.5786   16.5847 C.3     1  UNL1        0.0882
     19 N         -13.9757   -7.8957   17.0628 N.3     1  UNL1       -0.2719
     20 C         -15.1598   -7.5617   16.2046 C.3     1  UNL1        0.0721
     21 C         -16.5458   -7.8788   16.6828 C.3     1  UNL1        0.0174
     22 C         -16.7477   -8.5298   18.0188 C.3     1  UNL1        0.0029
     23 C         -15.5635   -8.8638   18.8770 C.3     1  UNL1        0.0174
     24 C         -14.1775   -8.5468   18.3990 C.3     1  UNL1        0.0721
@<TRIPOS>BOND
     1     1     2    1
     2     2     3    2
     3     3     4    1
     4     4     5    2
     5     5     6    1
     6     6     7    2
     7     7    12    1
     8    12    13   ar
     9    13    14   ar
    10    14    15   ar
    11    15    16   ar
    12    16    17   ar
    13     7     8    1
    14     8     9    2
    15     9    10    1
    16    10    18    1
    17    18    19    1
    18    19    20    1
    19    20    21    1
    20    21    22    1
    21    22    23    1
    22    23    24    1
    23    10     2    1
    24    24    19    1
    25     9     5    1
    26    17    12   ar
    27     1    11    1
@<TRIPOS>MOLECULE
*****
 24 27 0 0 0
SMALL
GASTEIGER

@<TRIPOS>ATOM
      1 O         -11.8464  -18.9560   20.8485 O.2     1  UNL1       -0.5093
      2 C         -10.4313  -19.1925   20.4105 C.2     1  UNL1        0.1202
      3 C         -10.1526  -20.0079   19.1828 C.2     1  UNL1        0.0365
      4 C          -8.7375  -20.2444   18.7447 C.2     1  UNL1        0.0529
      5 C          -7.6013  -19.6654   19.5345 C.2     1  UNL1        0.2323
      6 N          -6.1143  -19.7294   19.3482 N.2     1  UNL1       -0.0308
      7 C          -5.4740  -18.9534   20.4609 C.2     1  UNL1        0.3752
      8 N          -6.5653  -18.4100   21.3348 N.2     1  UNL1       -0.0346
      9 C          -7.8801  -18.8500   20.7623 C.2     1  UNL1        0.2215
     10 C          -9.2951  -18.6135   21.2002 C.3     1  UNL1        0.1420
     11 H         -12.5562  -19.3176   20.3552 H       1  UNL1        0.2917
     12 C          -4.0011  -18.7557   20.6640 C.ar    1  UNL1        0.0884
     13 C          -3.0868  -18.6590   19.4788 C.ar    1  UNL1        0.0077
     14 C          -1.6138  -18.4612   19.6820 C.ar    1  UNL1        0.0003
     15 C          -1.0551  -18.3602   21.0704 C.ar    1  UNL1        0.0000
     16 C          -1.9693  -18.4569   22.2556 C.ar    1  UNL1        0.0003
     17 C          -3.4423  -18.6546   22.0524 C.ar    1  UNL1        0.0077
     18 C          -9.5739  -17.7981   22.4280 C.3     1  UNL1        0.0882
     19 N         -10.9451  -17.8028   23.0361 N.3     1  UNL1       -0.2719
     20 C         -11.9539  -16.7741   22.6189 C.3     1  UNL1        0.0721
     21 C         -13.3252  -16.7788   23.2271 C.3     1  UNL1        0.0174
     22 C         -13.6875  -17.8121   24.2522 C.3     1  UNL1        0.0029
     23 C         -12.6786  -18.8408   24.6693 C.3     1  UNL1        0.0174
     24 C         -11.3073  -18.8362   24.0612 C.3     1  UNL1        0.0721
@<TRIPOS>BOND
     1     1     2    1
     2     2     3    2
     3     3     4    1
     4     4     5    2
     5     5     6    1
     6     6     7    2
     7     7    12    1
     8    12    13   ar
     9    13    14   ar
    10    14    15   ar
    11    15    16   ar
    12    16    17   ar
    13     7     8    1
    14     8     9    2
    15     9    10    1
    16    10    18    1
    17    18    19    1
    18    19    20    1
    19    20    21    1
    20    21    22    1
    21    22    23    1
    22    23    24    1
    23    10     2    1
    24    24    19    1
    25     9     5    1
    26    17    12   ar
    27     1    11    1
@<TRIPOS>MOLECULE
*****
 24 27 0 0 0
SMALL
GASTEIGER

@<TRIPOS>ATOM
      1 O         -10.0918   -2.0109   17.2632 O.2     1  UNL1       -0.5093
      2 C         -10.6315   -3.3226   17.7514 C.2     1  UNL1        0.1202
      3 C          -9.7298   -4.2859   18.4645 C.2     1  UNL1        0.0365
      4 C         -10.2695   -5.5976   18.9528 C.2     1  UNL1        0.0529
      5 C         -11.7110   -5.9458   18.7278 C.2     1  UNL1        0.2323
      6 N         -12.5203   -7.1549   19.0927 N.2     1  UNL1       -0.0308
      7 C         -13.9222   -6.9387   18.6050 C.2     1  UNL1        0.3752
      8 N         -13.9795   -5.5961   17.9387 N.2     1  UNL1       -0.0346
      9 C         -12.6128   -4.9824   18.0146 C.2     1  UNL1        0.2215
     10 C         -12.0731   -3.6707   17.5264 C.3     1  UNL1        0.1420
     11 H          -9.1913   -1.7933   17.4037 H       1  UNL1        0.2917
     12 C         -15.0662   -7.8970   18.7570 C.ar    1  UNL1        0.0884
     13 C         -14.9981   -9.2533   18.1198 C.ar    1  UNL1        0.0077
     14 C         -16.1421  -10.2115   18.2718 C.ar    1  UNL1        0.0003
     15 C         -17.3541   -9.8136   19.0609 C.ar    1  UNL1        0.0000
     16 C         -17.4222   -8.4573   19.6980 C.ar    1  UNL1        0.0003
     17 C         -16.2782   -7.4991   19.5461 C.ar    1  UNL1        0.0077
     18 C         -12.9749   -2.7073   16.8133 C.3     1  UNL1        0.0882
     19 N         -13.6817   -1.6313   17.5831 N.3     1  UNL1       -0.2719
     20 C         -13.2032   -0.2121   17.5000 C.3     1  UNL1        0.0721
     21 C         -13.9101    0.8639   18.2699 C.3     1  UNL1        0.0174
     22 C         -15.0953    0.5207   19.1227 C.3     1  UNL1        0.0029
     23 C         -15.5737   -0.8987   19.2058 C.3     1  UNL1        0.0174
     24 C         -14.8669   -1.9746   18.4360 C.3     1  UNL1        0.0721
@<TRIPOS>BOND
     1     1     2    1
     2     2     3    2
     3     3     4    1
     4     4     5    2
     5     5     6    1
     6     6     7    2
     7     7    12    1
     8    12    13   ar
     9    13    14   ar
    10    14    15   ar
    11    15    16   ar
    12    16    17   ar
    13     7     8    1
    14     8     9    2
    15     9    10    1
    16    10    18    1
    17    18    19    1
    18    19    20    1
    19    20    21    1
    20    21    22    1
    21    22    23    1
    22    23    24    1
    23    10     2    1
    24    24    19    1
    25     9     5    1
    26    17    12   ar
    27     1    11    1
