@<TRIPOS>MOLECULE
*****
 29 31 0 0 0
SMALL
GASTEIGER

@<TRIPOS>ATOM
      1 N          -8.1893  -17.2508   22.6400 N.pl3   1  UNL1       -0.3035
      2 C          -3.0774  -19.6928   21.4869 C.3     1  UNL1        0.0948
      3 C          -4.2522  -20.1811   20.6923 C.2     1  UNL1        0.2262
      4 O          -4.0656  -21.2522   19.6589 O.2     1  UNL1       -0.2749
      5 N          -5.6136  -19.5984   20.9312 N.am    1  UNL1       -0.2778
      6 C          -6.8754  -19.9843   20.2177 C.3     1  UNL1        0.0952
      7 C          -7.9939  -19.1518   20.7710 C.3     1  UNL1        0.0430
      8 C          -7.4232  -18.2515   21.8264 C.3     1  UNL1        0.0946
      9 C          -5.9522  -18.5275   21.9254 C.3     1  UNL1        0.1131
     10 C          -9.6047  -17.5389   23.0444 C.ar    1  UNL1        0.0490
     11 C          -9.8964  -18.6384   24.0221 C.ar    1  UNL1        0.0153
     12 C         -11.3118  -18.9265   24.4265 C.ar    1  UNL1        0.0124
     13 C         -12.4356  -18.1152   23.8531 C.ar    1  UNL1        0.0791
     14 C         -12.1440  -17.0157   22.8753 C.ar    1  UNL1        0.0685
     15 CL        -13.2677  -16.2043   22.3020 Cl      1  UNL1       -0.0815
     16 C         -10.7285  -16.7275   22.4709 C.ar    1  UNL1        0.0266
     17 C         -13.8510  -18.4033   24.2575 C.1     1  UNL1        0.1013
     18 N         -15.2665  -18.6914   24.6619 N.1     1  UNL1       -0.1908
     19 C          -7.5399  -15.9621   23.0491 C.3     1  UNL1        0.1177
     20 C          -7.1999  -15.7178   24.4895 C.ar    1  UNL1        0.0015
     21 C          -8.2944  -15.5047   25.4928 C.ar    1  UNL1       -0.0027
     22 C          -7.9543  -15.2604   26.9331 C.ar    1  UNL1       -0.0003
     23 C          -6.5198  -15.2291   27.3702 C.ar    1  UNL1       -0.0001
     24 C          -5.4252  -15.4422   26.3669 C.ar    1  UNL1        0.0036
     25 C          -5.7652  -15.6865   24.9265 C.ar    1  UNL1        0.0691
     26 C          -4.6708  -15.8995   23.9232 C.3     1  UNL1        0.4183
     27 F          -3.5763  -16.1126   22.9199 F       1  UNL1       -0.1659
     28 F          -4.9786  -14.5682   23.3047 F       1  UNL1       -0.1659
     29 F          -4.3629  -17.2309   24.5418 F       1  UNL1       -0.1659
@<TRIPOS>BOND
     1     2     3    1
     2     3     4    2
     3     3     5   am
     4     5     6    1
     5     6     7    1
     6     7     8    1
     7     8     1    1
     8     1    19    1
     9    19    20    1
    10    20    21   ar
    11    21    22   ar
    12    22    23   ar
    13    23    24   ar
    14    24    25   ar
    15    25    26    1
    16    26    27    1
    17    26    28    1
    18    26    29    1
    19     1    10    1
    20    10    11   ar
    21    11    12   ar
    22    12    13   ar
    23    13    17    1
    24    17    18    3
    25    13    14   ar
    26    14    15    1
    27    14    16   ar
    28     8     9    1
    29     9     5    1
    30    25    20   ar
    31    16    10   ar
@<TRIPOS>MOLECULE
*****
 29 31 0 0 0
SMALL
GASTEIGER

@<TRIPOS>ATOM
      1 N          -7.4678  -18.2315   22.3351 N.pl3   1  UNL1       -0.3035
      2 C          -8.3747  -16.9029   27.8882 C.3     1  UNL1        0.0948
      3 C          -8.4445  -15.7726   26.9046 C.2     1  UNL1        0.2262
      4 O          -8.7380  -14.3809   27.3811 O.2     1  UNL1       -0.2749
      5 N          -8.2209  -16.0339   25.4446 N.am    1  UNL1       -0.2778
      6 C          -8.2592  -15.0095   24.3496 C.3     1  UNL1        0.0952
      7 C          -7.9817  -15.7080   23.0514 C.3     1  UNL1        0.0430
      8 C          -7.7720  -17.1642   23.3442 C.3     1  UNL1        0.0946
      9 C          -7.9199  -17.3656   24.8233 C.3     1  UNL1        0.1131
     10 C          -6.0675  -18.4055   21.8264 C.ar    1  UNL1        0.0490
     11 C          -5.8321  -18.9566   20.4514 C.ar    1  UNL1        0.0153
     12 C          -4.4317  -19.1306   19.9427 C.ar    1  UNL1        0.0124
     13 C          -3.2668  -18.7535   20.8091 C.ar    1  UNL1        0.0791
     14 C          -3.5022  -18.2023   22.1842 C.ar    1  UNL1        0.0685
     15 CL         -2.3372  -17.8251   23.0505 Cl      1  UNL1       -0.0815
     16 C          -4.9025  -18.0283   22.6929 C.ar    1  UNL1        0.0266
     17 C          -1.8664  -18.9275   20.3004 C.1     1  UNL1        0.1013
     18 N          -0.4661  -19.1015   19.7917 N.1     1  UNL1       -0.1908
     19 C          -8.5640  -19.1248   21.8346 C.3     1  UNL1        0.1177
     20 C          -9.9490  -18.5800   21.6478 C.ar    1  UNL1        0.0015
     21 C         -10.2991  -17.8350   20.3939 C.ar    1  UNL1       -0.0027
     22 C         -11.6841  -17.2902   20.2071 C.ar    1  UNL1       -0.0003
     23 C         -12.7190  -17.4903   21.2742 C.ar    1  UNL1       -0.0001
     24 C         -12.3689  -18.2353   22.5283 C.ar    1  UNL1        0.0036
     25 C         -10.9839  -18.7801   22.7151 C.ar    1  UNL1        0.0691
     26 C         -10.6338  -19.5250   23.9691 C.3     1  UNL1        0.4183
     27 F         -10.2837  -20.2700   25.2230 F       1  UNL1       -0.1659
     28 F         -10.7062  -18.2459   24.7491 F       1  UNL1       -0.1659
     29 F         -10.5614  -20.8042   23.1890 F       1  UNL1       -0.1659
@<TRIPOS>BOND
     1     2     3    1
     2     3     4    2
     3     3     5   am
     4     5     6    1
     5     6     7    1
     6     7     8    1
     7     8     1    1
     8     1    19    1
     9    19    20    1
    10    20    21   ar
    11    21    22   ar
    12    22    23   ar
    13    23    24   ar
    14    24    25   ar
    15    25    26    1
    16    26    27    1
    17    26    28    1
    18    26    29    1
    19     1    10    1
    20    10    11   ar
    21    11    12   ar
    22    12    13   ar
    23    13    17    1
    24    17    18    3
    25    13    14   ar
    26    14    15    1
    27    14    16   ar
    28     8     9    1
    29     9     5    1
    30    25    20   ar
    31    16    10   ar
@<TRIPOS>MOLECULE
*****
 29 31 0 0 0
SMALL
GASTEIGER

@<TRIPOS>ATOM
      1 N          -7.7350  -17.8403   22.2820 N.pl3   1  UNL1       -0.3035
      2 C          -8.4924  -16.9129   27.9381 C.3     1  UNL1        0.0948
      3 C          -8.4437  -15.7001   27.0567 C.2     1  UNL1        0.2262
      4 O          -8.5886  -14.3322   27.6548 O.2     1  UNL1       -0.2749
      5 N          -8.2501  -15.8552   25.5775 N.am    1  UNL1       -0.2778
      6 C          -8.1813  -14.7409   24.5756 C.3     1  UNL1        0.0952
      7 C          -7.9799  -15.3489   23.2192 C.3     1  UNL1        0.0430
      8 C          -7.9244  -16.8389   23.3828 C.3     1  UNL1        0.0946
      9 C          -8.0913  -17.1519   24.8402 C.3     1  UNL1        0.1131
     10 C          -6.3531  -18.1861   21.8122 C.ar    1  UNL1        0.0490
     11 C          -6.1570  -18.8441   20.4787 C.ar    1  UNL1        0.0153
     12 C          -4.7751  -19.1899   20.0089 C.ar    1  UNL1        0.0124
     13 C          -3.5892  -18.8777   20.8727 C.ar    1  UNL1        0.0791
     14 C          -3.7853  -18.2196   22.2064 C.ar    1  UNL1        0.0685
     15 CL         -2.5994  -17.9074   23.0702 Cl      1  UNL1       -0.0815
     16 C          -5.1672  -17.8738   22.6761 C.ar    1  UNL1        0.0266
     17 C          -2.2073  -19.2235   20.4030 C.1     1  UNL1        0.1013
     18 N          -0.8254  -19.5694   19.9332 N.1     1  UNL1       -0.1908
     19 C          -8.9276  -18.4957   21.6511 C.3     1  UNL1        0.1177
     20 C         -10.2708  -18.4049   22.3126 C.ar    1  UNL1        0.0015
     21 C         -10.5443  -19.1837   23.5650 C.ar    1  UNL1       -0.0027
     22 C         -11.8875  -19.0929   24.2265 C.ar    1  UNL1       -0.0003
     23 C         -12.9572  -18.2232   23.6355 C.ar    1  UNL1       -0.0001
     24 C         -12.6838  -17.4443   22.3830 C.ar    1  UNL1        0.0036
     25 C         -11.3406  -17.5352   21.7215 C.ar    1  UNL1        0.0691
     26 C         -11.0672  -16.7563   20.4691 C.3     1  UNL1        0.4183
     27 F         -10.7937  -15.9775   19.2167 F       1  UNL1       -0.1659
     28 F         -11.5196  -17.9244   19.6440 F       1  UNL1       -0.1659
     29 F         -10.6147  -15.5883   21.2942 F       1  UNL1       -0.1659
@<TRIPOS>BOND
     1     2     3    1
     2     3     4    2
     3     3     5   am
     4     5     6    1
     5     6     7    1
     6     7     8    1
     7     8     1    1
     8     1    19    1
     9    19    20    1
    10    20    21   ar
    11    21    22   ar
    12    22    23   ar
    13    23    24   ar
    14    24    25   ar
    15    25    26    1
    16    26    27    1
    17    26    28    1
    18    26    29    1
    19     1    10    1
    20    10    11   ar
    21    11    12   ar
    22    12    13   ar
    23    13    17    1
    24    17    18    3
    25    13    14   ar
    26    14    15    1
    27    14    16   ar
    28     8     9    1
    29     9     5    1
    30    25    20   ar
    31    16    10   ar
@<TRIPOS>MOLECULE
*****
 29 31 0 0 0
SMALL
GASTEIGER

@<TRIPOS>ATOM
      1 N          -7.6314  -18.2417   21.9430 N.pl3   1  UNL1       -0.3035
      2 C          -5.9043  -14.8349   26.2830 C.3     1  UNL1        0.0948
      3 C          -7.2920  -15.3965   26.3781 C.2     1  UNL1        0.2262
      4 O          -8.1559  -15.0650   27.5587 O.2     1  UNL1       -0.2749
      5 N          -7.8158  -16.2895   25.2927 N.am    1  UNL1       -0.2778
      6 C          -9.1754  -16.9218   25.2506 C.3     1  UNL1        0.0952
      7 C          -9.2718  -17.7301   23.9906 C.3     1  UNL1        0.0430
      8 C          -7.9718  -17.5973   23.2541 C.3     1  UNL1        0.0946
      9 C          -7.0720  -16.7069   24.0588 C.3     1  UNL1        0.1131
     10 C          -6.1963  -18.4141   21.5423 C.ar    1  UNL1        0.0490
     11 C          -5.8558  -18.9143   20.1698 C.ar    1  UNL1        0.0153
     12 C          -4.4206  -19.0867   19.7690 C.ar    1  UNL1        0.0124
     13 C          -3.3260  -18.7589   20.7407 C.ar    1  UNL1        0.0791
     14 C          -3.6665  -18.2587   22.1133 C.ar    1  UNL1        0.0685
     15 CL         -2.5719  -17.9309   23.0850 Cl      1  UNL1       -0.0815
     16 C          -5.1016  -18.0863   22.5141 C.ar    1  UNL1        0.0266
     17 C          -1.8908  -18.9313   20.3399 C.1     1  UNL1        0.1013
     18 N          -0.4557  -19.1037   19.9391 N.1     1  UNL1       -0.1908
     19 C          -8.7262  -18.7137   21.0328 C.3     1  UNL1        0.1177
     20 C         -10.0081  -17.9406   20.9377 C.ar    1  UNL1        0.0015
     21 C          -9.9988  -16.5341   20.4167 C.ar    1  UNL1       -0.0027
     22 C         -11.2807  -15.7609   20.3216 C.ar    1  UNL1       -0.0003
     23 C         -12.5719  -16.3943   20.7476 C.ar    1  UNL1       -0.0001
     24 C         -12.5813  -17.8009   21.2687 C.ar    1  UNL1        0.0036
     25 C         -11.2994  -18.5741   21.3638 C.ar    1  UNL1        0.0691
     26 C         -11.3087  -19.9806   21.8848 C.3     1  UNL1        0.4183
     27 F         -11.3180  -21.3871   22.4059 F       1  UNL1       -0.1659
     28 F         -10.9595  -20.4894   20.5177 F       1  UNL1       -0.1659
     29 F         -11.6579  -19.4718   23.2520 F       1  UNL1       -0.1659
@<TRIPOS>BOND
     1     2     3    1
     2     3     4    2
     3     3     5   am
     4     5     6    1
     5     6     7    1
     6     7     8    1
     7     8     1    1
     8     1    19    1
     9    19    20    1
    10    20    21   ar
    11    21    22   ar
    12    22    23   ar
    13    23    24   ar
    14    24    25   ar
    15    25    26    1
    16    26    27    1
    17    26    28    1
    18    26    29    1
    19     1    10    1
    20    10    11   ar
    21    11    12   ar
    22    12    13   ar
    23    13    17    1
    24    17    18    3
    25    13    14   ar
    26    14    15    1
    27    14    16   ar
    28     8     9    1
    29     9     5    1
    30    25    20   ar
    31    16    10   ar
