@<TRIPOS>MOLECULE
*****
 36 40 0 0 0
SMALL
GASTEIGER

@<TRIPOS>ATOM
      1 C           5.8356   -2.7514   31.4955 C.ar    1  UNL1        0.1640
      2 N           6.3699   -3.0046   30.1169 N.ar    1  UNL1       -0.2222
      3 C           7.2135   -4.2438   30.1671 C.ar    1  UNL1        0.1309
      4 C           7.9918   -4.9715   29.1113 C.ar    1  UNL1        0.0810
      5 C           8.7573   -6.2121   29.4653 C.ar    1  UNL1        0.0895
      6 CL          9.5356   -6.9399   28.4094 Cl      1  UNL1       -0.0793
      7 C           8.7444   -6.7248   30.8748 C.ar    1  UNL1        0.0863
      8 N           7.9662   -5.9970   31.9305 N.ar    1  UNL1       -0.3354
      9 C           7.2007   -4.7565   31.5767 C.ar    1  UNL1        0.1613
     10 N           6.3491   -3.8342   32.3977 N.ar    1  UNL1       -0.2081
     11 H           7.9578   -6.3336   32.8557 H       1  UNL1        0.1675
     12 C           3.1618    0.6578   32.7112 C.ar    1  UNL1        0.0479
     13 C           3.2265    0.2309   31.2747 C.ar    1  UNL1        0.0146
     14 C           4.1178   -0.9055   30.8695 C.ar    1  UNL1        0.0043
     15 C           4.9444   -1.6150   31.9007 C.ar    1  UNL1        0.0359
     16 C           4.8796   -1.1881   33.3372 C.ar    1  UNL1        0.0043
     17 C           3.9883   -0.0517   33.7424 C.ar    1  UNL1        0.0146
     18 C           2.4357    2.4333   34.4634 C.3     1  UNL1        0.1122
     19 N           2.2705    1.7942   33.1165 N.pl3   1  UNL1       -0.3041
     20 C           1.2141    2.2915   32.1748 C.3     1  UNL1        0.1122
     21 N           8.0047   -4.4589   27.7017 N.pl3   1  UNL1       -0.3027
     22 C           9.0453   -3.4669   27.2739 C.3     1  UNL1        0.1082
     23 C           9.0581   -2.9543   25.8642 C.3     1  UNL1        0.0942
     24 N           8.0303   -3.4337   24.8825 N.3     1  UNL1       -0.2620
     25 C           6.9896   -4.4256   25.3103 C.3     1  UNL1        0.0942
     26 C           6.9769   -4.9382   26.7200 C.3     1  UNL1        0.1082
     27 C           8.0431   -2.9210   23.4729 C.3     1  UNL1        0.1589
     28 C           7.2400   -3.6173   22.4143 C.2     1  UNL1        0.2439
     29 O           7.6321   -4.9913   21.9577 O.2     1  UNL1       -0.2732
     30 N           6.0449   -2.9395   21.8123 N.am    1  UNL1       -0.2630
     31 H           5.7876   -2.0377   22.1119 H       1  UNL1        0.1568
     32 C           5.2420   -3.6357   20.7538 C.ar    1  UNL1        0.1656
     33 N           4.1893   -4.6781   20.9887 N.ar    1  UNL1       -0.2224
     34 C           3.6473   -5.0985   19.6547 C.ar    1  UNL1        0.1079
     35 C           4.3652   -4.3159   18.5952 C.ar    1  UNL1        0.0588
     36 S           5.3507   -3.4118   19.2746 S.2     1  UNL1       -0.0508
@<TRIPOS>BOND
     1    18    19    1
     2    19    20    1
     3    19    12    1
     4    12    13   ar
     5    13    14   ar
     6    14    15   ar
     7    15     1    1
     8     1     2   ar
     9     2     3   ar
    10     3     4   ar
    11     4    21    1
    12    21    22    1
    13    22    23    1
    14    23    24    1
    15    24    27    1
    16    27    28    1
    17    28    29    2
    18    28    30   am
    19    30    32    1
    20    32    33   ar
    21    33    34   ar
    22    34    35   ar
    23    35    36   ar
    24    24    25    1
    25    25    26    1
    26     4     5   ar
    27     5     6    1
    28     5     7   ar
    29     7     8   ar
    30     8     9   ar
    31     9    10   ar
    32    15    16   ar
    33    16    17   ar
    34    17    12   ar
    35    10     1   ar
    36     9     3    1
    37    26    21    1
    38    36    32   ar
    39    30    31    1
    40     8    11    1
@<TRIPOS>MOLECULE
*****
 36 40 0 0 0
SMALL
GASTEIGER

@<TRIPOS>ATOM
      1 C           1.4666    0.5924   22.1291 C.ar    1  UNL1        0.1640
      2 N           1.2582    0.9400   23.5733 N.ar    1  UNL1       -0.2222
      3 C           0.2939    2.0870   23.6394 C.ar    1  UNL1        0.1309
      4 C          -0.2814    2.8492   24.7962 C.ar    1  UNL1        0.0810
      5 C          -1.2443    3.9726   24.5496 C.ar    1  UNL1        0.0895
      6 CL         -1.8196    4.7349   25.7064 Cl      1  UNL1       -0.0793
      7 C          -1.6318    4.3339   23.1463 C.ar    1  UNL1        0.0863
      8 N          -1.0566    3.5717   21.9896 N.ar    1  UNL1       -0.3354
      9 C          -0.0937    2.4483   22.2361 C.ar    1  UNL1        0.1613
     10 N           0.6311    1.5245   21.3026 N.ar    1  UNL1       -0.2081
     11 H          -1.3110    3.8088   21.0685 H       1  UNL1        0.1675
     12 C           4.1308   -2.6737   20.5525 C.ar    1  UNL1        0.0479
     13 C           4.2278   -2.2549   21.9896 C.ar    1  UNL1        0.0146
     14 C           3.3397   -1.1662   22.5151 C.ar    1  UNL1        0.0043
     15 C           2.3547   -0.4963   21.6035 C.ar    1  UNL1        0.0359
     16 C           2.2577   -0.9151   20.1664 C.ar    1  UNL1        0.0043
     17 C           3.1458   -2.0038   19.6410 C.ar    1  UNL1        0.0146
     18 C           4.4971   -4.7273   19.0040 C.3     1  UNL1        0.1122
     19 N           5.0189   -3.7623   20.0270 N.pl3   1  UNL1       -0.3041
     20 C           6.4286   -3.8859   20.5244 C.3     1  UNL1        0.1122
     21 N           0.1061    2.4879   26.1996 N.pl3   1  UNL1       -0.3027
     22 C          -0.6735    1.4484   26.9489 C.3     1  UNL1        0.1082
     23 C          -0.2859    1.0873   28.3523 C.3     1  UNL1        0.0942
     24 N           0.8813    1.7656   29.0061 N.3     1  UNL1       -0.2620
     25 C           1.6609    2.8051   28.2568 C.3     1  UNL1        0.0942
     26 C           1.2733    3.1663   26.8534 C.3     1  UNL1        0.1082
     27 C           1.2689    1.4045   30.4095 C.3     1  UNL1        0.1589
     28 C           2.3052    0.3475   30.6529 C.2     1  UNL1        0.2439
     29 O           2.5994   -0.6725   29.5933 O.2     1  UNL1       -0.2732
     30 N           3.0471    0.3107   31.9561 N.am    1  UNL1       -0.2630
     31 H           2.8540    0.9802   32.6516 H       1  UNL1        0.1568
     32 C           4.0833   -0.7462   32.1995 C.ar    1  UNL1        0.1656
     33 N           3.8420   -2.0917   32.8171 N.ar    1  UNL1       -0.2224
     34 C           5.1522   -2.8204   32.8674 C.ar    1  UNL1        0.1079
     35 C           6.2032   -1.9251   32.2808 C.ar    1  UNL1        0.0588
     36 S           5.5425   -0.6432   31.8680 S.2     1  UNL1       -0.0508
@<TRIPOS>BOND
     1    18    19    1
     2    19    20    1
     3    19    12    1
     4    12    13   ar
     5    13    14   ar
     6    14    15   ar
     7    15     1    1
     8     1     2   ar
     9     2     3   ar
    10     3     4   ar
    11     4    21    1
    12    21    22    1
    13    22    23    1
    14    23    24    1
    15    24    27    1
    16    27    28    1
    17    28    29    2
    18    28    30   am
    19    30    32    1
    20    32    33   ar
    21    33    34   ar
    22    34    35   ar
    23    35    36   ar
    24    24    25    1
    25    25    26    1
    26     4     5   ar
    27     5     6    1
    28     5     7   ar
    29     7     8   ar
    30     8     9   ar
    31     9    10   ar
    32    15    16   ar
    33    16    17   ar
    34    17    12   ar
    35    10     1   ar
    36     9     3    1
    37    26    21    1
    38    36    32   ar
    39    30    31    1
    40     8    11    1
@<TRIPOS>MOLECULE
*****
 36 40 0 0 0
SMALL
GASTEIGER

@<TRIPOS>ATOM
      1 C           1.7167    1.7843   31.5006 C.ar    1  UNL1        0.1640
      2 N           2.8764    0.9042   31.8617 N.ar    1  UNL1       -0.2222
      3 C           3.1626    1.0908   33.3223 C.ar    1  UNL1        0.1309
      4 C           4.1912    0.4828   34.2291 C.ar    1  UNL1        0.0810
      5 C           4.2370    0.8703   35.6775 C.ar    1  UNL1        0.0895
      6 CL          5.2656    0.2623   36.5844 Cl      1  UNL1       -0.0793
      7 C           3.2542    1.8656   36.2190 C.ar    1  UNL1        0.0863
      8 N           2.2256    2.4736   35.3122 N.ar    1  UNL1       -0.3354
      9 C           2.1798    2.0862   33.8638 C.ar    1  UNL1        0.1613
     10 N           1.2862    2.5148   32.7379 N.ar    1  UNL1       -0.2081
     11 H           1.5805    3.1269   35.6676 H       1  UNL1        0.1675
     12 C          -0.1442    2.1662   27.4212 C.ar    1  UNL1        0.0479
     13 C          -0.1291    0.8376   28.1172 C.ar    1  UNL1        0.0146
     14 C           0.4913    0.7103   29.4770 C.ar    1  UNL1        0.0043
     15 C           1.0964    1.9117   30.1408 C.ar    1  UNL1        0.0359
     16 C           1.0812    3.2403   29.4447 C.ar    1  UNL1        0.0043
     17 C           0.4609    3.3675   28.0849 C.ar    1  UNL1        0.0146
     18 C          -0.2139    1.5065   24.9093 C.3     1  UNL1        0.1122
     19 N          -0.7646    2.2935   26.0614 N.pl3   1  UNL1       -0.3041
     20 C          -1.9354    3.2078   25.8538 C.3     1  UNL1        0.1122
     21 N           5.1741   -0.5126   33.6876 N.pl3   1  UNL1       -0.3027
     22 C           4.7362   -1.9178   33.3983 C.3     1  UNL1        0.1082
     23 C           5.7192   -2.9131   32.8568 C.3     1  UNL1        0.0942
     24 N           7.1399   -2.5032   32.6047 N.3     1  UNL1       -0.2620
     25 C           7.5777   -1.0981   32.8941 C.3     1  UNL1        0.0942
     26 C           6.5948   -0.1028   33.4355 C.3     1  UNL1        0.1082
     27 C           8.1228   -3.4986   32.0633 C.3     1  UNL1        0.1589
     28 C           7.9900   -3.9930   30.6533 C.2     1  UNL1        0.2439
     29 O           8.3901   -3.1105   29.5082 O.2     1  UNL1       -0.2732
     30 N           7.4572   -5.3699   30.3883 N.am    1  UNL1       -0.2630
     31 H           7.1946   -5.9492   31.1398 H       1  UNL1        0.1568
     32 C           7.3244   -5.8642   28.9784 C.ar    1  UNL1        0.1656
     33 N           6.3016   -5.4126   27.9785 N.ar    1  UNL1       -0.2224
     34 C           6.5361   -6.1661   26.7028 C.ar    1  UNL1        0.1079
     35 C           7.7040   -7.0835   26.9144 C.ar    1  UNL1        0.0588
     36 S           8.1912   -6.8968   28.3208 S.2     1  UNL1       -0.0508
@<TRIPOS>BOND
     1    18    19    1
     2    19    20    1
     3    19    12    1
     4    12    13   ar
     5    13    14   ar
     6    14    15   ar
     7    15     1    1
     8     1     2   ar
     9     2     3   ar
    10     3     4   ar
    11     4    21    1
    12    21    22    1
    13    22    23    1
    14    23    24    1
    15    24    27    1
    16    27    28    1
    17    28    29    2
    18    28    30   am
    19    30    32    1
    20    32    33   ar
    21    33    34   ar
    22    34    35   ar
    23    35    36   ar
    24    24    25    1
    25    25    26    1
    26     4     5   ar
    27     5     6    1
    28     5     7   ar
    29     7     8   ar
    30     8     9   ar
    31     9    10   ar
    32    15    16   ar
    33    16    17   ar
    34    17    12   ar
    35    10     1   ar
    36     9     3    1
    37    26    21    1
    38    36    32   ar
    39    30    31    1
    40     8    11    1
@<TRIPOS>MOLECULE
*****
 36 40 0 0 0
SMALL
GASTEIGER

@<TRIPOS>ATOM
      1 C           1.2945    0.8069   22.6177 C.ar    1  UNL1        0.1640
      2 N           1.2756    0.9684   24.1089 N.ar    1  UNL1       -0.2222
      3 C           0.3623    2.1114   24.4397 C.ar    1  UNL1        0.1309
      4 C          -0.0430    2.7264   25.7464 C.ar    1  UNL1        0.0810
      5 C          -0.9939    3.8865   25.7663 C.ar    1  UNL1        0.0895
      6 CL         -1.3992    4.5015   27.0731 Cl      1  UNL1       -0.0793
      7 C          -1.5393    4.4314   24.4798 C.ar    1  UNL1        0.0863
      8 N          -1.1339    3.8164   23.1731 N.ar    1  UNL1       -0.3354
      9 C          -0.1831    2.6564   23.1530 C.ar    1  UNL1        0.1613
     10 N           0.3930    1.8502   22.0270 N.ar    1  UNL1       -0.2081
     11 H          -1.4920    4.1741   22.3286 H       1  UNL1        0.1675
     12 C           3.6435   -2.2675   20.3198 C.ar    1  UNL1        0.0479
     13 C           3.9641   -2.0018   21.7608 C.ar    1  UNL1        0.0146
     14 C           3.1811   -0.9770   22.5267 C.ar    1  UNL1        0.0043
     15 C           2.0775   -0.2179   21.8517 C.ar    1  UNL1        0.0359
     16 C           1.7568   -0.4836   20.4107 C.ar    1  UNL1        0.0043
     17 C           2.5398   -1.5084   19.6447 C.ar    1  UNL1        0.0146
     18 C           5.8441   -3.0082   19.1543 C.3     1  UNL1        0.1122
     19 N           4.4265   -3.2923   19.5538 N.pl3   1  UNL1       -0.3041
     20 C           3.7918   -4.6011   19.1874 C.3     1  UNL1        0.1122
     21 N           0.5024    2.1815   27.0331 N.pl3   1  UNL1       -0.3027
     22 C           1.7323    2.7866   27.6424 C.3     1  UNL1        0.1082
     23 C           2.2776    2.2417   28.9291 C.3     1  UNL1        0.0942
     24 N           1.5931    1.0917   29.6065 N.3     1  UNL1       -0.2620
     25 C           0.3633    0.4866   28.9972 C.3     1  UNL1        0.0942
     26 C          -0.1821    1.0315   27.7105 C.3     1  UNL1        0.1082
     27 C           2.1385    0.5467   30.8932 C.3     1  UNL1        0.1589
     28 C           2.4821    1.4792   32.0168 C.2     1  UNL1        0.2439
     29 O           3.8714    2.0325   32.1341 O.2     1  UNL1       -0.2732
     30 N           1.4364    1.8584   33.0232 N.am    1  UNL1       -0.2630
     31 H           0.5246    1.4952   32.9463 H       1  UNL1        0.1568
     32 C           1.7801    2.7908   34.1467 C.ar    1  UNL1        0.1656
     33 N           2.3408    2.3952   35.4805 N.ar    1  UNL1       -0.2224
     34 C           2.5307    3.6423   36.2920 C.ar    1  UNL1        0.1079
     35 C           2.0873    4.8089   35.4597 C.ar    1  UNL1        0.0588
     36 S           1.6233    4.2825   34.1338 S.2     1  UNL1       -0.0508
@<TRIPOS>BOND
     1    18    19    1
     2    19    20    1
     3    19    12    1
     4    12    13   ar
     5    13    14   ar
     6    14    15   ar
     7    15     1    1
     8     1     2   ar
     9     2     3   ar
    10     3     4   ar
    11     4    21    1
    12    21    22    1
    13    22    23    1
    14    23    24    1
    15    24    27    1
    16    27    28    1
    17    28    29    2
    18    28    30   am
    19    30    32    1
    20    32    33   ar
    21    33    34   ar
    22    34    35   ar
    23    35    36   ar
    24    24    25    1
    25    25    26    1
    26     4     5   ar
    27     5     6    1
    28     5     7   ar
    29     7     8   ar
    30     8     9   ar
    31     9    10   ar
    32    15    16   ar
    33    16    17   ar
    34    17    12   ar
    35    10     1   ar
    36     9     3    1
    37    26    21    1
    38    36    32   ar
    39    30    31    1
    40     8    11    1
@<TRIPOS>MOLECULE
*****
 36 40 0 0 0
SMALL
GASTEIGER

@<TRIPOS>ATOM
      1 C           3.2443    2.5516   35.6949 C.ar    1  UNL1        0.1640
      2 N           3.8232    1.4802   34.8192 N.ar    1  UNL1       -0.2222
      3 C           3.0137    1.4250   33.5577 C.ar    1  UNL1        0.1309
      4 C           3.1199    0.5641   32.3339 C.ar    1  UNL1        0.0810
      5 C           2.1467    0.7407   31.2061 C.ar    1  UNL1        0.0895
      6 CL          2.2529   -0.1202   29.9822 Cl      1  UNL1       -0.0793
      7 C           1.0675    1.7779   31.3021 C.ar    1  UNL1        0.0863
      8 N           0.9613    2.6387   32.5259 N.ar    1  UNL1       -0.3354
      9 C           1.9344    2.4622   33.6537 C.ar    1  UNL1        0.1613
     10 N           2.0769    3.1586   34.9746 N.ar    1  UNL1       -0.2081
     11 H           0.2529    3.3195   32.5889 H       1  UNL1        0.1675
     12 C           4.7458    3.7371   39.7681 C.ar    1  UNL1        0.0479
     13 C           3.7759    4.6199   39.0401 C.ar    1  UNL1        0.0146
     14 C           3.2754    4.2246   37.6824 C.ar    1  UNL1        0.0043
     15 C           3.7448    2.9467   37.0526 C.ar    1  UNL1        0.0359
     16 C           4.7147    2.0640   37.7806 C.ar    1  UNL1        0.0043
     17 C           5.2152    2.4592   39.1384 C.ar    1  UNL1        0.0146
     18 C           6.5421    3.5770   41.6382 C.3     1  UNL1        0.1122
     19 N           5.2463    4.1322   41.1258 N.pl3   1  UNL1       -0.3041
     20 C           4.4510    5.0825   41.9711 C.3     1  UNL1        0.1122
     21 N           4.1991   -0.4732   32.2378 N.pl3   1  UNL1       -0.3027
     22 C           4.0410   -1.7875   32.9431 C.3     1  UNL1        0.1082
     23 C           5.1203   -2.8248   32.8469 C.3     1  UNL1        0.0942
     24 N           6.3577   -2.5476   32.0456 N.3     1  UNL1       -0.2620
     25 C           6.5158   -1.2333   31.3403 C.3     1  UNL1        0.0942
     26 C           5.4365   -0.1960   31.4364 C.3     1  UNL1        0.1082
     27 C           7.4370   -3.5849   31.9494 C.3     1  UNL1        0.1589
     28 C           7.3434   -4.6714   30.9194 C.2     1  UNL1        0.2439
     29 O           6.7845   -6.0124   31.2924 O.2     1  UNL1       -0.2732
     30 N           7.8088   -4.4167   29.5163 N.am    1  UNL1       -0.2630
     31 H           8.1757   -3.5366   29.2714 H       1  UNL1        0.1568
     32 C           7.7153   -5.5032   28.4864 C.ar    1  UNL1        0.1656
     33 N           6.6735   -5.6129   27.4127 N.ar    1  UNL1       -0.2224
     34 C           6.9613   -6.8482   26.6120 C.ar    1  UNL1        0.1079
     35 C           8.1811   -7.5020   27.1908 C.ar    1  UNL1        0.0588
     36 S           8.6470   -6.6707   28.3493 S.2     1  UNL1       -0.0508
@<TRIPOS>BOND
     1    18    19    1
     2    19    20    1
     3    19    12    1
     4    12    13   ar
     5    13    14   ar
     6    14    15   ar
     7    15     1    1
     8     1     2   ar
     9     2     3   ar
    10     3     4   ar
    11     4    21    1
    12    21    22    1
    13    22    23    1
    14    23    24    1
    15    24    27    1
    16    27    28    1
    17    28    29    2
    18    28    30   am
    19    30    32    1
    20    32    33   ar
    21    33    34   ar
    22    34    35   ar
    23    35    36   ar
    24    24    25    1
    25    25    26    1
    26     4     5   ar
    27     5     6    1
    28     5     7   ar
    29     7     8   ar
    30     8     9   ar
    31     9    10   ar
    32    15    16   ar
    33    16    17   ar
    34    17    12   ar
    35    10     1   ar
    36     9     3    1
    37    26    21    1
    38    36    32   ar
    39    30    31    1
    40     8    11    1
@<TRIPOS>MOLECULE
*****
 36 40 0 0 0
SMALL
GASTEIGER

@<TRIPOS>ATOM
      1 C           2.1727    0.2708   23.5095 C.ar    1  UNL1        0.1640
      2 N           2.4663    0.2207   24.9796 N.ar    1  UNL1       -0.2222
      3 C           1.7043    1.3297   25.6425 C.ar    1  UNL1        0.1309
      4 C           1.6078    1.7648   27.0747 C.ar    1  UNL1        0.0810
      5 C           0.7467    2.9355   27.4465 C.ar    1  UNL1        0.0895
      6 CL          0.6502    3.3707   28.8788 Cl      1  UNL1       -0.0793
      7 C          -0.0178    3.6709   26.3861 C.ar    1  UNL1        0.0863
      8 N           0.0787    3.2358   24.9539 N.ar    1  UNL1       -0.3354
      9 C           0.9397    2.0652   24.5821 C.ar    1  UNL1        0.1613
     10 N           1.2293    1.4107   23.2638 N.ar    1  UNL1       -0.2081
     11 H          -0.4231    3.7185   24.2579 H       1  UNL1        0.1675
     12 C           3.8312   -2.5105   20.3847 C.ar    1  UNL1        0.0479
     13 C           2.7685   -1.5177   20.0171 C.ar    1  UNL1        0.0146
     14 C           2.2158   -0.5906   21.0588 C.ar    1  UNL1        0.0043
     15 C           2.7256   -0.6563   22.4679 C.ar    1  UNL1        0.0359
     16 C           3.7882   -1.6491   22.8355 C.ar    1  UNL1        0.0043
     17 C           4.3410   -2.5762   21.7938 C.ar    1  UNL1        0.0146
     18 C           3.9258   -4.8648   19.2903 C.3     1  UNL1        0.1122
     19 N           4.3840   -3.4375   19.3431 N.pl3   1  UNL1       -0.3041
     20 C           5.3950   -2.9373   18.3543 C.3     1  UNL1        0.1122
     21 N           2.3724    1.0294   28.1353 N.pl3   1  UNL1       -0.3027
     22 C           1.6521    0.1144   29.0808 C.3     1  UNL1        0.1082
     23 C           2.4167   -0.6210   30.1413 C.3     1  UNL1        0.0942
     24 N           3.9015   -0.4414   30.2561 N.3     1  UNL1       -0.2620
     25 C           4.6217    0.4735   29.3106 C.3     1  UNL1        0.0942
     26 C           3.8571    1.2089   28.2501 C.3     1  UNL1        0.1082
     27 C           4.6661   -1.1768   31.3166 C.3     1  UNL1        0.1589
     28 C           4.3829   -0.9115   32.7656 C.2     1  UNL1        0.2439
     29 O           3.8033   -1.9941   33.6270 O.2     1  UNL1       -0.2732
     30 N           4.6795    0.4364   33.3532 N.am    1  UNL1       -0.2630
     31 H           5.0600    1.1470   32.7879 H       1  UNL1        0.1568
     32 C           4.3964    0.7017   34.8021 C.ar    1  UNL1        0.1656
     33 N           4.9637   -0.0576   35.9647 N.ar    1  UNL1       -0.2224
     34 C           4.4142    0.5441   37.2240 C.ar    1  UNL1        0.1079
     35 C           3.5072    1.6754   36.8398 C.ar    1  UNL1        0.0588
     36 S           3.4961    1.7727   35.3429 S.2     1  UNL1       -0.0508
@<TRIPOS>BOND
     1    18    19    1
     2    19    20    1
     3    19    12    1
     4    12    13   ar
     5    13    14   ar
     6    14    15   ar
     7    15     1    1
     8     1     2   ar
     9     2     3   ar
    10     3     4   ar
    11     4    21    1
    12    21    22    1
    13    22    23    1
    14    23    24    1
    15    24    27    1
    16    27    28    1
    17    28    29    2
    18    28    30   am
    19    30    32    1
    20    32    33   ar
    21    33    34   ar
    22    34    35   ar
    23    35    36   ar
    24    24    25    1
    25    25    26    1
    26     4     5   ar
    27     5     6    1
    28     5     7   ar
    29     7     8   ar
    30     8     9   ar
    31     9    10   ar
    32    15    16   ar
    33    16    17   ar
    34    17    12   ar
    35    10     1   ar
    36     9     3    1
    37    26    21    1
    38    36    32   ar
    39    30    31    1
    40     8    11    1
@<TRIPOS>MOLECULE
*****
 36 40 0 0 0
SMALL
GASTEIGER

@<TRIPOS>ATOM
      1 C           0.8248    1.5970   24.6111 C.ar    1  UNL1        0.1640
      2 N           1.5402    1.0009   23.4351 N.ar    1  UNL1       -0.2222
      3 C           0.9026    1.5335   22.1862 C.ar    1  UNL1        0.1309
      4 C           1.1889    1.2955   20.7332 C.ar    1  UNL1        0.0810
      5 C           0.3657    1.9828   19.6842 C.ar    1  UNL1        0.0895
      6 CL          0.6520    1.7448   18.2311 Cl      1  UNL1       -0.0793
      7 C          -0.7436    2.9079   20.0884 C.ar    1  UNL1        0.0863
      8 N          -1.0299    3.1459   21.5414 N.ar    1  UNL1       -0.3354
      9 C          -0.2068    2.4587   22.5903 C.ar    1  UNL1        0.1613
     10 N          -0.2549    2.4979   24.0891 N.ar    1  UNL1       -0.2081
     11 H          -1.7580    3.7531   21.8067 H       1  UNL1        0.1675
     12 C           1.7547    0.8188   28.9448 C.ar    1  UNL1        0.0479
     13 C           2.8478    0.7531   27.9196 C.ar    1  UNL1        0.0146
     14 C           2.5378    1.0124   26.4751 C.ar    1  UNL1        0.0043
     15 C           1.1348    1.3376   26.0557 C.ar    1  UNL1        0.0359
     16 C           0.0417    1.4034   27.0808 C.ar    1  UNL1        0.0043
     17 C           0.3518    1.1440   28.5254 C.ar    1  UNL1        0.0146
     18 C           2.7729   -0.7006   30.7898 C.3     1  UNL1        0.1122
     19 N           2.0647    0.5595   30.3893 N.pl3   1  UNL1       -0.3041
     20 C           1.6663    1.5602   31.4332 C.3     1  UNL1        0.1122
     21 N           2.2983    0.3704   20.3289 N.pl3   1  UNL1       -0.3027
     22 C           2.0269   -1.0944   20.1534 C.3     1  UNL1        0.1082
     23 C           3.1363   -2.0194   19.7491 C.3     1  UNL1        0.0942
     24 N           4.5170   -1.4798   19.5205 N.3     1  UNL1       -0.2620
     25 C           4.7884   -0.0150   19.6961 C.3     1  UNL1        0.0942
     26 C           3.6790    0.9100   20.1003 C.3     1  UNL1        0.1082
     27 C           5.6265   -2.4049   19.1163 C.3     1  UNL1        0.1589
     28 C           6.0900   -3.4765   20.0580 C.2     1  UNL1        0.2439
     29 O           5.3501   -4.7791   20.1346 O.2     1  UNL1       -0.2732
     30 N           7.2935   -3.2456   20.9230 N.am    1  UNL1       -0.2630
     31 H           7.7792   -2.3907   20.8727 H       1  UNL1        0.1568
     32 C           7.7570   -4.3173   21.8646 C.ar    1  UNL1        0.1656
     33 N           7.0826   -4.7203   23.1424 N.ar    1  UNL1       -0.2224
     34 C           7.8849   -5.8262   23.7614 C.ar    1  UNL1        0.1079
     35 C           9.0554   -6.1067   22.8661 C.ar    1  UNL1        0.0588
     36 S           8.9763   -5.1741   21.6938 S.2     1  UNL1       -0.0508
@<TRIPOS>BOND
     1    18    19    1
     2    19    20    1
     3    19    12    1
     4    12    13   ar
     5    13    14   ar
     6    14    15   ar
     7    15     1    1
     8     1     2   ar
     9     2     3   ar
    10     3     4   ar
    11     4    21    1
    12    21    22    1
    13    22    23    1
    14    23    24    1
    15    24    27    1
    16    27    28    1
    17    28    29    2
    18    28    30   am
    19    30    32    1
    20    32    33   ar
    21    33    34   ar
    22    34    35   ar
    23    35    36   ar
    24    24    25    1
    25    25    26    1
    26     4     5   ar
    27     5     6    1
    28     5     7   ar
    29     7     8   ar
    30     8     9   ar
    31     9    10   ar
    32    15    16   ar
    33    16    17   ar
    34    17    12   ar
    35    10     1   ar
    36     9     3    1
    37    26    21    1
    38    36    32   ar
    39    30    31    1
    40     8    11    1
@<TRIPOS>MOLECULE
*****
 36 40 0 0 0
SMALL
GASTEIGER

@<TRIPOS>ATOM
      1 C           2.2361    0.2966   24.1813 C.ar    1  UNL1        0.1640
      2 N           2.5953    0.2188   25.6355 N.ar    1  UNL1       -0.2222
      3 C           1.8071    1.2666   26.3642 C.ar    1  UNL1        0.1309
      4 C           1.7507    1.6539   27.8122 C.ar    1  UNL1        0.0810
      5 C           0.8480    2.7666   28.2563 C.ar    1  UNL1        0.0895
      6 CL          0.7915    3.1540   29.7044 Cl      1  UNL1       -0.0793
      7 C           0.0018    3.4919   27.2524 C.ar    1  UNL1        0.0863
      8 N           0.0582    3.1045   25.8044 N.ar    1  UNL1       -0.3354
      9 C           0.9609    1.9919   25.3603 C.ar    1  UNL1        0.1613
     10 N           1.2260    1.3924   24.0111 N.ar    1  UNL1       -0.2081
     11 H          -0.4972    3.5806   25.1455 H       1  UNL1        0.1675
     12 C           3.8973   -2.3015   20.9039 C.ar    1  UNL1        0.0479
     13 C           2.9021   -1.2276   20.5779 C.ar    1  UNL1        0.0146
     14 C           2.3484   -0.3616   21.6704 C.ar    1  UNL1        0.0043
     15 C           2.7899   -0.5695   23.0888 C.ar    1  UNL1        0.0359
     16 C           3.7851   -1.6434   23.4148 C.ar    1  UNL1        0.0043
     17 C           4.3388   -2.5094   22.3223 C.ar    1  UNL1        0.0146
     18 C           5.8573   -2.9622   19.3318 C.3     1  UNL1        0.1122
     19 N           4.4510   -3.1675   19.8115 N.pl3   1  UNL1       -0.3041
     20 C           3.5985   -4.2389   19.1988 C.3     1  UNL1        0.1122
     21 N           2.5969    0.9287   28.8162 N.pl3   1  UNL1       -0.3027
     22 C           2.0087   -0.1892   29.6250 C.3     1  UNL1        0.1082
     23 C           2.8550   -0.9144   30.6290 C.3     1  UNL1        0.0942
     24 N           4.2894   -0.5216   30.8241 N.3     1  UNL1       -0.2620
     25 C           4.8777    0.5963   30.0153 C.3     1  UNL1        0.0942
     26 C           4.0314    1.3215   29.0114 C.3     1  UNL1        0.1082
     27 C           5.1357   -1.2468   31.8281 C.3     1  UNL1        0.1589
     28 C           5.9567   -2.4282   31.4033 C.2     1  UNL1        0.2439
     29 O           6.5668   -3.3281   32.4367 O.2     1  UNL1       -0.2732
     30 N           6.1674   -2.7098   29.9451 N.am    1  UNL1       -0.2630
     31 H           5.7670   -2.1192   29.2668 H       1  UNL1        0.1568
     32 C           6.9883   -3.8911   29.5204 C.ar    1  UNL1        0.1656
     33 N           6.5373   -5.3217   29.5143 N.ar    1  UNL1       -0.2224
     34 C           7.6746   -6.1642   29.0174 C.ar    1  UNL1        0.1079
     35 C           8.8285   -5.2542   28.7164 C.ar    1  UNL1        0.0588
     36 S           8.4043   -3.8494   29.0273 S.2     1  UNL1       -0.0508
@<TRIPOS>BOND
     1    18    19    1
     2    19    20    1
     3    19    12    1
     4    12    13   ar
     5    13    14   ar
     6    14    15   ar
     7    15     1    1
     8     1     2   ar
     9     2     3   ar
    10     3     4   ar
    11     4    21    1
    12    21    22    1
    13    22    23    1
    14    23    24    1
    15    24    27    1
    16    27    28    1
    17    28    29    2
    18    28    30   am
    19    30    32    1
    20    32    33   ar
    21    33    34   ar
    22    34    35   ar
    23    35    36   ar
    24    24    25    1
    25    25    26    1
    26     4     5   ar
    27     5     6    1
    28     5     7   ar
    29     7     8   ar
    30     8     9   ar
    31     9    10   ar
    32    15    16   ar
    33    16    17   ar
    34    17    12   ar
    35    10     1   ar
    36     9     3    1
    37    26    21    1
    38    36    32   ar
    39    30    31    1
    40     8    11    1
@<TRIPOS>MOLECULE
*****
 36 40 0 0 0
SMALL
GASTEIGER

@<TRIPOS>ATOM
      1 C           3.8093   -1.1551   24.9123 C.ar    1  UNL1        0.1640
      2 N           2.8018   -0.1621   25.4110 N.ar    1  UNL1       -0.2222
      3 C           3.0678    0.0762   26.8679 C.ar    1  UNL1        0.1309
      4 C           2.3943    0.9541   27.8806 C.ar    1  UNL1        0.0810
      5 C           2.8927    0.9861   29.2951 C.ar    1  UNL1        0.0895
      6 CL          2.2191    1.8640   30.3079 Cl      1  UNL1       -0.0793
      7 C           4.0645    0.1404   29.6967 C.ar    1  UNL1        0.0863
      8 N           4.7381   -0.7374   28.6840 N.ar    1  UNL1       -0.3354
      9 C           4.2397   -0.7695   27.2695 C.ar    1  UNL1        0.1613
     10 N           4.6980   -1.5306   26.0609 N.ar    1  UNL1       -0.2081
     11 H           5.5072   -1.2925   28.9476 H       1  UNL1        0.1675
     12 C           4.1128   -2.7313   20.7083 C.ar    1  UNL1        0.0479
     13 C           4.7704   -3.4706   21.8357 C.ar    1  UNL1        0.0146
     14 C           4.6692   -2.9451   23.2370 C.ar    1  UNL1        0.0043
     15 C           3.9105   -1.6805   23.5109 C.ar    1  UNL1        0.0359
     16 C           3.2529   -0.9412   22.3835 C.ar    1  UNL1        0.0043
     17 C           3.3541   -1.4667   20.9822 C.ar    1  UNL1        0.0146
     18 C           4.6338   -2.3446   18.1926 C.3     1  UNL1        0.1122
     19 N           4.2139   -3.2567   19.3069 N.pl3   1  UNL1       -0.3041
     20 C           3.8952   -4.6941   19.0200 C.3     1  UNL1        0.1122
     21 N           1.2223    1.7999   27.4790 N.pl3   1  UNL1       -0.3027
     22 C          -0.1708    1.2572   27.6002 C.3     1  UNL1        0.1082
     23 C          -1.3426    2.1031   27.1986 C.3     1  UNL1        0.0942
     24 N          -1.1213    3.4915   26.6759 N.3     1  UNL1       -0.2620
     25 C           0.2718    4.0342   26.5547 C.3     1  UNL1        0.0942
     26 C           1.4436    3.1883   26.9563 C.3     1  UNL1        0.1082
     27 C          -2.2932    4.3374   26.2743 C.3     1  UNL1        0.1589
     28 C          -2.7094    4.4075   24.8348 C.2     1  UNL1        0.2439
     29 O          -2.1826    5.5015   23.9542 O.2     1  UNL1       -0.2732
     30 N          -3.6523    3.3834   24.2760 N.am    1  UNL1       -0.2630
     31 H          -3.9980    2.6653   24.8539 H       1  UNL1        0.1568
     32 C          -4.0684    3.4535   22.8366 C.ar    1  UNL1        0.1656
     33 N          -3.2056    3.1308   21.6528 N.ar    1  UNL1       -0.2224
     34 C          -4.0242    3.3365   20.4127 C.ar    1  UNL1        0.1079
     35 C          -5.3930    3.7864   20.8302 C.ar    1  UNL1        0.0588
     36 S          -5.4202    3.8587   22.3283 S.2     1  UNL1       -0.0508
@<TRIPOS>BOND
     1    18    19    1
     2    19    20    1
     3    19    12    1
     4    12    13   ar
     5    13    14   ar
     6    14    15   ar
     7    15     1    1
     8     1     2   ar
     9     2     3   ar
    10     3     4   ar
    11     4    21    1
    12    21    22    1
    13    22    23    1
    14    23    24    1
    15    24    27    1
    16    27    28    1
    17    28    29    2
    18    28    30   am
    19    30    32    1
    20    32    33   ar
    21    33    34   ar
    22    34    35   ar
    23    35    36   ar
    24    24    25    1
    25    25    26    1
    26     4     5   ar
    27     5     6    1
    28     5     7   ar
    29     7     8   ar
    30     8     9   ar
    31     9    10   ar
    32    15    16   ar
    33    16    17   ar
    34    17    12   ar
    35    10     1   ar
    36     9     3    1
    37    26    21    1
    38    36    32   ar
    39    30    31    1
    40     8    11    1
