@<TRIPOS>MOLECULE
*****
 28 31 0 0 0
SMALL
GASTEIGER

@<TRIPOS>ATOM
      1 C          -7.4864  -17.8954   22.1727 C.2     1  UNL1        0.0365
      2 C          -8.8852  -18.1000   21.6710 C.2     1  UNL1        0.0160
      3 C         -10.0180  -17.3189   22.2683 C.3     1  UNL1        0.1543
      4 C         -10.2839  -18.3045   21.1693 C.3     1  UNL1        0.0614
      5 C         -11.6826  -18.5090   20.6676 C.3     1  UNL1        0.0725
      6 N         -12.8154  -17.7279   21.2650 N.3     1  UNL1       -0.2972
      7 C         -12.5494  -16.7423   22.3640 C.3     1  UNL1        0.0725
      8 C         -11.1507  -16.5378   22.8656 C.3     1  UNL1        0.0614
      9 O          -9.7519  -16.3333   23.3674 O.3     1  UNL1       -0.4785
     10 C          -8.3532  -16.1288   23.8690 C.ar    1  UNL1        0.1387
     11 C          -8.0872  -15.1432   24.9681 C.ar    1  UNL1        0.0369
     12 C          -6.6885  -14.9386   25.4698 C.ar    1  UNL1        0.0031
     13 C          -5.5557  -15.7197   24.8724 C.ar    1  UNL1        0.0002
     14 C          -5.8217  -16.7053   23.7734 C.ar    1  UNL1        0.0031
     15 C          -7.2205  -16.9098   23.2717 C.ar    1  UNL1        0.0367
     16 H         -13.4798  -18.4082   21.6340 H       1  UNL1        0.1233
     17 C          -4.1233  -19.3718   20.9176 C.ar    1  UNL1        0.1986
     18 C          -5.0978  -20.3851   20.3947 C.ar    1  UNL1        0.0453
     19 C          -6.4762  -19.9554   20.8012 C.ar    1  UNL1        0.0408
     20 C          -6.3537  -18.6765   21.5754 C.ar    1  UNL1        0.1454
     21 O          -4.8995  -18.3158   21.6473 O.2     1  UNL1       -0.4489
     22 N          -1.9644  -18.4365   19.8158 N.am    1  UNL1       -0.2736
     23 C          -2.6341  -19.4080   20.7418 C.2     1  UNL1        0.2837
     24 O          -1.8147  -20.4159   21.4920 O.2     1  UNL1       -0.2666
     25 C           0.3581  -17.2969   20.0562 C.3     1  UNL1        0.0233
     26 C          -0.4752  -18.4727   19.6400 C.3     1  UNL1        0.0939
     27 C          -2.7838  -17.4286   19.0657 C.3     1  UNL1        0.0939
     28 C          -2.4711  -17.1267   17.6300 C.3     1  UNL1        0.0233
@<TRIPOS>BOND
     1    25    26    1
     2    26    22    1
     3    22    27    1
     4    27    28    1
     5    22    23   am
     6    23    24    2
     7    23    17    1
     8    17    18   ar
     9    18    19   ar
    10    19    20   ar
    11    20     1    1
    12     1     2    2
    13     2     3    1
    14     3     4    1
    15     4     5    1
    16     5     6    1
    17     6     7    1
    18     7     8    1
    19     3     9    1
    20     9    10    1
    21    10    11   ar
    22    11    12   ar
    23    12    13   ar
    24    13    14   ar
    25    14    15   ar
    26    20    21   ar
    27    21    17   ar
    28    15     1    1
    29     8     3    1
    30    15    10   ar
    31     6    16    1
@<TRIPOS>MOLECULE
*****
 28 31 0 0 0
SMALL
GASTEIGER

@<TRIPOS>ATOM
      1 C          -6.8594  -17.9820   22.3240 C.2     1  UNL1        0.0365
      2 C          -5.7229  -18.7376   21.7015 C.2     1  UNL1        0.0160
      3 C          -4.3143  -18.4724   22.1439 C.3     1  UNL1        0.1543
      4 C          -4.5864  -19.4931   21.0790 C.3     1  UNL1        0.0614
      5 C          -3.4499  -20.2487   20.4566 C.3     1  UNL1        0.0725
      6 N          -2.0414  -19.9835   20.8990 N.3     1  UNL1       -0.2972
      7 C          -1.7693  -18.9627   21.9639 C.3     1  UNL1        0.0725
      8 C          -2.9058  -18.2071   22.5863 C.3     1  UNL1        0.0614
      9 O          -4.0424  -17.4515   23.2088 O.3     1  UNL1       -0.4785
     10 C          -5.1789  -16.6960   23.8313 C.ar    1  UNL1        0.1387
     11 C          -4.9069  -15.6751   24.8962 C.ar    1  UNL1        0.0369
     12 C          -6.0434  -14.9196   25.5186 C.ar    1  UNL1        0.0031
     13 C          -7.4519  -15.1848   25.0762 C.ar    1  UNL1        0.0002
     14 C          -7.7239  -16.2056   24.0113 C.ar    1  UNL1        0.0031
     15 C          -6.5874  -16.9612   23.3888 C.ar    1  UNL1        0.0367
     16 H          -1.5229  -19.6905   20.0709 H       1  UNL1        0.1233
     17 C         -10.6933  -18.3065   21.8126 C.ar    1  UNL1        0.1986
     18 C         -10.1776  -19.0042   20.5889 C.ar    1  UNL1        0.0453
     19 C          -8.6786  -18.9675   20.6316 C.ar    1  UNL1        0.0408
     20 C          -8.2679  -18.2472   21.8816 C.ar    1  UNL1        0.1454
     21 O          -9.5131  -17.8387   22.6114 O.2     1  UNL1       -0.4489
     22 N         -12.5840  -18.2887   23.5942 N.am    1  UNL1       -0.2736
     23 C         -12.1359  -18.1110   22.1739 C.2     1  UNL1        0.2837
     24 O         -13.1303  -17.7378   21.1147 O.2     1  UNL1       -0.2666
     25 C         -14.5022  -18.4106   25.3423 C.3     1  UNL1        0.0233
     26 C         -14.0267  -18.0932   23.9556 C.3     1  UNL1        0.0939
     27 C         -11.5896  -18.6620   24.6533 C.3     1  UNL1        0.0939
     28 C         -10.8609  -19.9704   24.5702 C.3     1  UNL1        0.0233
@<TRIPOS>BOND
     1    25    26    1
     2    26    22    1
     3    22    27    1
     4    27    28    1
     5    22    23   am
     6    23    24    2
     7    23    17    1
     8    17    18   ar
     9    18    19   ar
    10    19    20   ar
    11    20     1    1
    12     1     2    2
    13     2     3    1
    14     3     4    1
    15     4     5    1
    16     5     6    1
    17     6     7    1
    18     7     8    1
    19     3     9    1
    20     9    10    1
    21    10    11   ar
    22    11    12   ar
    23    12    13   ar
    24    13    14   ar
    25    14    15   ar
    26    20    21   ar
    27    21    17   ar
    28    15     1    1
    29     8     3    1
    30    15    10   ar
    31     6    16    1
@<TRIPOS>MOLECULE
*****
 28 31 0 0 0
SMALL
GASTEIGER

@<TRIPOS>ATOM
      1 C          -7.2999  -18.1861   22.0406 C.2     1  UNL1        0.0365
      2 C          -7.0475  -17.3036   23.2271 C.2     1  UNL1        0.0160
      3 C          -8.1922  -16.6050   23.8992 C.3     1  UNL1        0.1543
      4 C          -6.7953  -16.4211   24.4135 C.3     1  UNL1        0.0614
      5 C          -6.5430  -15.5387   25.5999 C.3     1  UNL1        0.0725
      6 N          -7.6877  -14.8402   26.2720 N.3     1  UNL1       -0.2972
      7 C          -9.0847  -15.0240   25.7576 C.3     1  UNL1        0.0725
      8 C          -9.3370  -15.9065   24.5712 C.3     1  UNL1        0.0614
      9 O          -9.5893  -16.7890   23.3847 O.3     1  UNL1       -0.4785
     10 C          -9.8415  -17.6714   22.1983 C.ar    1  UNL1        0.1387
     11 C         -11.2386  -17.8553   21.6839 C.ar    1  UNL1        0.0369
     12 C         -11.4909  -18.7377   20.4975 C.ar    1  UNL1        0.0031
     13 C         -10.3461  -19.4363   19.8255 C.ar    1  UNL1        0.0002
     14 C          -8.9492  -19.2524   20.3398 C.ar    1  UNL1        0.0031
     15 C          -8.6968  -18.3699   21.5263 C.ar    1  UNL1        0.0367
     16 H          -7.4879  -13.8408   26.2307 H       1  UNL1        0.1233
     17 C          -3.9130  -19.4832   20.6578 C.ar    1  UNL1        0.1986
     18 C          -4.8742  -20.4359   20.0109 C.ar    1  UNL1        0.0453
     19 C          -6.2599  -20.0659   20.4502 C.ar    1  UNL1        0.0408
     20 C          -6.1552  -18.8846   21.3686 C.ar    1  UNL1        0.1454
     21 O          -4.7047  -18.5245   21.4969 O.2     1  UNL1       -0.4489
     22 N          -1.7400  -18.3489   19.7971 N.am    1  UNL1       -0.2736
     23 C          -2.4220  -19.4884   20.4944 C.2     1  UNL1        0.2837
     24 O          -1.6130  -20.6332   21.0283 O.2     1  UNL1       -0.2666
     25 C           0.5579  -17.1685   20.0736 C.3     1  UNL1        0.0233
     26 C          -0.2489  -18.3540   19.6336 C.3     1  UNL1        0.0939
     27 C          -2.5490  -17.2042   19.2632 C.3     1  UNL1        0.0939
     28 C          -2.7305  -17.0399   17.7833 C.3     1  UNL1        0.0233
@<TRIPOS>BOND
     1    25    26    1
     2    26    22    1
     3    22    27    1
     4    27    28    1
     5    22    23   am
     6    23    24    2
     7    23    17    1
     8    17    18   ar
     9    18    19   ar
    10    19    20   ar
    11    20     1    1
    12     1     2    2
    13     2     3    1
    14     3     4    1
    15     4     5    1
    16     5     6    1
    17     6     7    1
    18     7     8    1
    19     3     9    1
    20     9    10    1
    21    10    11   ar
    22    11    12   ar
    23    12    13   ar
    24    13    14   ar
    25    14    15   ar
    26    20    21   ar
    27    21    17   ar
    28    15     1    1
    29     8     3    1
    30    15    10   ar
    31     6    16    1
@<TRIPOS>MOLECULE
*****
 28 31 0 0 0
SMALL
GASTEIGER

@<TRIPOS>ATOM
      1 C           2.3666    0.1297   22.2234 C.2     1  UNL1        0.0365
      2 C           3.1882   -1.1250   22.1924 C.2     1  UNL1        0.0160
      3 C           3.4530   -1.8160   20.8876 C.3     1  UNL1        0.1543
      4 C           4.0097   -2.3796   22.1613 C.3     1  UNL1        0.0614
      5 C           4.8312   -3.6343   22.1302 C.3     1  UNL1        0.0725
      6 N           5.0960   -4.3252   20.8255 N.3     1  UNL1       -0.2972
      7 C           4.5393   -3.7616   19.5518 C.3     1  UNL1        0.0725
      8 C           3.7178   -2.5069   19.5829 C.3     1  UNL1        0.0614
      9 O           2.8963   -1.2523   19.6139 O.3     1  UNL1       -0.4785
     10 C           2.0748    0.0024   19.6450 C.ar    1  UNL1        0.1387
     11 C           1.5180    0.5661   18.3712 C.ar    1  UNL1        0.0369
     12 C           0.6965    1.8207   18.4023 C.ar    1  UNL1        0.0031
     13 C           0.4317    2.5117   19.7071 C.ar    1  UNL1        0.0002
     14 C           0.9884    1.9480   20.9808 C.ar    1  UNL1        0.0031
     15 C           1.8099    0.6933   20.9497 C.ar    1  UNL1        0.0367
     16 H           4.7280   -5.2724   20.9139 H       1  UNL1        0.1233
     17 C           1.0701    1.4776   25.6246 C.ar    1  UNL1        0.1986
     18 C           2.3185    2.2903   25.4476 C.ar    1  UNL1        0.0453
     19 C           2.9561    1.8842   24.1520 C.ar    1  UNL1        0.0408
     20 C           2.1018    0.8206   23.5282 C.ar    1  UNL1        0.1454
     21 O           0.9363    0.5694   24.4383 O.2     1  UNL1       -0.4489
     22 N           0.4415    0.8473   28.0653 N.am    1  UNL1       -0.2736
     23 C           0.1221    1.5590   26.7842 C.2     1  UNL1        0.2837
     24 O          -1.1453    2.3521   26.6625 O.2     1  UNL1       -0.2666
     25 C          -1.7038    0.0267   29.2795 C.3     1  UNL1        0.0233
     26 C          -0.5065    0.9286   29.2249 C.3     1  UNL1        0.0939
     27 C           1.7089    0.0543   28.1869 C.3     1  UNL1        0.0939
     28 C           2.1417   -0.4674   29.5251 C.3     1  UNL1        0.0233
@<TRIPOS>BOND
     1    25    26    1
     2    26    22    1
     3    22    27    1
     4    27    28    1
     5    22    23   am
     6    23    24    2
     7    23    17    1
     8    17    18   ar
     9    18    19   ar
    10    19    20   ar
    11    20     1    1
    12     1     2    2
    13     2     3    1
    14     3     4    1
    15     4     5    1
    16     5     6    1
    17     6     7    1
    18     7     8    1
    19     3     9    1
    20     9    10    1
    21    10    11   ar
    22    11    12   ar
    23    12    13   ar
    24    13    14   ar
    25    14    15   ar
    26    20    21   ar
    27    21    17   ar
    28    15     1    1
    29     8     3    1
    30    15    10   ar
    31     6    16    1
@<TRIPOS>MOLECULE
*****
 28 31 0 0 0
SMALL
GASTEIGER

@<TRIPOS>ATOM
      1 C           1.4450    0.9982   20.3303 C.2     1  UNL1        0.0365
      2 C           2.1704    0.3830   19.1704 C.2     1  UNL1        0.0160
      3 C           3.2578   -0.6213   19.4133 C.3     1  UNL1        0.1543
      4 C           2.8958   -0.2323   18.0106 C.3     1  UNL1        0.0614
      5 C           3.6212   -0.8475   16.8508 C.3     1  UNL1        0.0725
      6 N           4.7086   -1.8518   17.0937 N.3     1  UNL1       -0.2972
      7 C           5.0706   -2.2408   18.4963 C.3     1  UNL1        0.0725
      8 C           4.3452   -1.6256   19.6561 C.3     1  UNL1        0.0614
      9 O           3.6198   -1.0103   20.8160 O.3     1  UNL1       -0.4785
     10 C           2.8943   -0.3950   21.9758 C.ar    1  UNL1        0.1387
     11 C           3.2563   -0.7841   23.3786 C.ar    1  UNL1        0.0369
     12 C           2.5309   -0.1688   24.5384 C.ar    1  UNL1        0.0031
     13 C           1.4435    0.8355   24.2955 C.ar    1  UNL1        0.0002
     14 C           1.0815    1.2245   22.8929 C.ar    1  UNL1        0.0031
     15 C           1.8069    0.6092   21.7330 C.ar    1  UNL1        0.0367
     16 H           5.5551   -1.4790   16.6637 H       1  UNL1        0.1233
     17 C          -1.7527    3.1951   20.2107 C.ar    1  UNL1        0.1986
     18 C          -0.8789    3.9008   19.2166 C.ar    1  UNL1        0.0453
     19 C           0.4253    3.1638   19.1404 C.ar    1  UNL1        0.0408
     20 C           0.3576    2.0025   20.0874 C.ar    1  UNL1        0.1454
     21 O          -0.9886    2.0219   20.7489 O.2     1  UNL1       -0.4489
     22 N          -3.3962    4.2561   21.9203 N.am    1  UNL1       -0.2736
     23 C          -3.1461    3.5927   20.5985 C.2     1  UNL1        0.2837
     24 O          -4.2893    3.3268   19.6645 O.2     1  UNL1       -0.2666
     25 C          -5.7130    3.6455   22.9252 C.3     1  UNL1        0.0233
     26 C          -4.7896    4.6537   22.3081 C.3     1  UNL1        0.0939
     27 C          -2.2530    4.5220   22.8543 C.3     1  UNL1        0.0939
     28 C          -1.9567    3.5631   23.9691 C.3     1  UNL1        0.0233
@<TRIPOS>BOND
     1    25    26    1
     2    26    22    1
     3    22    27    1
     4    27    28    1
     5    22    23   am
     6    23    24    2
     7    23    17    1
     8    17    18   ar
     9    18    19   ar
    10    19    20   ar
    11    20     1    1
    12     1     2    2
    13     2     3    1
    14     3     4    1
    15     4     5    1
    16     5     6    1
    17     6     7    1
    18     7     8    1
    19     3     9    1
    20     9    10    1
    21    10    11   ar
    22    11    12   ar
    23    12    13   ar
    24    13    14   ar
    25    14    15   ar
    26    20    21   ar
    27    21    17   ar
    28    15     1    1
    29     8     3    1
    30    15    10   ar
    31     6    16    1
@<TRIPOS>MOLECULE
*****
 28 31 0 0 0
SMALL
GASTEIGER

@<TRIPOS>ATOM
      1 C           1.7146    0.9582   20.6763 C.2     1  UNL1        0.0365
      2 C           2.3128    0.3917   19.4228 C.2     1  UNL1        0.0160
      3 C           3.3653   -0.6737   19.5091 C.3     1  UNL1        0.1543
      4 C           2.9111   -0.1748   18.1694 C.3     1  UNL1        0.0614
      5 C           3.5094   -0.7413   16.9159 C.3     1  UNL1        0.0725
      6 N           4.5618   -1.8066   17.0022 N.3     1  UNL1       -0.2972
      7 C           5.0160   -2.3055   18.3419 C.3     1  UNL1        0.0725
      8 C           4.4177   -1.7390   19.5953 C.3     1  UNL1        0.0614
      9 O           3.8194   -1.1725   20.8489 O.3     1  UNL1       -0.4785
     10 C           3.2211   -0.6060   22.1023 C.ar    1  UNL1        0.1387
     11 C           3.6752   -1.1049   23.4421 C.ar    1  UNL1        0.0369
     12 C           3.0770   -0.5384   24.6955 C.ar    1  UNL1        0.0031
     13 C           2.0245    0.5269   24.6092 C.ar    1  UNL1        0.0002
     14 C           1.5704    1.0258   23.2695 C.ar    1  UNL1        0.0031
     15 C           2.1687    0.4593   22.0160 C.ar    1  UNL1        0.0367
     16 H           5.3883   -1.4431   16.5277 H       1  UNL1        0.1233
     17 C          -1.4910    3.1360   20.4588 C.ar    1  UNL1        0.1986
     18 C          -0.4237    4.1900   20.4557 C.ar    1  UNL1        0.0453
     19 C           0.9069    3.5025   20.5368 C.ar    1  UNL1        0.0408
     20 C           0.6622    2.0235   20.5900 C.ar    1  UNL1        0.1454
     21 O          -0.8199    1.7971   20.5418 O.2     1  UNL1       -0.4489
     22 N          -3.5666    4.0398   19.1842 N.am    1  UNL1       -0.2736
     23 C          -2.9697    3.3783   20.3908 C.2     1  UNL1        0.2837
     24 O          -3.8515    2.9591   21.5296 O.2     1  UNL1       -0.2666
     25 C          -5.9768    3.1508   18.7956 C.3     1  UNL1        0.0233
     26 C          -5.0453    4.2821   19.1162 C.3     1  UNL1        0.0939
     27 C          -2.6848    4.4590   18.0455 C.3     1  UNL1        0.0939
     28 C          -2.8685    3.8450   16.6892 C.3     1  UNL1        0.0233
@<TRIPOS>BOND
     1    25    26    1
     2    26    22    1
     3    22    27    1
     4    27    28    1
     5    22    23   am
     6    23    24    2
     7    23    17    1
     8    17    18   ar
     9    18    19   ar
    10    19    20   ar
    11    20     1    1
    12     1     2    2
    13     2     3    1
    14     3     4    1
    15     4     5    1
    16     5     6    1
    17     6     7    1
    18     7     8    1
    19     3     9    1
    20     9    10    1
    21    10    11   ar
    22    11    12   ar
    23    12    13   ar
    24    13    14   ar
    25    14    15   ar
    26    20    21   ar
    27    21    17   ar
    28    15     1    1
    29     8     3    1
    30    15    10   ar
    31     6    16    1
@<TRIPOS>MOLECULE
*****
 28 31 0 0 0
SMALL
GASTEIGER

@<TRIPOS>ATOM
      1 C           7.1367   -4.4108   26.3010 C.2     1  UNL1        0.0365
      2 C           6.9607   -4.2138   27.7777 C.2     1  UNL1        0.0160
      3 C           7.5325   -5.2115   28.7408 C.3     1  UNL1        0.1543
      4 C           6.7847   -4.0169   29.2542 C.3     1  UNL1        0.0614
      5 C           6.6087   -3.8201   30.7307 C.3     1  UNL1        0.0725
      6 N           7.1805   -4.8178   31.6938 N.3     1  UNL1       -0.2972
      7 C           7.9283   -6.0124   31.1804 C.3     1  UNL1        0.0725
      8 C           8.1043   -6.2093   29.7039 C.3     1  UNL1        0.0614
      9 O           8.2804   -6.4062   28.2273 O.3     1  UNL1       -0.4785
     10 C           8.4564   -6.6031   26.7507 C.ar    1  UNL1        0.1387
     11 C           9.2043   -7.7977   26.2372 C.ar    1  UNL1        0.0369
     12 C           9.3803   -7.9946   24.7607 C.ar    1  UNL1        0.0031
     13 C           8.8085   -6.9969   23.7976 C.ar    1  UNL1        0.0002
     14 C           8.0606   -5.8023   24.3110 C.ar    1  UNL1        0.0031
     15 C           7.8846   -5.6053   25.7876 C.ar    1  UNL1        0.0367
     16 H           6.4007   -5.1738   32.2466 H       1  UNL1        0.1233
     17 C           5.2938   -2.4238   23.5223 C.ar    1  UNL1        0.1986
     18 C           6.0762   -1.3316   24.1893 C.ar    1  UNL1        0.0453
     19 C           6.8618   -1.9430   25.3114 C.ar    1  UNL1        0.0408
     20 C           6.5649   -3.4130   25.3379 C.ar    1  UNL1        0.1454
     21 O           5.5958   -3.7102   24.2322 O.2     1  UNL1       -0.4489
     22 N           4.7016   -2.9061   21.0391 N.am    1  UNL1       -0.2736
     23 C           4.3713   -2.2587   22.3512 C.2     1  UNL1        0.2837
     24 O           3.1184   -1.4460   22.4922 O.2     1  UNL1       -0.2666
     25 C           3.3433   -3.9416   19.0814 C.3     1  UNL1        0.0233
     26 C           3.7791   -2.7410   19.8679 C.3     1  UNL1        0.0939
     27 C           5.9545   -3.7187   20.8982 C.3     1  UNL1        0.0939
     28 C           7.2175   -3.0717   20.4121 C.3     1  UNL1        0.0233
@<TRIPOS>BOND
     1    25    26    1
     2    26    22    1
     3    22    27    1
     4    27    28    1
     5    22    23   am
     6    23    24    2
     7    23    17    1
     8    17    18   ar
     9    18    19   ar
    10    19    20   ar
    11    20     1    1
    12     1     2    2
    13     2     3    1
    14     3     4    1
    15     4     5    1
    16     5     6    1
    17     6     7    1
    18     7     8    1
    19     3     9    1
    20     9    10    1
    21    10    11   ar
    22    11    12   ar
    23    12    13   ar
    24    13    14   ar
    25    14    15   ar
    26    20    21   ar
    27    21    17   ar
    28    15     1    1
    29     8     3    1
    30    15    10   ar
    31     6    16    1
