@<TRIPOS>MOLECULE
*****
 28 30 0 0 0
SMALL
GASTEIGER

@<TRIPOS>ATOM
      1 C         -14.4656  -18.3844   25.7520 C.3     1  UNL1        0.0310
      2 C         -13.4081  -18.4653   24.6913 C.ar    1  UNL1       -0.0222
      3 C         -13.7269  -18.0625   23.2821 C.ar    1  UNL1       -0.0045
      4 C         -12.6693  -18.1433   22.2214 C.ar    1  UNL1       -0.0033
      5 C         -11.2930  -18.6270   22.5700 C.ar    1  UNL1       -0.0082
      6 C         -10.9741  -19.0298   23.9792 C.ar    1  UNL1       -0.0232
      7 C         -12.0317  -18.9490   25.0399 C.ar    1  UNL1       -0.0087
      8 C          -9.5977  -19.5136   24.3279 C.3     1  UNL1        0.0476
      9 C          -8.5401  -19.5944   23.2672 C.3     1  UNL1        0.0983
     10 N          -8.8590  -19.1916   21.8579 N.am    1  UNL1       -0.2760
     11 C          -7.8015  -19.2725   20.7972 C.2     1  UNL1        0.2420
     12 O          -8.1203  -18.8696   19.3879 O.2     1  UNL1       -0.2734
     13 C         -10.2354  -18.7079   21.5093 C.3     1  UNL1        0.0975
     14 C         -10.5542  -18.3051   20.1000 C.3     1  UNL1        0.0224
     15 C         -10.7307  -19.3536   19.0420 C.3     1  UNL1        0.0021
     16 C         -10.6966  -16.8537   19.7488 C.3     1  UNL1        0.0021
     17 C          -6.4250  -19.7562   21.1458 C.3     1  UNL1        0.1552
     18 N          -5.4139  -18.8005   21.7065 N.3     1  UNL1       -0.2879
     19 H          -5.8355  -18.3774   22.5333 H       1  UNL1        0.1238
     20 C          -4.0595  -19.2973   22.1172 C.3     1  UNL1        0.0961
     21 C          -2.8474  -18.9165   21.3199 C.3     1  UNL1        0.1027
     22 O          -3.0135  -20.3402   20.8775 O.3     1  UNL1       -0.3854
     23 C          -3.1023  -17.6252   22.0391 C.3     1  UNL1        0.0283
     24 C          -2.2027  -16.4474   21.8074 C.3     1  UNL1        0.0024
     25 C          -1.0483  -16.5610   20.8564 C.3     1  UNL1        0.0002
     26 C          -0.7934  -17.8523   20.1371 C.3     1  UNL1        0.0024
     27 C          -1.6930  -19.0301   20.3689 C.3     1  UNL1        0.0283
     28 H          -3.7818  -20.7297   21.3234 H       1  UNL1        0.2103
@<TRIPOS>BOND
     1     1     2    1
     2     2     3   ar
     3     3     4   ar
     4     4     5   ar
     5     5     6   ar
     6     6     7   ar
     7     6     8    1
     8     8     9    1
     9     9    10    1
    10    10    11   am
    11    11    12    2
    12    11    17    1
    13    17    18    1
    14    18    20    1
    15    20    21    1
    16    21    22    1
    17    21    23    1
    18    23    24    1
    19    24    25    1
    20    25    26    1
    21    26    27    1
    22    10    13    1
    23    13    14    1
    24    14    15    1
    25    14    16    1
    26     7     2   ar
    27    27    21    1
    28    13     5    1
    29    18    19    1
    30    22    28    1
@<TRIPOS>MOLECULE
*****
 28 30 0 0 0
SMALL
GASTEIGER

@<TRIPOS>ATOM
      1 C          -9.2102  -21.8098   17.1091 C.3     1  UNL1        0.0310
      2 C          -9.1098  -20.8149   18.2272 C.ar    1  UNL1       -0.0222
      3 C         -10.3137  -20.0169   18.6315 C.ar    1  UNL1       -0.0045
      4 C         -10.2133  -19.0220   19.7496 C.ar    1  UNL1       -0.0033
      5 C          -8.9088  -18.8252   20.4634 C.ar    1  UNL1       -0.0082
      6 C          -7.7048  -19.6232   20.0591 C.ar    1  UNL1       -0.0232
      7 C          -7.8053  -20.6181   18.9410 C.ar    1  UNL1       -0.0087
      8 C          -6.4002  -19.4264   20.7729 C.3     1  UNL1        0.0476
      9 C          -6.2997  -18.4315   21.8910 C.3     1  UNL1        0.0983
     10 N          -7.5038  -17.6335   22.2953 N.am    1  UNL1       -0.2760
     11 C          -7.4033  -16.6386   23.4134 C.2     1  UNL1        0.2420
     12 O          -8.6073  -15.8406   23.8177 O.2     1  UNL1       -0.2734
     13 C          -8.8083  -17.8303   21.5815 C.3     1  UNL1        0.0975
     14 C         -10.0123  -17.0323   21.9858 C.3     1  UNL1        0.0224
     15 C         -10.8929  -17.5155   23.0998 C.3     1  UNL1        0.0021
     16 C         -10.3357  -15.7509   21.2761 C.3     1  UNL1        0.0021
     17 C          -6.0988  -16.4418   24.1272 C.3     1  UNL1        0.1552
     18 N          -4.8875  -15.9918   23.3654 N.3     1  UNL1       -0.2879
     19 H          -4.6345  -15.0736   23.7303 H       1  UNL1        0.1238
     20 C          -3.6392  -16.8234   23.3822 C.3     1  UNL1        0.0961
     21 C          -2.8300  -16.9869   22.1299 C.3     1  UNL1        0.1027
     22 O          -2.9230  -15.4908   22.1865 O.3     1  UNL1       -0.3854
     23 C          -3.0181  -18.4261   22.5082 C.3     1  UNL1        0.0283
     24 C          -2.4292  -19.5093   21.6538 C.3     1  UNL1        0.0024
     25 C          -1.6522  -19.1532   20.4211 C.3     1  UNL1        0.0002
     26 C          -1.4641  -17.7140   20.0428 C.3     1  UNL1        0.0024
     27 C          -2.0530  -16.6308   20.8972 C.3     1  UNL1        0.0283
     28 H          -3.4340  -15.2280   22.9680 H       1  UNL1        0.2103
@<TRIPOS>BOND
     1     1     2    1
     2     2     3   ar
     3     3     4   ar
     4     4     5   ar
     5     5     6   ar
     6     6     7   ar
     7     6     8    1
     8     8     9    1
     9     9    10    1
    10    10    11   am
    11    11    12    2
    12    11    17    1
    13    17    18    1
    14    18    20    1
    15    20    21    1
    16    21    22    1
    17    21    23    1
    18    23    24    1
    19    24    25    1
    20    25    26    1
    21    26    27    1
    22    10    13    1
    23    13    14    1
    24    14    15    1
    25    14    16    1
    26     7     2   ar
    27    27    21    1
    28    13     5    1
    29    18    19    1
    30    22    28    1
@<TRIPOS>MOLECULE
*****
 28 30 0 0 0
SMALL
GASTEIGER

@<TRIPOS>ATOM
      1 C          -5.1112  -14.7295   26.0928 C.3     1  UNL1        0.0310
      2 C          -5.5783  -15.6311   24.9888 C.ar    1  UNL1       -0.0222
      3 C          -4.6948  -16.7416   24.5029 C.ar    1  UNL1       -0.0045
      4 C          -5.1619  -17.6432   23.3988 C.ar    1  UNL1       -0.0033
      5 C          -6.5125  -17.4343   22.7807 C.ar    1  UNL1       -0.0082
      6 C          -7.3960  -16.3238   23.2666 C.ar    1  UNL1       -0.0232
      7 C          -6.9289  -15.4222   24.3706 C.ar    1  UNL1       -0.0087
      8 C          -8.7467  -16.1148   22.6484 C.3     1  UNL1        0.0476
      9 C          -9.2138  -17.0164   21.5443 C.3     1  UNL1        0.0983
     10 N          -8.3302  -18.1270   21.0584 N.am    1  UNL1       -0.2760
     11 C          -8.7973  -19.0286   19.9544 C.2     1  UNL1        0.2420
     12 O          -7.9138  -20.1391   19.4685 O.2     1  UNL1       -0.2734
     13 C          -6.9796  -18.3359   21.6766 C.3     1  UNL1        0.0975
     14 C          -6.0961  -19.4464   21.1907 C.3     1  UNL1        0.0224
     15 C          -5.1185  -19.1961   20.0809 C.3     1  UNL1        0.0021
     16 C          -6.1902  -20.8073   21.8146 C.3     1  UNL1        0.0021
     17 C         -10.1480  -18.8196   19.3362 C.3     1  UNL1        0.1552
     18 N         -11.3780  -19.3182   20.0352 N.3     1  UNL1       -0.2879
     19 H         -11.8663  -19.9240   19.3757 H       1  UNL1        0.1238
     20 C         -11.2525  -20.0863   21.3175 C.3     1  UNL1        0.0961
     21 C         -11.2824  -19.3628   22.6311 C.3     1  UNL1        0.1027
     22 O         -12.3724  -18.6309   21.9058 O.3     1  UNL1       -0.3854
     23 C         -10.1820  -20.3460   22.9002 C.3     1  UNL1        0.0283
     24 C          -9.4901  -20.3515   24.2311 C.3     1  UNL1        0.0024
     25 C          -9.8985  -19.3738   25.2928 C.3     1  UNL1        0.0002
     26 C         -10.9989  -18.3906   25.0237 C.3     1  UNL1        0.0024
     27 C         -11.6909  -18.3851   23.6928 C.3     1  UNL1        0.0283
     28 H         -12.4717  -18.9997   21.0141 H       1  UNL1        0.2103
@<TRIPOS>BOND
     1     1     2    1
     2     2     3   ar
     3     3     4   ar
     4     4     5   ar
     5     5     6   ar
     6     6     7   ar
     7     6     8    1
     8     8     9    1
     9     9    10    1
    10    10    11   am
    11    11    12    2
    12    11    17    1
    13    17    18    1
    14    18    20    1
    15    20    21    1
    16    21    22    1
    17    21    23    1
    18    23    24    1
    19    24    25    1
    20    25    26    1
    21    26    27    1
    22    10    13    1
    23    13    14    1
    24    14    15    1
    25    14    16    1
    26     7     2   ar
    27    27    21    1
    28    13     5    1
    29    18    19    1
    30    22    28    1
@<TRIPOS>MOLECULE
*****
 28 30 0 0 0
SMALL
GASTEIGER

@<TRIPOS>ATOM
      1 C          -6.6128  -14.4835   27.4662 C.3     1  UNL1        0.0310
      2 C          -6.4141  -15.3187   26.2361 C.ar    1  UNL1       -0.0222
      3 C          -5.0625  -15.8920   25.9290 C.ar    1  UNL1       -0.0045
      4 C          -4.8638  -16.7271   24.6990 C.ar    1  UNL1       -0.0033
      5 C          -6.0168  -16.9889   23.7759 C.ar    1  UNL1       -0.0082
      6 C          -7.3684  -16.4156   24.0830 C.ar    1  UNL1       -0.0232
      7 C          -7.5671  -15.5805   25.3131 C.ar    1  UNL1       -0.0087
      8 C          -8.5215  -16.6774   23.1599 C.3     1  UNL1        0.0476
      9 C          -8.3229  -17.5125   21.9298 C.3     1  UNL1        0.0983
     10 N          -6.9711  -18.0858   21.6228 N.am    1  UNL1       -0.2760
     11 C          -6.7725  -18.9210   20.3927 C.2     1  UNL1        0.2420
     12 O          -5.4209  -19.4943   20.0857 O.2     1  UNL1       -0.2734
     13 C          -5.8182  -17.8240   22.5458 C.3     1  UNL1        0.0975
     14 C          -4.4665  -18.3974   22.2388 C.3     1  UNL1        0.0224
     15 C          -4.1676  -19.8303   22.5663 C.3     1  UNL1        0.0021
     16 C          -3.4137  -17.5377   21.6042 C.3     1  UNL1        0.0021
     17 C          -7.9256  -19.1828   19.4697 C.3     1  UNL1        0.1552
     18 N          -9.1395  -19.9063   19.9726 N.3     1  UNL1       -0.2879
     19 H          -9.0683  -19.9292   20.9898 H       1  UNL1        0.1238
     20 C         -10.5094  -19.3899   19.6458 C.3     1  UNL1        0.0961
     21 C         -11.2789  -18.6062   20.6675 C.3     1  UNL1        0.1027
     22 O         -11.5249  -17.7621   19.4522 O.3     1  UNL1       -0.3854
     23 C         -10.7656  -19.7225   21.5279 C.3     1  UNL1        0.0283
     24 C         -11.1072  -19.7620   22.9880 C.3     1  UNL1        0.0024
     25 C         -11.9621  -18.6852   23.5876 C.3     1  UNL1        0.0002
     26 C         -12.4754  -17.5689   22.7271 C.3     1  UNL1        0.0024
     27 C         -12.1338  -17.5294   21.2670 C.3     1  UNL1        0.0283
     28 H         -11.0751  -18.1561   18.6884 H       1  UNL1        0.2103
@<TRIPOS>BOND
     1     1     2    1
     2     2     3   ar
     3     3     4   ar
     4     4     5   ar
     5     5     6   ar
     6     6     7   ar
     7     6     8    1
     8     8     9    1
     9     9    10    1
    10    10    11   am
    11    11    12    2
    12    11    17    1
    13    17    18    1
    14    18    20    1
    15    20    21    1
    16    21    22    1
    17    21    23    1
    18    23    24    1
    19    24    25    1
    20    25    26    1
    21    26    27    1
    22    10    13    1
    23    13    14    1
    24    14    15    1
    25    14    16    1
    26     7     2   ar
    27    27    21    1
    28    13     5    1
    29    18    19    1
    30    22    28    1
@<TRIPOS>MOLECULE
*****
 28 30 0 0 0
SMALL
GASTEIGER

@<TRIPOS>ATOM
      1 C          -0.4006    2.1527   20.7874 C.3     1  UNL1        0.0310
      2 C           0.6279    1.0616   20.7496 C.ar    1  UNL1       -0.0222
      3 C           0.8798    0.3122   19.4749 C.ar    1  UNL1       -0.0045
      4 C           1.9084   -0.7790   19.4371 C.ar    1  UNL1       -0.0033
      5 C           2.6851   -1.1207   20.6740 C.ar    1  UNL1       -0.0082
      6 C           2.4332   -0.3712   21.9487 C.ar    1  UNL1       -0.0232
      7 C           1.4047    0.7199   21.9865 C.ar    1  UNL1       -0.0087
      8 C           3.2100   -0.7129   23.1856 C.3     1  UNL1        0.0476
      9 C           4.2386   -1.8041   23.1478 C.3     1  UNL1        0.0983
     10 N           4.4904   -2.5535   21.8730 N.am    1  UNL1       -0.2760
     11 C           5.5190   -3.6447   21.8352 C.2     1  UNL1        0.2420
     12 O           5.7708   -4.3941   20.5606 O.2     1  UNL1       -0.2734
     13 C           3.7137   -2.2118   20.6362 C.3     1  UNL1        0.0975
     14 C           3.9655   -2.9613   19.3615 C.3     1  UNL1        0.0224
     15 C           3.2113   -4.2254   19.0731 C.3     1  UNL1        0.0021
     16 C           4.9717   -2.4466   18.3751 C.3     1  UNL1        0.0021
     17 C           6.2957   -3.9863   23.0722 C.3     1  UNL1        0.1552
     18 N           7.3224   -5.0793   23.0351 N.3     1  UNL1       -0.2879
     19 H           7.8887   -4.9232   22.2012 H       1  UNL1        0.1238
     20 C           8.2760   -5.2517   24.1800 C.3     1  UNL1        0.0961
     21 C           8.1608   -6.4472   25.0786 C.3     1  UNL1        0.1027
     22 O           8.0217   -7.1122   23.7413 O.3     1  UNL1       -0.3854
     23 C           8.3398   -5.3670   26.1038 C.3     1  UNL1        0.0283
     24 C           8.3553   -5.7132   27.5633 C.3     1  UNL1        0.0024
     25 C           8.1918   -7.1396   27.9974 C.3     1  UNL1        0.0002
     26 C           8.0127   -8.2198   26.9722 C.3     1  UNL1        0.0024
     27 C           7.9972   -7.8736   25.5128 C.3     1  UNL1        0.0283
     28 H           8.0781   -6.4439   23.0405 H       1  UNL1        0.2103
@<TRIPOS>BOND
     1     1     2    1
     2     2     3   ar
     3     3     4   ar
     4     4     5   ar
     5     5     6   ar
     6     6     7   ar
     7     6     8    1
     8     8     9    1
     9     9    10    1
    10    10    11   am
    11    11    12    2
    12    11    17    1
    13    17    18    1
    14    18    20    1
    15    20    21    1
    16    21    22    1
    17    21    23    1
    18    23    24    1
    19    24    25    1
    20    25    26    1
    21    26    27    1
    22    10    13    1
    23    13    14    1
    24    14    15    1
    25    14    16    1
    26     7     2   ar
    27    27    21    1
    28    13     5    1
    29    18    19    1
    30    22    28    1
@<TRIPOS>MOLECULE
*****
 28 30 0 0 0
SMALL
GASTEIGER

@<TRIPOS>ATOM
      1 C          -8.4332  -21.8383   17.4323 C.3     1  UNL1        0.0310
      2 C          -8.9035  -20.8294   18.4378 C.ar    1  UNL1       -0.0222
      3 C         -10.2727  -20.2295   18.3144 C.ar    1  UNL1       -0.0045
      4 C         -10.7430  -19.2207   19.3199 C.ar    1  UNL1       -0.0033
      5 C          -9.8440  -18.8117   20.4488 C.ar    1  UNL1       -0.0082
      6 C          -8.4748  -19.4115   20.5723 C.ar    1  UNL1       -0.0232
      7 C          -8.0045  -20.4204   19.5668 C.ar    1  UNL1       -0.0087
      8 C          -7.5757  -19.0025   21.7012 C.3     1  UNL1        0.0476
      9 C          -8.0460  -17.9937   22.7067 C.3     1  UNL1        0.0983
     10 N          -9.4154  -17.3938   22.5832 N.am    1  UNL1       -0.2760
     11 C          -9.8856  -16.3849   23.5887 C.2     1  UNL1        0.2420
     12 O         -11.2549  -15.7851   23.4653 O.2     1  UNL1       -0.2734
     13 C         -10.3143  -17.8028   21.4543 C.3     1  UNL1        0.0975
     14 C         -11.6836  -17.2029   21.3309 C.3     1  UNL1        0.0224
     15 C         -12.8338  -17.7972   22.0883 C.3     1  UNL1        0.0021
     16 C         -11.9026  -16.0087   20.4500 C.3     1  UNL1        0.0021
     17 C          -8.9866  -15.9759   24.7177 C.3     1  UNL1        0.1552
     18 N          -8.1626  -14.7275   24.6058 N.3     1  UNL1       -0.2879
     19 H          -8.1669  -14.2884   25.5264 H       1  UNL1        0.1238
     20 C          -6.7290  -14.8114   24.1727 C.3     1  UNL1        0.0961
     21 C          -5.7484  -15.6129   24.9765 C.3     1  UNL1        0.1027
     22 O          -6.4061  -14.8297   26.0738 O.3     1  UNL1       -0.3854
     23 C          -5.4312  -16.1178   23.6001 C.3     1  UNL1        0.0283
     24 C          -4.3618  -17.1521   23.4086 C.3     1  UNL1        0.0024
     25 C          -3.6097  -17.6815   24.5934 C.3     1  UNL1        0.0002
     26 C          -3.9269  -17.1767   25.9699 C.3     1  UNL1        0.0024
     27 C          -4.9962  -16.1423   26.1614 C.3     1  UNL1        0.0283
     28 H          -7.0843  -14.2489   25.6947 H       1  UNL1        0.2103
@<TRIPOS>BOND
     1     1     2    1
     2     2     3   ar
     3     3     4   ar
     4     4     5   ar
     5     5     6   ar
     6     6     7   ar
     7     6     8    1
     8     8     9    1
     9     9    10    1
    10    10    11   am
    11    11    12    2
    12    11    17    1
    13    17    18    1
    14    18    20    1
    15    20    21    1
    16    21    22    1
    17    21    23    1
    18    23    24    1
    19    24    25    1
    20    25    26    1
    21    26    27    1
    22    10    13    1
    23    13    14    1
    24    14    15    1
    25    14    16    1
    26     7     2   ar
    27    27    21    1
    28    13     5    1
    29    18    19    1
    30    22    28    1
@<TRIPOS>MOLECULE
*****
 28 30 0 0 0
SMALL
GASTEIGER

@<TRIPOS>ATOM
      1 C           8.3976   -8.5664   26.8647 C.3     1  UNL1        0.0310
      2 C           8.0737   -7.3980   25.9816 C.ar    1  UNL1       -0.0222
      3 C           7.2543   -6.2600   26.5139 C.ar    1  UNL1       -0.0045
      4 C           6.9304   -5.0915   25.6308 C.ar    1  UNL1       -0.0033
      5 C           7.4259   -5.0611   24.2154 C.ar    1  UNL1       -0.0082
      6 C           8.2453   -6.1992   23.6831 C.ar    1  UNL1       -0.0232
      7 C           8.5692   -7.3676   24.5662 C.ar    1  UNL1       -0.0087
      8 C           8.7409   -6.1688   22.2676 C.3     1  UNL1        0.0476
      9 C           8.4170   -5.0004   21.3845 C.3     1  UNL1        0.0983
     10 N           7.5975   -3.8623   21.9168 N.am    1  UNL1       -0.2760
     11 C           7.2736   -2.6939   21.0337 C.2     1  UNL1        0.2420
     12 O           6.4542   -1.5559   21.5661 O.2     1  UNL1       -0.2734
     13 C           7.1020   -3.8927   23.3323 C.3     1  UNL1        0.0975
     14 C           6.2826   -2.7547   23.8646 C.3     1  UNL1        0.0224
     15 C           6.9519   -1.6187   24.5798 C.3     1  UNL1        0.0021
     16 C           4.7937   -2.7526   23.6818 C.3     1  UNL1        0.0021
     17 C           7.7691   -2.6635   19.6182 C.3     1  UNL1        0.1552
     18 N           6.8068   -2.4303   18.4915 N.3     1  UNL1       -0.2879
     19 H           7.2669   -2.7520   17.6399 H       1  UNL1        0.1238
     20 C           5.4504   -3.0702   18.5191 C.3     1  UNL1        0.0961
     21 C           4.2627   -2.2900   18.9993 C.3     1  UNL1        0.1027
     22 O           4.3133   -3.3601   20.0492 O.3     1  UNL1       -0.3854
     23 C           4.6246   -1.4910   17.7825 C.3     1  UNL1        0.0283
     24 C           3.8163   -0.2833   17.4106 C.3     1  UNL1        0.0024
     25 C           2.6462    0.1252   18.2554 C.3     1  UNL1        0.0002
     26 C           2.2842   -0.6738   19.4721 C.3     1  UNL1        0.0024
     27 C           3.0925   -1.8815   19.8441 C.3     1  UNL1        0.0283
     28 H           5.0541   -3.9587   19.8654 H       1  UNL1        0.2103
@<TRIPOS>BOND
     1     1     2    1
     2     2     3   ar
     3     3     4   ar
     4     4     5   ar
     5     5     6   ar
     6     6     7   ar
     7     6     8    1
     8     8     9    1
     9     9    10    1
    10    10    11   am
    11    11    12    2
    12    11    17    1
    13    17    18    1
    14    18    20    1
    15    20    21    1
    16    21    22    1
    17    21    23    1
    18    23    24    1
    19    24    25    1
    20    25    26    1
    21    26    27    1
    22    10    13    1
    23    13    14    1
    24    14    15    1
    25    14    16    1
    26     7     2   ar
    27    27    21    1
    28    13     5    1
    29    18    19    1
    30    22    28    1
@<TRIPOS>MOLECULE
*****
 28 30 0 0 0
SMALL
GASTEIGER

@<TRIPOS>ATOM
      1 C           5.2770   -3.6320   22.3247 C.3     1  UNL1        0.0310
      2 C           4.3049   -2.4922   22.4028 C.ar    1  UNL1       -0.0222
      3 C           4.1235   -1.7483   23.6926 C.ar    1  UNL1       -0.0045
      4 C           3.1514   -0.6086   23.7707 C.ar    1  UNL1       -0.0033
      5 C           2.3608   -0.2128   22.5590 C.ar    1  UNL1       -0.0082
      6 C           2.5422   -0.9567   21.2693 C.ar    1  UNL1       -0.0232
      7 C           3.5143   -2.0965   21.1912 C.ar    1  UNL1       -0.0087
      8 C           1.7515   -0.5610   20.0575 C.3     1  UNL1        0.0476
      9 C           0.7795    0.5788   20.1356 C.3     1  UNL1        0.0983
     10 N           0.5981    1.3227   21.4255 N.am    1  UNL1       -0.2760
     11 C          -0.3740    2.4625   21.5036 C.2     1  UNL1        0.2420
     12 O          -0.5554    3.2064   22.7934 O.2     1  UNL1       -0.2734
     13 C           1.3887    0.9270   22.6372 C.3     1  UNL1        0.0975
     14 C           1.2073    1.6709   23.9269 C.3     1  UNL1        0.0224
     15 C           2.0474    2.8783   24.2209 C.3     1  UNL1        0.0021
     16 C           0.1857    1.2075   24.9228 C.3     1  UNL1        0.0021
     17 C          -1.1647    2.8582   20.2918 C.3     1  UNL1        0.1552
     18 N          -2.0669    4.0554   20.3431 N.3     1  UNL1       -0.2879
     19 H          -1.9098    4.5797   19.4824 H       1  UNL1        0.1238
     20 C          -3.5499    3.8719   20.4738 C.3     1  UNL1        0.0961
     21 C          -4.1591    3.6244   21.8220 C.3     1  UNL1        0.1027
     22 O          -4.5674    2.3652   21.1164 O.3     1  UNL1       -0.3854
     23 C          -3.5391    4.9695   22.0593 C.3     1  UNL1        0.0283
     24 C          -3.6702    5.6297   23.3998 C.3     1  UNL1        0.0024
     25 C          -4.4212    4.9449   24.5029 C.3     1  UNL1        0.0002
     26 C          -5.0411    3.5998   24.2656 C.3     1  UNL1        0.0024
     27 C          -4.9100    2.9395   22.9251 C.3     1  UNL1        0.0283
     28 H          -4.2344    2.3825   20.2055 H       1  UNL1        0.2103
@<TRIPOS>BOND
     1     1     2    1
     2     2     3   ar
     3     3     4   ar
     4     4     5   ar
     5     5     6   ar
     6     6     7   ar
     7     6     8    1
     8     8     9    1
     9     9    10    1
    10    10    11   am
    11    11    12    2
    12    11    17    1
    13    17    18    1
    14    18    20    1
    15    20    21    1
    16    21    22    1
    17    21    23    1
    18    23    24    1
    19    24    25    1
    20    25    26    1
    21    26    27    1
    22    10    13    1
    23    13    14    1
    24    14    15    1
    25    14    16    1
    26     7     2   ar
    27    27    21    1
    28    13     5    1
    29    18    19    1
    30    22    28    1
@<TRIPOS>MOLECULE
*****
 28 30 0 0 0
SMALL
GASTEIGER

@<TRIPOS>ATOM
      1 C           4.5152   -5.0565   18.6897 C.3     1  UNL1        0.0310
      2 C           4.2516   -3.9641   19.6834 C.ar    1  UNL1       -0.0222
      3 C           3.4884   -2.7412   19.2687 C.ar    1  UNL1       -0.0045
      4 C           3.2248   -1.6489   20.2624 C.ar    1  UNL1       -0.0033
      5 C           3.7244   -1.7795   21.6706 C.ar    1  UNL1       -0.0082
      6 C           4.4876   -3.0024   22.0853 C.ar    1  UNL1       -0.0232
      7 C           4.7512   -4.0947   21.0916 C.ar    1  UNL1       -0.0087
      8 C           4.9873   -3.1330   23.4936 C.3     1  UNL1        0.0476
      9 C           4.7237   -2.0407   24.4873 C.3     1  UNL1        0.0983
     10 N           3.9604   -0.8177   24.0725 N.am    1  UNL1       -0.2760
     11 C           3.6968    0.2746   25.0662 C.2     1  UNL1        0.2420
     12 O           2.9336    1.4975   24.6515 O.2     1  UNL1       -0.2734
     13 C           3.4608   -0.6871   22.6643 C.3     1  UNL1        0.0975
     14 C           2.6976    0.5358   22.2496 C.3     1  UNL1        0.0224
     15 C           1.2058    0.5760   22.4010 C.3     1  UNL1        0.0021
     16 C           3.4262    1.7185   21.6835 C.3     1  UNL1        0.0021
     17 C           4.1965    0.1440   26.4745 C.3     1  UNL1        0.1552
     18 N           3.9597    1.2499   27.4599 N.3     1  UNL1       -0.2879
     19 H           3.7804    2.0946   26.9170 H       1  UNL1        0.1238
     20 C           2.8502    1.1361   28.4628 C.3     1  UNL1        0.0961
     21 C           1.4429    1.4706   28.0656 C.3     1  UNL1        0.1027
     22 O           2.1763    2.5972   27.4001 O.3     1  UNL1       -0.3854
     23 C           1.1984    0.2278   28.8691 C.3     1  UNL1        0.0283
     24 C          -0.1988   -0.2893   29.0443 C.3     1  UNL1        0.0024
     25 C          -1.3513    0.4365   28.4159 C.3     1  UNL1        0.0002
     26 C          -1.1068    1.6793   27.6124 C.3     1  UNL1        0.0024
     27 C           0.2904    2.1963   27.4373 C.3     1  UNL1        0.0283
     28 H           3.1267    2.5118   27.5741 H       1  UNL1        0.2103
@<TRIPOS>BOND
     1     1     2    1
     2     2     3   ar
     3     3     4   ar
     4     4     5   ar
     5     5     6   ar
     6     6     7   ar
     7     6     8    1
     8     8     9    1
     9     9    10    1
    10    10    11   am
    11    11    12    2
    12    11    17    1
    13    17    18    1
    14    18    20    1
    15    20    21    1
    16    21    22    1
    17    21    23    1
    18    23    24    1
    19    24    25    1
    20    25    26    1
    21    26    27    1
    22    10    13    1
    23    13    14    1
    24    14    15    1
    25    14    16    1
    26     7     2   ar
    27    27    21    1
    28    13     5    1
    29    18    19    1
    30    22    28    1
