@<TRIPOS>MOLECULE
*****
 29 31 0 0 0
SMALL
GASTEIGER

@<TRIPOS>ATOM
      1 C           1.8679   -0.4013   19.8063 C.ar    1  UNL1        0.0191
      2 C           2.2441    0.6553   18.8102 C.ar    1  UNL1        0.0063
      3 C           1.3826    1.8723   18.6464 C.ar    1  UNL1        0.0581
      4 C           0.1450    2.0328   19.4786 C.ar    1  UNL1        0.2298
      5 N          -0.2311    0.9762   20.4747 N.ar    1  UNL1       -0.2098
      6 C           0.6304   -0.2409   20.6385 C.ar    1  UNL1        0.1020
      7 C           3.8274   -1.8977   18.9871 C.2     1  UNL1       -0.0069
      8 C           2.7293   -1.6183   19.9701 C.2     1  UNL1       -0.0014
      9 C           4.6888   -3.1147   19.1509 C.3     1  UNL1        0.0939
     10 C           4.1282   -4.4751   18.8592 C.3     1  UNL1        0.0262
     11 C           8.5756   -2.3137   19.1141 C.3     1  UNL1        0.0946
     12 C           7.1536   -2.4572   18.6586 C.2     1  UNL1        0.2232
     13 O           6.7746   -2.0865   17.2554 O.2     1  UNL1       -0.2751
     14 N           6.1108   -2.9712   19.6064 N.am    1  UNL1       -0.3022
     15 H           6.3596   -3.2145   20.5273 H       1  UNL1        0.1497
     16 O          -0.7164    3.2498   19.3148 O.3     1  UNL1       -0.4338
     17 C          -1.8951    3.4613   20.2182 C.ar    1  UNL1        0.1750
     18 C          -3.2875    3.3712   19.6679 C.ar    1  UNL1        0.0415
     19 C          -4.4662    3.5828   20.5713 C.ar    1  UNL1        0.0229
     20 C          -4.2523    3.8845   22.0250 C.ar    1  UNL1        0.0899
     21 N          -5.2124    4.1385   23.1491 N.ar    1  UNL1       -0.2427
     22 C          -4.4132    4.3857   24.3942 C.ar    1  UNL1        0.0879
     23 S          -2.9593    4.2844   24.0395 S.2     1  UNL1       -0.0684
     24 C          -2.8598    3.9747   22.5752 C.ar    1  UNL1        0.0786
     25 C          -1.6812    3.7631   21.6719 C.ar    1  UNL1        0.1818
     26 F          -0.2887    3.8533   22.2221 F       1  UNL1       -0.2004
     27 C          -4.9702    4.6821   25.7551 C.3     1  UNL1        0.0466
     28 C          -4.2520    4.2002   26.9806 C.3     1  UNL1        0.0069
     29 C          -6.2454    5.4603   25.8904 C.3     1  UNL1        0.0069
@<TRIPOS>BOND
     1    11    12    1
     2    12    13    2
     3    12    14   am
     4    14     9    1
     5     9    10    1
     6     9     7    1
     7     7     8    2
     8     8     1    1
     9     1     2   ar
    10     2     3   ar
    11     3     4   ar
    12     4    16    1
    13    16    17    1
    14    17    18   ar
    15    18    19   ar
    16    19    20   ar
    17    20    21   ar
    18    21    22   ar
    19    22    27    1
    20    27    28    1
    21    27    29    1
    22    22    23   ar
    23    23    24   ar
    24    24    25   ar
    25    25    26    1
    26     4     5   ar
    27     5     6   ar
    28     6     1   ar
    29    25    17   ar
    30    24    20   ar
    31    14    15    1
@<TRIPOS>MOLECULE
*****
 29 31 0 0 0
SMALL
GASTEIGER

@<TRIPOS>ATOM
      1 C           2.6308   -0.4206   19.9741 C.ar    1  UNL1        0.0191
      2 C           1.2510   -0.7116   20.4856 C.ar    1  UNL1        0.0063
      3 C           0.1768    0.3299   20.3797 C.ar    1  UNL1        0.0581
      4 C           0.4822    1.6624   19.7622 C.ar    1  UNL1        0.2298
      5 N           1.8620    1.9533   19.2506 N.ar    1  UNL1       -0.2098
      6 C           2.9363    0.9117   19.3566 C.ar    1  UNL1        0.1020
      7 C           3.8500   -2.5017   19.0086 C.2     1  UNL1       -0.0069
      8 C           3.7051   -1.4621   20.0801 C.2     1  UNL1       -0.0014
      9 C           4.9243   -3.5432   19.1145 C.3     1  UNL1        0.0939
     10 C           4.6284   -4.9663   18.7435 C.3     1  UNL1        0.0262
     11 C           8.6017   -2.0516   19.1519 C.3     1  UNL1        0.0946
     12 C           7.2317   -2.4330   18.6749 C.2     1  UNL1        0.2232
     13 O           6.7991   -2.0857   17.2812 O.2     1  UNL1       -0.2751
     14 N           6.2943   -3.1618   19.5916 N.am    1  UNL1       -0.3022
     15 H           6.5783   -3.3898   20.5063 H       1  UNL1        0.1497
     16 O          -0.5920    2.7039   19.6562 O.3     1  UNL1       -0.4338
     17 C          -1.3776    3.0975   20.8720 C.ar    1  UNL1        0.1750
     18 C          -0.6941    3.2103   22.2024 C.ar    1  UNL1        0.0415
     19 C          -1.4797    3.6039   23.4182 C.ar    1  UNL1        0.0229
     20 C          -2.9487    3.8846   23.3034 C.ar    1  UNL1        0.0899
     21 N          -3.9755    4.2897   24.3191 N.ar    1  UNL1       -0.2427
     22 C          -5.2935    4.4273   23.6163 C.ar    1  UNL1        0.0879
     23 S          -5.0813    4.1071   22.1663 S.2     1  UNL1       -0.0684
     24 C          -3.6321    3.7718   21.9729 C.ar    1  UNL1        0.0786
     25 C          -2.8466    3.3782   20.7572 C.ar    1  UNL1        0.1818
     26 F          -3.5300    3.2654   19.4267 F       1  UNL1       -0.2004
     27 C          -6.5952    4.8166   24.2519 C.3     1  UNL1        0.0466
     28 C          -6.6008    5.5662   25.5511 C.3     1  UNL1        0.0069
     29 C          -7.8912    4.4562   23.5884 C.3     1  UNL1        0.0069
@<TRIPOS>BOND
     1    11    12    1
     2    12    13    2
     3    12    14   am
     4    14     9    1
     5     9    10    1
     6     9     7    1
     7     7     8    2
     8     8     1    1
     9     1     2   ar
    10     2     3   ar
    11     3     4   ar
    12     4    16    1
    13    16    17    1
    14    17    18   ar
    15    18    19   ar
    16    19    20   ar
    17    20    21   ar
    18    21    22   ar
    19    22    27    1
    20    27    28    1
    21    27    29    1
    22    22    23   ar
    23    23    24   ar
    24    24    25   ar
    25    25    26    1
    26     4     5   ar
    27     5     6   ar
    28     6     1   ar
    29    25    17   ar
    30    24    20   ar
    31    14    15    1
@<TRIPOS>MOLECULE
*****
 29 31 0 0 0
SMALL
GASTEIGER

@<TRIPOS>ATOM
      1 C           8.3771   -8.5081   27.2945 C.ar    1  UNL1        0.0191
      2 C           9.4259   -7.5820   27.8354 C.ar    1  UNL1        0.0063
      3 C           9.4614   -6.1491   27.3931 C.ar    1  UNL1        0.0581
      4 C           8.4482   -5.6423   26.4099 C.ar    1  UNL1        0.2298
      5 N           7.3995   -6.5684   25.8690 N.ar    1  UNL1       -0.2098
      6 C           7.3640   -8.0013   26.3114 C.ar    1  UNL1        0.1020
      7 C           7.0298  -10.6603   27.8444 C.2     1  UNL1       -0.0069
      8 C           8.3417   -9.9409   27.7368 C.2     1  UNL1       -0.0014
      9 C           6.9944  -12.0932   28.2867 C.3     1  UNL1        0.0939
     10 C           8.2603  -12.8969   28.3278 C.3     1  UNL1        0.0262
     11 C           3.5436  -14.0403   28.0614 C.3     1  UNL1        0.0946
     12 C           4.8449  -13.4112   27.6602 C.2     1  UNL1        0.2232
     13 O           5.2979  -13.4711   26.2315 O.2     1  UNL1       -0.2751
     14 N           5.6931  -12.7223   28.6878 N.am    1  UNL1       -0.3022
     15 H           5.3957  -12.6830   29.6255 H       1  UNL1        0.1497
     16 O           8.4837   -4.2094   25.9676 O.3     1  UNL1       -0.4338
     17 C           7.3323   -3.6335   25.1976 C.ar    1  UNL1        0.1750
     18 C           6.3763   -2.6931   25.8694 C.ar    1  UNL1        0.0415
     19 C           5.2249   -2.1172   25.0994 C.ar    1  UNL1        0.0229
     20 C           5.0298   -2.4818   23.6575 C.ar    1  UNL1        0.0899
     21 N           3.9950   -2.0752   22.6506 N.ar    1  UNL1       -0.2427
     22 C           4.3117   -2.7643   21.3565 C.ar    1  UNL1        0.0879
     23 S           5.5421   -3.5968   21.5635 S.2     1  UNL1       -0.0684
     24 C           5.9860   -3.4222   22.9857 C.ar    1  UNL1        0.0786
     25 C           7.1372   -3.9981   23.7557 C.ar    1  UNL1        0.1818
     26 F           8.0934   -4.9385   23.0839 F       1  UNL1       -0.2004
     27 C           3.5344   -2.6423   20.0794 C.3     1  UNL1        0.0466
     28 C           3.4683   -3.8002   19.1281 C.3     1  UNL1        0.0069
     29 C           2.8231   -1.3625   19.7536 C.3     1  UNL1        0.0069
@<TRIPOS>BOND
     1    11    12    1
     2    12    13    2
     3    12    14   am
     4    14     9    1
     5     9    10    1
     6     9     7    1
     7     7     8    2
     8     8     1    1
     9     1     2   ar
    10     2     3   ar
    11     3     4   ar
    12     4    16    1
    13    16    17    1
    14    17    18   ar
    15    18    19   ar
    16    19    20   ar
    17    20    21   ar
    18    21    22   ar
    19    22    27    1
    20    27    28    1
    21    27    29    1
    22    22    23   ar
    23    23    24   ar
    24    24    25   ar
    25    25    26    1
    26     4     5   ar
    27     5     6   ar
    28     6     1   ar
    29    25    17   ar
    30    24    20   ar
    31    14    15    1
@<TRIPOS>MOLECULE
*****
 29 31 0 0 0
SMALL
GASTEIGER

@<TRIPOS>ATOM
      1 C         -11.6364   -0.4004   17.4282 C.ar    1  UNL1        0.0191
      2 C         -10.6205   -1.3096   16.8027 C.ar    1  UNL1        0.0063
      3 C         -10.3956   -2.6821   17.3644 C.ar    1  UNL1        0.0581
      4 C         -11.1866   -3.1455   18.5518 C.ar    1  UNL1        0.2298
      5 N         -12.2025   -2.2363   19.1773 N.ar    1  UNL1       -0.2098
      6 C         -12.4274   -0.8637   18.6154 C.ar    1  UNL1        0.1020
      7 C         -13.1878    1.6486   17.0477 C.2     1  UNL1       -0.0069
      8 C         -11.8613    0.9721   16.8664 C.2     1  UNL1       -0.0014
      9 C         -13.4126    3.0211   16.4859 C.3     1  UNL1        0.0939
     10 C         -14.7729    3.4154   15.9915 C.3     1  UNL1        0.0262
     11 C         -11.1420    6.1881   17.2366 C.3     1  UNL1        0.0946
     12 C         -12.2772    5.2100   17.3040 C.2     1  UNL1        0.2232
     13 O         -13.4122    5.4428   18.2567 O.2     1  UNL1       -0.2751
     14 N         -12.2774    3.9992   16.4185 N.am    1  UNL1       -0.3022
     15 H         -11.5324    3.8464   15.7933 H       1  UNL1        0.1497
     16 O         -10.9617   -4.5180   19.1135 O.3     1  UNL1       -0.4338
     17 C         -11.8276   -5.6604   18.6715 C.ar    1  UNL1        0.1750
     18 C         -11.3495   -6.5920   17.5976 C.ar    1  UNL1        0.0415
     19 C         -12.2154   -7.7344   17.1555 C.ar    1  UNL1        0.0229
     20 C         -13.5593   -7.9451   17.7876 C.ar    1  UNL1        0.0899
     21 N         -14.6249   -8.9760   17.5601 N.ar    1  UNL1       -0.2427
     22 C         -15.7616   -8.6814   18.4935 C.ar    1  UNL1        0.0879
     23 S         -15.3984   -7.4685   19.2979 S.2     1  UNL1       -0.0684
     24 C         -14.0373   -7.0135   18.8616 C.ar    1  UNL1        0.0786
     25 C         -13.1715   -5.8711   19.3036 C.ar    1  UNL1        0.1818
     26 F         -13.6495   -4.9395   20.3776 F       1  UNL1       -0.2004
     27 C         -17.0374   -9.4626   18.6033 C.3     1  UNL1        0.0466
     28 C         -18.3416   -8.7461   18.7922 C.3     1  UNL1        0.0069
     29 C         -17.0090  -10.9602   18.5241 C.3     1  UNL1        0.0069
@<TRIPOS>BOND
     1    11    12    1
     2    12    13    2
     3    12    14   am
     4    14     9    1
     5     9    10    1
     6     9     7    1
     7     7     8    2
     8     8     1    1
     9     1     2   ar
    10     2     3   ar
    11     3     4   ar
    12     4    16    1
    13    16    17    1
    14    17    18   ar
    15    18    19   ar
    16    19    20   ar
    17    20    21   ar
    18    21    22   ar
    19    22    27    1
    20    27    28    1
    21    27    29    1
    22    22    23   ar
    23    23    24   ar
    24    24    25   ar
    25    25    26    1
    26     4     5   ar
    27     5     6   ar
    28     6     1   ar
    29    25    17   ar
    30    24    20   ar
    31    14    15    1
@<TRIPOS>MOLECULE
*****
 29 31 0 0 0
SMALL
GASTEIGER

@<TRIPOS>ATOM
      1 C           4.8813   -0.0402   34.0842 C.ar    1  UNL1        0.0191
      2 C           6.3567   -0.2592   33.9246 C.ar    1  UNL1        0.0063
      3 C           6.8616   -1.4907   33.2329 C.ar    1  UNL1        0.0581
      4 C           5.8912   -2.5033   32.7008 C.ar    1  UNL1        0.2298
      5 N           4.4159   -2.2843   32.8604 N.ar    1  UNL1       -0.2098
      6 C           3.9110   -1.0527   33.5521 C.ar    1  UNL1        0.1020
      7 C           3.8688    1.1054   36.1847 C.2     1  UNL1       -0.0069
      8 C           4.3764    1.1913   34.7758 C.2     1  UNL1       -0.0014
      9 C           3.3640    2.3369   36.8764 C.3     1  UNL1        0.0939
     10 C           4.1871    3.5910   36.8708 C.3     1  UNL1        0.0262
     11 C           0.5686    1.6041   39.5965 C.3     1  UNL1        0.0946
     12 C           1.8966    1.6266   38.8993 C.2     1  UNL1        0.2232
     13 O           3.0850    0.9612   39.5278 O.2     1  UNL1       -0.2751
     14 N           2.0360    2.3145   37.5736 N.am    1  UNL1       -0.3022
     15 H           1.2560    2.7512   37.1611 H       1  UNL1        0.1497
     16 O           6.3961   -3.7348   32.0092 O.3     1  UNL1       -0.4338
     17 C           6.5873   -3.7343   30.5213 C.ar    1  UNL1        0.1750
     18 C           6.3542   -2.4780   29.7357 C.ar    1  UNL1        0.0415
     19 C           6.5454   -2.4775   28.2478 C.ar    1  UNL1        0.0229
     20 C           6.9696   -3.7333   27.5458 C.ar    1  UNL1        0.0899
     21 N           7.2354   -4.0343   26.1006 N.ar    1  UNL1       -0.2427
     22 C           7.6328   -5.4767   25.9931 C.ar    1  UNL1        0.0879
     23 S           7.6125   -6.0672   27.3719 S.2     1  UNL1       -0.0684
     24 C           7.2026   -4.9896   28.3315 C.ar    1  UNL1        0.0786
     25 C           7.0115   -4.9901   29.8193 C.ar    1  UNL1        0.1818
     26 F           7.2445   -6.2464   30.6050 F       1  UNL1       -0.2004
     27 C           7.9881   -6.2015   24.7288 C.3     1  UNL1        0.0466
     28 C           8.3191   -7.6640   24.7704 C.3     1  UNL1        0.0069
     29 C           8.0123   -5.4639   23.4229 C.3     1  UNL1        0.0069
@<TRIPOS>BOND
     1    11    12    1
     2    12    13    2
     3    12    14   am
     4    14     9    1
     5     9    10    1
     6     9     7    1
     7     7     8    2
     8     8     1    1
     9     1     2   ar
    10     2     3   ar
    11     3     4   ar
    12     4    16    1
    13    16    17    1
    14    17    18   ar
    15    18    19   ar
    16    19    20   ar
    17    20    21   ar
    18    21    22   ar
    19    22    27    1
    20    27    28    1
    21    27    29    1
    22    22    23   ar
    23    23    24   ar
    24    24    25   ar
    25    25    26    1
    26     4     5   ar
    27     5     6   ar
    28     6     1   ar
    29    25    17   ar
    30    24    20   ar
    31    14    15    1
@<TRIPOS>MOLECULE
*****
 29 31 0 0 0
SMALL
GASTEIGER

@<TRIPOS>ATOM
      1 C           4.8940   -0.6545   34.5483 C.ar    1  UNL1        0.0191
      2 C           5.6201    0.2762   33.6227 C.ar    1  UNL1        0.0063
      3 C           5.7827   -0.0816   32.1751 C.ar    1  UNL1        0.0581
      4 C           5.2192   -1.3700   31.6531 C.ar    1  UNL1        0.2298
      5 N           4.4932   -2.3007   32.5787 N.ar    1  UNL1       -0.2098
      6 C           4.3306   -1.9429   34.0264 C.ar    1  UNL1        0.1020
      7 C           4.4434    1.1215   36.3902 C.2     1  UNL1       -0.0069
      8 C           4.7315   -0.2967   35.9959 C.2     1  UNL1       -0.0014
      9 C           4.2808    1.4793   37.8378 C.3     1  UNL1        0.0939
     10 C           4.9798    2.6837   38.3957 C.3     1  UNL1        0.0262
     11 C           1.0917    0.0780   39.7392 C.3     1  UNL1        0.0946
     12 C           1.9531    0.9245   38.8495 C.2     1  UNL1        0.2232
     13 O           1.3482    2.0625   38.0821 O.2     1  UNL1       -0.2751
     14 N           3.4194    0.6328   38.7274 N.am    1  UNL1       -0.3022
     15 H           3.8164   -0.1141   39.2311 H       1  UNL1        0.1497
     16 O           5.3818   -1.7278   30.2055 O.3     1  UNL1       -0.4338
     17 C           4.6972   -0.9112   29.1497 C.ar    1  UNL1        0.1750
     18 C           5.4793   -0.3883   27.9815 C.ar    1  UNL1        0.0415
     19 C           4.7947    0.4284   26.9257 C.ar    1  UNL1        0.0229
     20 C           3.3281    0.7220   27.0382 C.ar    1  UNL1        0.0899
     21 N           2.3886    1.4932   26.1593 N.ar    1  UNL1       -0.2427
     22 C           1.0258    1.4469   26.7844 C.ar    1  UNL1        0.0879
     23 S           1.1231    0.6470   28.0496 S.2     1  UNL1       -0.0684
     24 C           2.5460    0.1990   28.2065 C.ar    1  UNL1        0.0786
     25 C           3.2306   -0.6176   29.2622 C.ar    1  UNL1        0.1818
     26 F           2.4485   -1.1405   30.4305 F       1  UNL1       -0.2004
     27 C          -0.2162    2.0878   26.2399 C.3     1  UNL1        0.0466
     28 C          -0.3251    2.3867   24.7740 C.3     1  UNL1        0.0069
     29 C          -1.3494    2.4300   27.1612 C.3     1  UNL1        0.0069
@<TRIPOS>BOND
     1    11    12    1
     2    12    13    2
     3    12    14   am
     4    14     9    1
     5     9    10    1
     6     9     7    1
     7     7     8    2
     8     8     1    1
     9     1     2   ar
    10     2     3   ar
    11     3     4   ar
    12     4    16    1
    13    16    17    1
    14    17    18   ar
    15    18    19   ar
    16    19    20   ar
    17    20    21   ar
    18    21    22   ar
    19    22    27    1
    20    27    28    1
    21    27    29    1
    22    22    23   ar
    23    23    24   ar
    24    24    25   ar
    25    25    26    1
    26     4     5   ar
    27     5     6   ar
    28     6     1   ar
    29    25    17   ar
    30    24    20   ar
    31    14    15    1
@<TRIPOS>MOLECULE
*****
 29 31 0 0 0
SMALL
GASTEIGER

@<TRIPOS>ATOM
      1 C           7.8284   -4.8949   26.7146 C.ar    1  UNL1        0.0191
      2 C           8.1872   -6.1137   25.9170 C.ar    1  UNL1        0.0063
      3 C           7.9554   -6.1352   24.4352 C.ar    1  UNL1        0.0581
      4 C           7.3648   -4.9381   23.7509 C.ar    1  UNL1        0.2298
      5 N           7.0060   -3.7195   24.5485 N.ar    1  UNL1       -0.2098
      6 C           7.2378   -3.6979   26.0304 C.ar    1  UNL1        0.1020
      7 C           7.3231   -5.8312   29.0848 C.2     1  UNL1       -0.0069
      8 C           8.0602   -4.8734   28.1964 C.2     1  UNL1       -0.0014
      9 C           7.5549   -5.8096   30.5666 C.3     1  UNL1        0.0939
     10 C           8.7803   -6.4546   31.1435 C.3     1  UNL1        0.0262
     11 C           5.6747   -3.0063   32.6538 C.3     1  UNL1        0.0946
     12 C           6.6681   -3.6728   31.7489 C.2     1  UNL1        0.2232
     13 O           7.7682   -2.8690   31.1213 O.2     1  UNL1       -0.2751
     14 N           6.5615   -5.1432   31.4715 N.am    1  UNL1       -0.3022
     15 H           5.8395   -5.6707   31.8835 H       1  UNL1        0.1497
     16 O           7.1329   -4.9597   22.2691 O.3     1  UNL1       -0.4338
     17 C           6.6427   -3.7271   21.5687 C.ar    1  UNL1        0.1750
     18 C           7.6243   -2.7676   20.9639 C.ar    1  UNL1        0.0415
     19 C           7.1341   -1.5350   20.2635 C.ar    1  UNL1        0.0229
     20 C           5.6622   -1.2620   20.1680 C.ar    1  UNL1        0.0899
     21 N           4.8882   -0.1388   19.5441 N.ar    1  UNL1       -0.2427
     22 C           3.4282   -0.4041   19.7633 C.ar    1  UNL1        0.0879
     23 S           3.2999   -1.6913   20.5227 S.2     1  UNL1       -0.0684
     24 C           4.6806   -2.2215   20.7728 C.ar    1  UNL1        0.0786
     25 C           5.1709   -3.4541   21.4732 C.ar    1  UNL1        0.1818
     26 F           4.1893   -4.4136   22.0780 F       1  UNL1       -0.2004
     27 C           2.2954    0.4651   19.3038 C.3     1  UNL1        0.0466
     28 C           0.8895    0.1463   19.7184 C.3     1  UNL1        0.0069
     29 C           2.5684    1.6531   18.4297 C.3     1  UNL1        0.0069
@<TRIPOS>BOND
     1    11    12    1
     2    12    13    2
     3    12    14   am
     4    14     9    1
     5     9    10    1
     6     9     7    1
     7     7     8    2
     8     8     1    1
     9     1     2   ar
    10     2     3   ar
    11     3     4   ar
    12     4    16    1
    13    16    17    1
    14    17    18   ar
    15    18    19   ar
    16    19    20   ar
    17    20    21   ar
    18    21    22   ar
    19    22    27    1
    20    27    28    1
    21    27    29    1
    22    22    23   ar
    23    23    24   ar
    24    24    25   ar
    25    25    26    1
    26     4     5   ar
    27     5     6   ar
    28     6     1   ar
    29    25    17   ar
    30    24    20   ar
    31    14    15    1
@<TRIPOS>MOLECULE
*****
 29 31 0 0 0
SMALL
GASTEIGER

@<TRIPOS>ATOM
      1 C           4.9265   -0.6632   34.5852 C.ar    1  UNL1        0.0191
      2 C           5.8278    0.1789   33.7315 C.ar    1  UNL1        0.0063
      3 C           6.0860   -0.2074   32.3053 C.ar    1  UNL1        0.0581
      4 C           5.4430   -1.4357   31.7327 C.ar    1  UNL1        0.2298
      5 N           4.5417   -2.2777   32.5863 N.ar    1  UNL1       -0.2098
      6 C           4.2835   -1.8914   34.0126 C.ar    1  UNL1        0.1020
      7 C           4.6951    1.1679   36.4137 C.2     1  UNL1       -0.0069
      8 C           4.6682   -0.2769   36.0114 C.2     1  UNL1       -0.0014
      9 C           4.4369    1.5542   37.8399 C.3     1  UNL1        0.0939
     10 C           5.0923    2.7738   38.4170 C.3     1  UNL1        0.0262
     11 C           1.1470    0.2130   39.6084 C.3     1  UNL1        0.0946
     12 C           2.0606    1.0463   38.7593 C.2     1  UNL1        0.2232
     13 O           1.5116    2.2049   37.9807 O.2     1  UNL1       -0.2751
     14 N           3.5233    0.7209   38.6890 N.am    1  UNL1       -0.3022
     15 H           3.8836   -0.0395   39.2000 H       1  UNL1        0.1497
     16 O           5.7012   -1.8219   30.3065 O.3     1  UNL1       -0.4338
     17 C           4.9015   -1.1948   29.2031 C.ar    1  UNL1        0.1750
     18 C           3.9642   -0.0637   29.5057 C.ar    1  UNL1        0.0415
     19 C           3.1645    0.5635   28.4023 C.ar    1  UNL1        0.0229
     20 C           3.3024    0.0593   26.9963 C.ar    1  UNL1        0.0899
     21 N           2.6493    0.4764   25.7120 N.ar    1  UNL1       -0.2427
     22 C           3.1832   -0.3971   24.6156 C.ar    1  UNL1        0.0879
     23 S           4.1662   -1.3540   25.2223 S.2     1  UNL1       -0.0684
     24 C           4.2398   -1.0719   26.6937 C.ar    1  UNL1        0.0786
     25 C           5.0394   -1.6990   27.7971 C.ar    1  UNL1        0.1818
     26 F           5.9768   -2.8302   27.4945 F       1  UNL1       -0.2004
     27 C           2.8011   -0.3261   23.1668 C.3     1  UNL1        0.0466
     28 C           1.9128    0.7796   22.6787 C.3     1  UNL1        0.0069
     29 C           3.3075   -1.3608   22.2061 C.3     1  UNL1        0.0069
@<TRIPOS>BOND
     1    11    12    1
     2    12    13    2
     3    12    14   am
     4    14     9    1
     5     9    10    1
     6     9     7    1
     7     7     8    2
     8     8     1    1
     9     1     2   ar
    10     2     3   ar
    11     3     4   ar
    12     4    16    1
    13    16    17    1
    14    17    18   ar
    15    18    19   ar
    16    19    20   ar
    17    20    21   ar
    18    21    22   ar
    19    22    27    1
    20    27    28    1
    21    27    29    1
    22    22    23   ar
    23    23    24   ar
    24    24    25   ar
    25    25    26    1
    26     4     5   ar
    27     5     6   ar
    28     6     1   ar
    29    25    17   ar
    30    24    20   ar
    31    14    15    1
@<TRIPOS>MOLECULE
*****
 29 31 0 0 0
SMALL
GASTEIGER

@<TRIPOS>ATOM
      1 C           2.6158   -0.2572   19.7977 C.ar    1  UNL1        0.0191
      2 C           3.3437    1.0221   19.5079 C.ar    1  UNL1        0.0063
      3 C           2.5766    2.2472   19.1072 C.ar    1  UNL1        0.0581
      4 C           1.0816    2.1932   18.9961 C.ar    1  UNL1        0.2298
      5 N           0.3538    0.9140   19.2859 N.ar    1  UNL1       -0.2098
      6 C           1.1210   -0.3112   19.6867 C.ar    1  UNL1        0.1020
      7 C           3.7069   -2.5318   19.1769 C.2     1  UNL1       -0.0069
      8 C           3.3829   -1.4823   20.1984 C.2     1  UNL1       -0.0014
      9 C           4.4740   -3.7569   19.5777 C.3     1  UNL1        0.0939
     10 C           3.9863   -5.1148   19.1673 C.3     1  UNL1        0.0262
     11 C           6.9181   -3.5475   22.6974 C.3     1  UNL1        0.0946
     12 C           5.6633   -3.6802   21.8863 C.2     1  UNL1        0.2232
     13 O           4.3430   -3.8690   22.5728 O.2     1  UNL1       -0.2751
     14 N           5.7288   -3.6241   20.3888 N.am    1  UNL1       -0.3022
     15 H           6.5954   -3.5002   19.9383 H       1  UNL1        0.1497
     16 O           0.3145    3.4183   18.5953 O.3     1  UNL1       -0.4338
     17 C          -1.0928    3.6128   19.0769 C.ar    1  UNL1        0.1750
     18 C          -2.1943    3.8677   18.0912 C.ar    1  UNL1        0.0415
     19 C          -3.6016    4.0623   18.5727 C.ar    1  UNL1        0.0229
     20 C          -3.9072    4.0019   20.0399 C.ar    1  UNL1        0.0899
     21 N          -5.1882    4.1543   20.8054 N.ar    1  UNL1       -0.2427
     22 C          -4.8783    3.9936   22.2642 C.ar    1  UNL1        0.0879
     23 S          -3.4059    3.7418   22.4004 S.2     1  UNL1       -0.0684
     24 C          -2.8057    3.7469   21.0257 C.ar    1  UNL1        0.0786
     25 C          -1.3985    3.5524   20.5441 C.ar    1  UNL1        0.1818
     26 F          -0.2969    3.2975   21.5298 F       1  UNL1       -0.2004
     27 C          -5.8673    4.0710   23.3894 C.3     1  UNL1        0.0466
     28 C          -5.4064    3.8975   24.8062 C.3     1  UNL1        0.0069
     29 C          -7.3171    4.3219   23.0977 C.3     1  UNL1        0.0069
@<TRIPOS>BOND
     1    11    12    1
     2    12    13    2
     3    12    14   am
     4    14     9    1
     5     9    10    1
     6     9     7    1
     7     7     8    2
     8     8     1    1
     9     1     2   ar
    10     2     3   ar
    11     3     4   ar
    12     4    16    1
    13    16    17    1
    14    17    18   ar
    15    18    19   ar
    16    19    20   ar
    17    20    21   ar
    18    21    22   ar
    19    22    27    1
    20    27    28    1
    21    27    29    1
    22    22    23   ar
    23    23    24   ar
    24    24    25   ar
    25    25    26    1
    26     4     5   ar
    27     5     6   ar
    28     6     1   ar
    29    25    17   ar
    30    24    20   ar
    31    14    15    1
