@<TRIPOS>MOLECULE
*****
 25 27 0 0 0
SMALL
GASTEIGER

@<TRIPOS>ATOM
      1 C          -5.0478  -19.4404   20.0928 C.ar    1  UNL1        0.0008
      2 C          -5.3308  -20.8826   19.7934 C.ar    1  UNL1       -0.0003
      3 C          -6.7472  -21.3732   19.7382 C.ar    1  UNL1       -0.0045
      4 C          -7.8806  -20.4215   19.9824 C.ar    1  UNL1       -0.0247
      5 C          -7.5976  -18.9793   20.2819 C.ar    1  UNL1       -0.0247
      6 C          -6.1812  -18.4887   20.3371 C.ar    1  UNL1       -0.0045
      7 C          -8.9103  -18.2804   20.4782 C.3     1  UNL1        0.0437
      8 C         -10.0046  -19.2908   20.3001 C.3     1  UNL1        0.0838
      9 C          -9.3682  -20.6141   19.9937 C.3     1  UNL1        0.0437
     10 C           0.6179  -17.4779   20.3139 C.3     1  UNL1        0.0521
     11 C          -0.7985  -17.9685   20.2586 C.ar    1  UNL1        0.0590
     12 C          -1.5289  -18.0054   18.9489 C.ar    1  UNL1        0.0147
     13 C          -2.9453  -18.4960   18.8937 C.ar    1  UNL1        0.0024
     14 C          -3.6313  -18.9497   20.1481 C.ar    1  UNL1        0.0136
     15 C          -2.9010  -18.9128   21.4577 C.ar    1  UNL1        0.0589
     16 C          -3.5870  -19.3666   22.7121 C.3     1  UNL1        0.0521
     17 N          -1.4846  -18.4222   21.5130 N.ar    1  UNL1       -0.2540
     18 N         -11.4767  -19.0245   20.4092 N.3     1  UNL1       -0.1841
     19 H         -11.9341  -19.9317   20.5002 H       1  UNL1        0.1484
     20 S         -12.0026  -18.1613   21.5175 S.O2    1  UNL1        0.0390
     21 O         -12.4592  -17.1472   20.5110 O.2     1  UNL1       -0.1576
     22 O         -11.5460  -19.1754   22.5240 O.2     1  UNL1       -0.1576
     23 C         -12.5285  -17.2981   22.6258 C.3     1  UNL1        0.1457
     24 C         -12.1679  -15.8430   22.6787 C.3     1  UNL1        0.0270
     25 C         -13.4150  -17.8899   23.6811 C.3     1  UNL1        0.0270
@<TRIPOS>BOND
     1    10    11    1
     2    11    12   ar
     3    12    13   ar
     4    13    14   ar
     5    14     1    1
     6     1     2   ar
     7     2     3   ar
     8     3     4   ar
     9     4     5   ar
    10     5     6   ar
    11     5     7    1
    12     7     8    1
    13     8    18    1
    14    18    20    1
    15    20    21    2
    16    20    22    2
    17    20    23    1
    18    23    24    1
    19    23    25    1
    20     8     9    1
    21    14    15   ar
    22    15    16    1
    23    15    17   ar
    24    17    11   ar
    25     6     1   ar
    26     9     4    1
    27    18    19    1
@<TRIPOS>MOLECULE
*****
 25 27 0 0 0
SMALL
GASTEIGER

@<TRIPOS>ATOM
      1 C          -4.8305  -18.8976   21.3711 C.ar    1  UNL1        0.0008
      2 C          -5.4784  -20.1893   20.9692 C.ar    1  UNL1       -0.0003
      3 C          -6.8660  -20.5105   21.4397 C.ar    1  UNL1       -0.0045
      4 C          -7.6056  -19.5400   22.3121 C.ar    1  UNL1       -0.0247
      5 C          -6.9577  -18.2483   22.7140 C.ar    1  UNL1       -0.0247
      6 C          -5.5701  -17.9271   22.2435 C.ar    1  UNL1       -0.0045
      7 C          -7.9255  -17.4926   23.5755 C.3     1  UNL1        0.0437
      8 C          -9.1717  -18.3173   23.7061 C.3     1  UNL1        0.0838
      9 C          -8.9740  -19.5827   22.9252 C.3     1  UNL1        0.0437
     10 C           0.7201  -17.6125   19.4894 C.3     1  UNL1        0.0521
     11 C          -0.6675  -17.9338   19.9598 C.ar    1  UNL1        0.0590
     12 C          -1.7425  -18.2520   18.9632 C.ar    1  UNL1        0.0147
     13 C          -3.1301  -18.5732   19.4337 C.ar    1  UNL1        0.0024
     14 C          -3.4428  -18.5763   20.9007 C.ar    1  UNL1        0.0136
     15 C          -2.3679  -18.2581   21.8973 C.ar    1  UNL1        0.0589
     16 C          -2.6806  -18.2612   23.3644 C.3     1  UNL1        0.0521
     17 N          -0.9803  -17.9369   21.4269 N.ar    1  UNL1       -0.2540
     18 N         -10.3999  -17.9424   24.4814 N.3     1  UNL1       -0.1841
     19 H         -10.2438  -17.0017   24.8434 H       1  UNL1        0.1484
     20 S         -11.7388  -17.9296   23.8052 S.O2    1  UNL1        0.0390
     21 O         -11.2674  -16.8367   22.8924 O.2     1  UNL1       -0.1576
     22 O         -12.2102  -19.0226   24.7180 O.2     1  UNL1       -0.1576
     23 C         -13.0777  -17.9169   23.1291 C.3     1  UNL1        0.1457
     24 C         -13.1648  -17.7501   21.6409 C.3     1  UNL1        0.0270
     25 C         -14.3294  -18.0709   23.9410 C.3     1  UNL1        0.0270
@<TRIPOS>BOND
     1    10    11    1
     2    11    12   ar
     3    12    13   ar
     4    13    14   ar
     5    14     1    1
     6     1     2   ar
     7     2     3   ar
     8     3     4   ar
     9     4     5   ar
    10     5     6   ar
    11     5     7    1
    12     7     8    1
    13     8    18    1
    14    18    20    1
    15    20    21    2
    16    20    22    2
    17    20    23    1
    18    23    24    1
    19    23    25    1
    20     8     9    1
    21    14    15   ar
    22    15    16    1
    23    15    17   ar
    24    17    11   ar
    25     6     1   ar
    26     9     4    1
    27    18    19    1
@<TRIPOS>MOLECULE
*****
 25 27 0 0 0
SMALL
GASTEIGER

@<TRIPOS>ATOM
      1 C         -14.8518    0.4847   18.8771 C.ar    1  UNL1        0.0008
      2 C         -15.5026   -0.6605   19.5947 C.ar    1  UNL1       -0.0003
      3 C         -14.7556   -1.9470   19.7868 C.ar    1  UNL1       -0.0045
      4 C         -13.3577   -2.0882   19.2614 C.ar    1  UNL1       -0.0247
      5 C         -12.7069   -0.9431   18.5438 C.ar    1  UNL1       -0.0247
      6 C         -13.4540    0.3434   18.3516 C.ar    1  UNL1       -0.0045
      7 C         -11.3281   -1.3732   18.1391 C.3     1  UNL1        0.0437
      8 C         -11.1267   -2.7842   18.6065 C.3     1  UNL1        0.0838
      9 C         -12.3811   -3.2261   19.3002 C.3     1  UNL1        0.0437
     10 C         -17.8399    5.6306   18.1082 C.3     1  UNL1        0.0521
     11 C         -17.0929    4.3442   18.3005 C.ar    1  UNL1        0.0590
     12 C         -16.2557    4.1392   19.5281 C.ar    1  UNL1        0.0147
     13 C         -15.5086    2.8527   19.7203 C.ar    1  UNL1        0.0024
     14 C         -15.5989    1.7712   18.6849 C.ar    1  UNL1        0.0136
     15 C         -16.4361    1.9761   17.4573 C.ar    1  UNL1        0.0589
     16 C         -16.5263    0.8945   16.4218 C.3     1  UNL1        0.0521
     17 N         -17.1831    3.2625   17.2650 N.ar    1  UNL1       -0.2540
     18 N          -9.8883   -3.6085   18.4141 N.3     1  UNL1       -0.1841
     19 H          -9.2901   -3.4341   19.2217 H       1  UNL1        0.1484
     20 S          -9.9939   -5.0975   18.2669 S.O2    1  UNL1        0.0390
     21 O         -10.6833   -4.9181   16.9468 O.2     1  UNL1       -0.1576
     22 O          -9.3045   -5.2769   19.5869 O.2     1  UNL1       -0.1576
     23 C         -10.0995   -6.5865   18.1196 C.3     1  UNL1        0.1457
     24 C         -11.0258   -7.1753   17.0971 C.3     1  UNL1        0.0270
     25 C          -9.2789   -7.4868   18.9948 C.3     1  UNL1        0.0270
@<TRIPOS>BOND
     1    10    11    1
     2    11    12   ar
     3    12    13   ar
     4    13    14   ar
     5    14     1    1
     6     1     2   ar
     7     2     3   ar
     8     3     4   ar
     9     4     5   ar
    10     5     6   ar
    11     5     7    1
    12     7     8    1
    13     8    18    1
    14    18    20    1
    15    20    21    2
    16    20    22    2
    17    20    23    1
    18    23    24    1
    19    23    25    1
    20     8     9    1
    21    14    15   ar
    22    15    16    1
    23    15    17   ar
    24    17    11   ar
    25     6     1   ar
    26     9     4    1
    27    18    19    1
@<TRIPOS>MOLECULE
*****
 25 27 0 0 0
SMALL
GASTEIGER

@<TRIPOS>ATOM
      1 C         -12.4212   -2.6060   18.1384 C.ar    1  UNL1        0.0008
      2 C         -11.0727   -3.0814   18.5919 C.ar    1  UNL1       -0.0003
      3 C         -10.8643   -4.5257   18.9387 C.ar    1  UNL1       -0.0045
      4 C         -12.0043   -5.4947   18.8321 C.ar    1  UNL1       -0.0247
      5 C         -13.3528   -5.0194   18.3786 C.ar    1  UNL1       -0.0247
      6 C         -13.5612   -3.5750   18.0317 C.ar    1  UNL1       -0.0045
      7 C         -14.2810   -6.1977   18.3703 C.3     1  UNL1        0.0437
      8 C         -13.5062   -7.4013   18.8187 C.3     1  UNL1        0.0838
      9 C         -12.0991   -6.9669   19.1041 C.3     1  UNL1        0.0437
     10 C         -13.2550    3.1715   16.7509 C.3     1  UNL1        0.0521
     11 C         -13.0466    1.7272   17.0978 C.ar    1  UNL1        0.0590
     12 C         -13.8715    1.0880   18.1753 C.ar    1  UNL1        0.0147
     13 C         -13.6630   -0.3564   18.5222 C.ar    1  UNL1        0.0024
     14 C         -12.6297   -1.1616   17.7915 C.ar    1  UNL1        0.0136
     15 C         -11.8048   -0.5224   16.7140 C.ar    1  UNL1        0.0589
     16 C         -10.7714   -1.3277   15.9834 C.3     1  UNL1        0.0521
     17 N         -12.0132    0.9219   16.3672 N.ar    1  UNL1       -0.2540
     18 N         -14.0440   -8.7947   18.9574 N.3     1  UNL1       -0.1841
     19 H         -13.9802   -9.0380   19.9459 H       1  UNL1        0.1484
     20 S         -15.4468   -9.1036   18.5252 S.O2    1  UNL1        0.0390
     21 O         -15.8699   -9.1919   19.9616 O.2     1  UNL1       -0.1576
     22 O         -15.0238   -9.0152   17.0888 O.2     1  UNL1       -0.1576
     23 C         -16.8496   -9.4124   18.0930 C.3     1  UNL1        0.1457
     24 C         -17.6635   -8.3694   17.3860 C.3     1  UNL1        0.0270
     25 C         -17.4386  -10.7643   18.3678 C.3     1  UNL1        0.0270
@<TRIPOS>BOND
     1    10    11    1
     2    11    12   ar
     3    12    13   ar
     4    13    14   ar
     5    14     1    1
     6     1     2   ar
     7     2     3   ar
     8     3     4   ar
     9     4     5   ar
    10     5     6   ar
    11     5     7    1
    12     7     8    1
    13     8    18    1
    14    18    20    1
    15    20    21    2
    16    20    22    2
    17    20    23    1
    18    23    24    1
    19    23    25    1
    20     8     9    1
    21    14    15   ar
    22    15    16    1
    23    15    17   ar
    24    17    11   ar
    25     6     1   ar
    26     9     4    1
    27    18    19    1
@<TRIPOS>MOLECULE
*****
 25 27 0 0 0
SMALL
GASTEIGER

@<TRIPOS>ATOM
      1 C           6.5049   -1.2150   33.3577 C.ar    1  UNL1        0.0008
      2 C           7.7920   -0.7301   33.9562 C.ar    1  UNL1       -0.0003
      3 C           7.7685    0.2158   35.1201 C.ar    1  UNL1       -0.0045
      4 C           6.4579    0.6768   35.6855 C.ar    1  UNL1       -0.0247
      5 C           5.1708    0.1920   35.0870 C.ar    1  UNL1       -0.0247
      6 C           5.1943   -0.7540   33.9232 C.ar    1  UNL1       -0.0045
      7 C           4.0405    0.8147   35.8517 C.3     1  UNL1        0.0437
      8 C           4.6291    1.6844   36.9227 C.3     1  UNL1        0.0838
      9 C           6.1231    1.5993   36.8200 C.3     1  UNL1        0.0437
     10 C           6.5988   -4.9987   28.7020 C.3     1  UNL1        0.0521
     11 C           6.5753   -4.0528   29.8659 C.ar    1  UNL1        0.0590
     12 C           6.7166   -4.5794   31.2633 C.ar    1  UNL1        0.0147
     13 C           6.6932   -3.6335   32.4273 C.ar    1  UNL1        0.0024
     14 C           6.5284   -2.1610   32.1938 C.ar    1  UNL1        0.0136
     15 C           6.3871   -1.6343   30.7964 C.ar    1  UNL1        0.0589
     16 C           6.2223   -0.1618   30.5630 C.3     1  UNL1        0.0521
     17 N           6.4105   -2.5802   29.6325 N.ar    1  UNL1       -0.2540
     18 N           3.8588    2.4968   37.9212 N.3     1  UNL1       -0.1841
     19 H           3.6001    3.3669   37.4560 H       1  UNL1        0.1484
     20 S           2.6055    1.9430   38.5316 S.O2    1  UNL1        0.0390
     21 O           3.4292    1.0609   39.4223 O.2     1  UNL1       -0.1576
     22 O           1.7818    2.8251   37.6408 O.2     1  UNL1       -0.1576
     23 C           1.3522    1.3892   39.1420 C.3     1  UNL1        0.1457
     24 C           1.2730   -0.0646   39.5033 C.3     1  UNL1        0.0270
     25 C           0.1783    2.2890   39.3911 C.3     1  UNL1        0.0270
@<TRIPOS>BOND
     1    10    11    1
     2    11    12   ar
     3    12    13   ar
     4    13    14   ar
     5    14     1    1
     6     1     2   ar
     7     2     3   ar
     8     3     4   ar
     9     4     5   ar
    10     5     6   ar
    11     5     7    1
    12     7     8    1
    13     8    18    1
    14    18    20    1
    15    20    21    2
    16    20    22    2
    17    20    23    1
    18    23    24    1
    19    23    25    1
    20     8     9    1
    21    14    15   ar
    22    15    16    1
    23    15    17   ar
    24    17    11   ar
    25     6     1   ar
    26     9     4    1
    27    18    19    1
@<TRIPOS>MOLECULE
*****
 25 27 0 0 0
SMALL
GASTEIGER

@<TRIPOS>ATOM
      1 C         -12.6014   -2.4882   18.7844 C.ar    1  UNL1        0.0008
      2 C         -12.0627   -1.3226   18.0092 C.ar    1  UNL1       -0.0003
      3 C         -12.8232   -0.0302   17.9730 C.ar    1  UNL1       -0.0045
      4 C         -14.1224    0.0965   18.7120 C.ar    1  UNL1       -0.0247
      5 C         -14.6611   -1.0691   19.4872 C.ar    1  UNL1       -0.0247
      6 C         -13.9006   -2.3615   19.5234 C.ar    1  UNL1       -0.0045
      7 C         -15.9584   -0.6501   20.1126 C.3     1  UNL1        0.0437
      8 C         -16.2216    0.7746   19.7240 C.3     1  UNL1        0.0838
      9 C         -15.0868    1.2361   18.8583 C.3     1  UNL1        0.0437
     10 C          -9.5597   -7.6581   18.9293 C.3     1  UNL1        0.0521
     11 C         -10.3201   -6.3657   18.8930 C.ar    1  UNL1        0.0590
     12 C          -9.5806   -5.0613   18.8525 C.ar    1  UNL1        0.0147
     13 C         -10.3410   -3.7688   18.8163 C.ar    1  UNL1        0.0024
     14 C         -11.8410   -3.7807   18.8206 C.ar    1  UNL1        0.0136
     15 C         -12.5805   -5.0851   18.8612 C.ar    1  UNL1        0.0589
     16 C         -14.0805   -5.0970   18.8655 C.3     1  UNL1        0.0521
     17 N         -11.8201   -6.3776   18.8974 N.ar    1  UNL1       -0.2540
     18 N         -17.4108    1.5940   20.1298 N.3     1  UNL1       -0.1841
     19 H         -18.2342    1.0097   19.9850 H       1  UNL1        0.1484
     20 S         -17.5058    2.1384   21.5243 S.O2    1  UNL1        0.0390
     21 O         -16.5017    3.1979   21.1791 O.2     1  UNL1       -0.1576
     22 O         -18.5100    1.0789   21.8694 O.2     1  UNL1       -0.1576
     23 C         -17.6009    2.6828   22.9187 C.3     1  UNL1        0.1457
     24 C         -18.7336    2.2676   23.8103 C.3     1  UNL1        0.0270
     25 C         -16.5635    3.6423   23.4216 C.3     1  UNL1        0.0270
@<TRIPOS>BOND
     1    10    11    1
     2    11    12   ar
     3    12    13   ar
     4    13    14   ar
     5    14     1    1
     6     1     2   ar
     7     2     3   ar
     8     3     4   ar
     9     4     5   ar
    10     5     6   ar
    11     5     7    1
    12     7     8    1
    13     8    18    1
    14    18    20    1
    15    20    21    2
    16    20    22    2
    17    20    23    1
    18    23    24    1
    19    23    25    1
    20     8     9    1
    21    14    15   ar
    22    15    16    1
    23    15    17   ar
    24    17    11   ar
    25     6     1   ar
    26     9     4    1
    27    18    19    1
@<TRIPOS>MOLECULE
*****
 25 27 0 0 0
SMALL
GASTEIGER

@<TRIPOS>ATOM
      1 C           1.8102    1.3814   30.8355 C.ar    1  UNL1        0.0008
      2 C           2.8182    0.2810   30.9874 C.ar    1  UNL1       -0.0003
      3 C           3.5114    0.0751   32.3015 C.ar    1  UNL1       -0.0045
      4 C           3.1965    0.9694   33.4638 C.ar    1  UNL1       -0.0247
      5 C           2.1885    2.0698   33.3120 C.ar    1  UNL1       -0.0247
      6 C           1.4954    2.2758   31.9978 C.ar    1  UNL1       -0.0045
      7 C           2.0848    2.7878   34.6249 C.3     1  UNL1        0.0437
      8 C           3.0287    2.1312   35.5882 C.3     1  UNL1        0.0838
      9 C           3.7158    1.0074   34.8706 C.3     1  UNL1        0.0437
     10 C          -0.9625    2.2055   25.5788 C.3     1  UNL1        0.0521
     11 C          -0.2693    1.9995   26.8929 C.ar    1  UNL1        0.0590
     12 C          -0.8652    1.0824   27.9195 C.ar    1  UNL1        0.0147
     13 C          -0.1720    0.8764   29.2337 C.ar    1  UNL1        0.0024
     14 C           1.1170    1.5874   29.5213 C.ar    1  UNL1        0.0136
     15 C           1.7129    2.5045   28.4947 C.ar    1  UNL1        0.0589
     16 C           3.0020    3.2156   28.7824 C.3     1  UNL1        0.0521
     17 N           1.0198    2.7105   27.1806 N.ar    1  UNL1       -0.2540
     18 N           3.2471    2.5286   37.0180 N.3     1  UNL1       -0.1841
     19 H           3.1887    3.5464   37.0529 H       1  UNL1        0.1484
     20 S           2.3366    2.0057   38.0893 S.O2    1  UNL1        0.0390
     21 O           3.2922    0.8797   38.3518 O.2     1  UNL1       -0.1576
     22 O           1.3810    3.1317   37.8267 O.2     1  UNL1       -0.1576
     23 C           1.4261    1.4827   39.1605 C.3     1  UNL1        0.1457
     24 C           1.4454    0.0254   39.5157 C.3     1  UNL1        0.0270
     25 C           0.4964    2.4169   39.8766 C.3     1  UNL1        0.0270
@<TRIPOS>BOND
     1    10    11    1
     2    11    12   ar
     3    12    13   ar
     4    13    14   ar
     5    14     1    1
     6     1     2   ar
     7     2     3   ar
     8     3     4   ar
     9     4     5   ar
    10     5     6   ar
    11     5     7    1
    12     7     8    1
    13     8    18    1
    14    18    20    1
    15    20    21    2
    16    20    22    2
    17    20    23    1
    18    23    24    1
    19    23    25    1
    20     8     9    1
    21    14    15   ar
    22    15    16    1
    23    15    17   ar
    24    17    11   ar
    25     6     1   ar
    26     9     4    1
    27    18    19    1
@<TRIPOS>MOLECULE
*****
 25 27 0 0 0
SMALL
GASTEIGER

@<TRIPOS>ATOM
      1 C           7.2600   -3.9942   25.0725 C.ar    1  UNL1        0.0008
      2 C           8.6239   -4.1536   24.4688 C.ar    1  UNL1       -0.0003
      3 C           8.7882   -4.1581   22.9778 C.ar    1  UNL1       -0.0045
      4 C           7.5887   -4.0032   22.0906 C.ar    1  UNL1       -0.0247
      5 C           6.2248   -3.8438   22.6943 C.ar    1  UNL1       -0.0247
      6 C           6.0605   -3.8393   24.1852 C.ar    1  UNL1       -0.0045
      7 C           5.2350   -3.7120   21.5750 C.3     1  UNL1        0.0437
      8 C           5.9871   -3.7899   20.2795 C.3     1  UNL1        0.0838
      9 C           7.4418   -3.9699   20.5981 C.3     1  UNL1        0.0437
     10 C           6.6025   -3.9762   31.0363 C.3     1  UNL1        0.0521
     11 C           6.7669   -3.9807   29.5454 C.ar    1  UNL1        0.0590
     12 C           6.9665   -2.6893   28.8090 C.ar    1  UNL1        0.0147
     13 C           7.1309   -2.6938   27.3180 C.ar    1  UNL1        0.0024
     14 C           7.0956   -3.9897   26.5635 C.ar    1  UNL1        0.0136
     15 C           6.8960   -5.2811   27.2999 C.ar    1  UNL1        0.0589
     16 C           6.8608   -6.5771   26.5453 C.3     1  UNL1        0.0521
     17 N           6.7316   -5.2767   28.7908 N.ar    1  UNL1       -0.2540
     18 N           5.3894   -3.7031   18.9064 N.3     1  UNL1       -0.1841
     19 H           4.4545   -4.1065   18.9662 H       1  UNL1        0.1484
     20 S           5.2437   -2.3698   18.2348 S.O2    1  UNL1        0.0390
     21 O           6.5795   -2.5545   17.5781 O.2     1  UNL1       -0.1576
     22 O           3.9078   -2.1851   18.8916 O.2     1  UNL1       -0.1576
     23 C           5.0979   -1.0364   17.5633 C.3     1  UNL1        0.1457
     24 C           6.2943   -0.1479   17.3926 C.3     1  UNL1        0.0270
     25 C           3.7558   -0.5917   17.0625 C.3     1  UNL1        0.0270
@<TRIPOS>BOND
     1    10    11    1
     2    11    12   ar
     3    12    13   ar
     4    13    14   ar
     5    14     1    1
     6     1     2   ar
     7     2     3   ar
     8     3     4   ar
     9     4     5   ar
    10     5     6   ar
    11     5     7    1
    12     7     8    1
    13     8    18    1
    14    18    20    1
    15    20    21    2
    16    20    22    2
    17    20    23    1
    18    23    24    1
    19    23    25    1
    20     8     9    1
    21    14    15   ar
    22    15    16    1
    23    15    17   ar
    24    17    11   ar
    25     6     1   ar
    26     9     4    1
    27    18    19    1
@<TRIPOS>MOLECULE
*****
 25 27 0 0 0
SMALL
GASTEIGER

@<TRIPOS>ATOM
      1 C           0.5096    3.1413   18.3141 C.ar    1  UNL1        0.0008
      2 C           1.5833    4.1846   18.4072 C.ar    1  UNL1       -0.0003
      3 C           3.0232    3.7733   18.4932 C.ar    1  UNL1       -0.0045
      4 C           3.3894    2.3187   18.4861 C.ar    1  UNL1       -0.0247
      5 C           2.3158    1.2754   18.3931 C.ar    1  UNL1       -0.0247
      6 C           0.8758    1.6867   18.3071 C.ar    1  UNL1       -0.0045
      7 C           2.9757   -0.0715   18.4077 C.3     1  UNL1        0.0437
      8 C           4.4574    0.1393   18.5097 C.3     1  UNL1        0.0838
      9 C           4.7131    1.6166   18.5582 C.3     1  UNL1        0.0437
     10 C          -5.2503    4.7863   17.9702 C.3     1  UNL1        0.0521
     11 C          -3.8103    4.3751   18.0562 C.ar    1  UNL1        0.0590
     12 C          -2.9833    4.2744   16.8088 C.ar    1  UNL1        0.0147
     13 C          -1.5433    3.8631   16.8948 C.ar    1  UNL1        0.0024
     14 C          -0.9304    3.5526   18.2281 C.ar    1  UNL1        0.0136
     15 C          -1.7574    3.6533   19.4755 C.ar    1  UNL1        0.0589
     16 C          -1.1444    3.3427   20.8089 C.3     1  UNL1        0.0521
     17 N          -3.1973    4.0645   19.3896 N.ar    1  UNL1       -0.2540
     18 N           5.5002   -0.9380   18.5553 N.3     1  UNL1       -0.1841
     19 H           6.2808   -0.5694   19.0986 H       1  UNL1        0.1484
     20 S           5.1661   -2.2811   19.1335 S.O2    1  UNL1        0.0390
     21 O           5.2242   -2.8860   17.7621 O.2     1  UNL1       -0.1576
     22 O           5.1080   -1.6763   20.5050 O.2     1  UNL1       -0.1576
     23 C           4.8321   -3.6243   19.7118 C.3     1  UNL1        0.1457
     24 C           4.7245   -3.7952   21.1982 C.3     1  UNL1        0.0270
     25 C           4.6056   -4.7965   18.8037 C.3     1  UNL1        0.0270
@<TRIPOS>BOND
     1    10    11    1
     2    11    12   ar
     3    12    13   ar
     4    13    14   ar
     5    14     1    1
     6     1     2   ar
     7     2     3   ar
     8     3     4   ar
     9     4     5   ar
    10     5     6   ar
    11     5     7    1
    12     7     8    1
    13     8    18    1
    14    18    20    1
    15    20    21    2
    16    20    22    2
    17    20    23    1
    18    23    24    1
    19    23    25    1
    20     8     9    1
    21    14    15   ar
    22    15    16    1
    23    15    17   ar
    24    17    11   ar
    25     6     1   ar
    26     9     4    1
    27    18    19    1
