@<TRIPOS>MOLECULE
*****
 26 28 0 0 0
SMALL
GASTEIGER

@<TRIPOS>ATOM
      1 C          -9.0444  -17.9254   21.6290 C.ar    1  UNL1        0.1374
      2 C          -8.7707  -17.0467   22.8135 C.ar    1  UNL1        0.0612
      3 C          -9.9097  -16.4160   23.5584 C.ar    1  UNL1        0.1483
      4 C         -11.3222  -16.6640   23.1189 C.ar    1  UNL1        0.0522
      5 C         -11.5958  -17.5426   21.9344 C.ar    1  UNL1        0.0625
      6 C         -13.0084  -17.7906   21.4949 C.3     1  UNL1        0.0522
      7 N         -10.4569  -18.1733   21.1895 N.ar    1  UNL1       -0.2449
      8 N          -6.5264  -18.5466   21.4740 N.am    1  UNL1       -0.2646
      9 C          -7.9054  -18.5562   20.8840 C.2     1  UNL1        0.2684
     10 O          -8.1455  -19.1965   19.5490 O.2     1  UNL1       -0.2681
     11 H          -6.3688  -18.1263   22.3503 H       1  UNL1        0.1566
     12 C          -3.1198  -18.9582   19.4800 C.ar    1  UNL1        0.0604
     13 C          -3.1096  -20.4387   19.2390 C.ar    1  UNL1        0.0148
     14 C          -4.2382  -21.2885   19.7430 C.ar    1  UNL1        0.0041
     15 C          -5.3771  -20.6578   20.4880 C.ar    1  UNL1        0.0345
     16 C          -5.3874  -19.1773   20.7290 C.ar    1  UNL1        0.1340
     17 N          -4.2587  -18.3276   20.2250 N.ar    1  UNL1       -0.2348
     18 C          -0.6956  -18.0581   19.7302 C.3     1  UNL1        0.0067
     19 C          -1.9912  -18.1085   18.9760 C.3     1  UNL1        0.0459
     20 O          -9.6361  -15.5373   24.7430 O.3     1  UNL1       -0.4502
     21 C          -8.2391  -15.4072   25.2736 C.ar    1  UNL1        0.1835
     22 C          -7.1458  -14.8871   24.3879 C.ar    1  UNL1        0.1396
     23 N          -5.7489  -14.7570   24.9184 N.ar    1  UNL1       -0.2192
     24 C          -5.4451  -15.1470   26.3347 C.ar    1  UNL1        0.1991
     25 N          -6.5383  -15.6672   27.2203 N.ar    1  UNL1       -0.2192
     26 C          -7.9353  -15.7973   26.6897 C.ar    1  UNL1        0.1396
@<TRIPOS>BOND
     1    18    19    1
     2    19    12    1
     3    12    13   ar
     4    13    14   ar
     5    14    15   ar
     6    15    16   ar
     7    16     8    1
     8     8     9   am
     9     9    10    2
    10     9     1    1
    11     1     2   ar
    12     2     3   ar
    13     3    20    1
    14    20    21    1
    15    21    22   ar
    16    22    23   ar
    17    23    24   ar
    18    24    25   ar
    19    25    26   ar
    20     3     4   ar
    21     4     5   ar
    22     5     6    1
    23     5     7   ar
    24    16    17   ar
    25    17    12   ar
    26     7     1   ar
    27    26    21   ar
    28     8    11    1
@<TRIPOS>MOLECULE
*****
 26 28 0 0 0
SMALL
GASTEIGER

@<TRIPOS>ATOM
      1 C          -6.5485  -16.3862   24.0742 C.ar    1  UNL1        0.1374
      2 C          -7.9362  -16.4718   23.5114 C.ar    1  UNL1        0.0612
      3 C          -9.1106  -16.0523   24.3449 C.ar    1  UNL1        0.1483
      4 C          -8.8973  -15.5472   25.7411 C.ar    1  UNL1        0.0522
      5 C          -7.5095  -15.4616   26.3039 C.ar    1  UNL1        0.0625
      6 C          -7.2962  -14.9566   27.7001 C.3     1  UNL1        0.0522
      7 N          -6.3351  -15.8811   25.4704 N.ar    1  UNL1       -0.2449
      8 N          -5.4338  -18.0765   22.4463 N.am    1  UNL1       -0.2646
      9 C          -5.3739  -16.8057   23.2407 C.2     1  UNL1        0.2684
     10 O          -4.1396  -15.9542   23.2017 O.2     1  UNL1       -0.2681
     11 H          -6.2439  -18.6354   22.4718 H       1  UNL1        0.1566
     12 C          -1.9600  -17.9546   20.5309 C.ar    1  UNL1        0.0604
     13 C          -1.9103  -19.3349   19.9459 C.ar    1  UNL1        0.0148
     14 C          -3.0350  -20.2958   20.1944 C.ar    1  UNL1        0.0041
     15 C          -4.2095  -19.8763   21.0278 C.ar    1  UNL1        0.0345
     16 C          -4.2592  -18.4960   21.6128 C.ar    1  UNL1        0.1340
     17 N          -3.1345  -17.5352   21.3643 N.ar    1  UNL1       -0.2348
     18 C           0.5604  -17.5071   20.0870 C.3     1  UNL1        0.0067
     19 C          -0.8353  -16.9937   20.2824 C.3     1  UNL1        0.0459
     20 O         -10.4985  -16.1378   23.7822 O.3     1  UNL1       -0.4502
     21 C         -10.7290  -16.7880   22.4502 C.ar    1  UNL1        0.1835
     22 C         -11.0614  -18.2489   22.3762 C.ar    1  UNL1        0.1396
     23 N         -11.2919  -18.8990   21.0442 N.ar    1  UNL1       -0.2192
     24 C         -11.1898  -18.0883   19.7862 C.ar    1  UNL1        0.1991
     25 N         -10.8574  -16.6275   19.8603 N.ar    1  UNL1       -0.2192
     26 C         -10.6269  -15.9774   21.1923 C.ar    1  UNL1        0.1396
@<TRIPOS>BOND
     1    18    19    1
     2    19    12    1
     3    12    13   ar
     4    13    14   ar
     5    14    15   ar
     6    15    16   ar
     7    16     8    1
     8     8     9   am
     9     9    10    2
    10     9     1    1
    11     1     2   ar
    12     2     3   ar
    13     3    20    1
    14    20    21    1
    15    21    22   ar
    16    22    23   ar
    17    23    24   ar
    18    24    25   ar
    19    25    26   ar
    20     3     4   ar
    21     4     5   ar
    22     5     6    1
    23     5     7   ar
    24    16    17   ar
    25    17    12   ar
    26     7     1   ar
    27    26    21   ar
    28     8    11    1
@<TRIPOS>MOLECULE
*****
 26 28 0 0 0
SMALL
GASTEIGER

@<TRIPOS>ATOM
      1 C          -6.8429  -17.3704   23.1741 C.ar    1  UNL1        0.1374
      2 C          -5.6969  -18.1884   22.6569 C.ar    1  UNL1        0.0612
      3 C          -4.3042  -17.9218   23.1461 C.ar    1  UNL1        0.1483
      4 C          -4.0576  -16.8372   24.1525 C.ar    1  UNL1        0.0522
      5 C          -5.2036  -16.0192   24.6697 C.ar    1  UNL1        0.0625
      6 C          -4.9569  -14.9347   25.6761 C.3     1  UNL1        0.0522
      7 N          -6.5962  -16.2859   24.1805 N.ar    1  UNL1       -0.2449
      8 N          -9.3662  -16.7538   23.1225 N.am    1  UNL1       -0.2646
      9 C          -8.2356  -17.6370   22.6849 C.2     1  UNL1        0.2684
     10 O          -8.4977  -18.7869   21.7579 O.2     1  UNL1       -0.2681
     11 H          -9.1942  -15.9991   23.7309 H       1  UNL1        0.1566
     12 C         -13.2088  -17.7457   23.1043 C.ar    1  UNL1        0.0604
     13 C         -13.5443  -17.5535   21.6550 C.ar    1  UNL1        0.0148
     14 C         -12.4871  -17.0948   20.6949 C.ar    1  UNL1        0.0041
     15 C         -11.0944  -16.8282   21.1840 C.ar    1  UNL1        0.0345
     16 C         -10.7589  -17.0204   22.6333 C.ar    1  UNL1        0.1340
     17 N         -11.8162  -17.4791   23.5934 N.ar    1  UNL1       -0.2348
     18 C         -13.9072  -18.4981   25.4909 C.3     1  UNL1        0.0067
     19 C         -14.2661  -18.2044   24.0644 C.3     1  UNL1        0.0459
     20 O          -3.1581  -18.7398   22.6290 O.3     1  UNL1       -0.4502
     21 C          -2.5484  -18.4185   21.2967 C.ar    1  UNL1        0.1835
     22 C          -2.9861  -19.1655   20.0717 C.ar    1  UNL1        0.1396
     23 N          -2.3764  -18.8442   18.7394 N.ar    1  UNL1       -0.2192
     24 C          -1.3289  -17.7758   18.6321 C.ar    1  UNL1        0.1991
     25 N          -0.8912  -17.0289   19.8570 N.ar    1  UNL1       -0.2192
     26 C          -1.5009  -17.3502   21.1893 C.ar    1  UNL1        0.1396
@<TRIPOS>BOND
     1    18    19    1
     2    19    12    1
     3    12    13   ar
     4    13    14   ar
     5    14    15   ar
     6    15    16   ar
     7    16     8    1
     8     8     9   am
     9     9    10    2
    10     9     1    1
    11     1     2   ar
    12     2     3   ar
    13     3    20    1
    14    20    21    1
    15    21    22   ar
    16    22    23   ar
    17    23    24   ar
    18    24    25   ar
    19    25    26   ar
    20     3     4   ar
    21     4     5   ar
    22     5     6    1
    23     5     7   ar
    24    16    17   ar
    25    17    12   ar
    26     7     1   ar
    27    26    21   ar
    28     8    11    1
@<TRIPOS>MOLECULE
*****
 26 28 0 0 0
SMALL
GASTEIGER

@<TRIPOS>ATOM
      1 C          -7.5993  -16.3865   24.3549 C.ar    1  UNL1        0.1374
      2 C          -6.3790  -16.3584   23.4832 C.ar    1  UNL1        0.0612
      3 C          -5.1036  -15.7594   23.9975 C.ar    1  UNL1        0.1483
      4 C          -5.0486  -15.1885   25.3836 C.ar    1  UNL1        0.0522
      5 C          -6.2690  -15.2166   26.2553 C.ar    1  UNL1        0.0625
      6 C          -6.2139  -14.6457   27.6413 C.3     1  UNL1        0.0522
      7 N          -7.5443  -15.8156   25.7409 N.ar    1  UNL1       -0.2449
      8 N          -9.9437  -16.0998   23.2723 N.am    1  UNL1       -0.2646
      9 C          -8.8748  -16.9855   23.8406 C.2     1  UNL1        0.2684
     10 O          -9.0813  -18.4703   23.8947 O.2     1  UNL1       -0.2681
     11 H          -9.8081  -15.1254   23.2368 H       1  UNL1        0.1566
     12 C         -13.5143  -17.8309   23.2060 C.ar    1  UNL1        0.0604
     13 C         -13.7699  -17.8969   21.7295 C.ar    1  UNL1        0.0148
     14 C         -12.7502  -17.3639   20.7672 C.ar    1  UNL1        0.0041
     15 C         -11.4748  -16.7649   21.2814 C.ar    1  UNL1        0.0345
     16 C         -11.2191  -16.6989   22.7580 C.ar    1  UNL1        0.1340
     17 N         -12.2389  -17.2319   23.7203 N.ar    1  UNL1       -0.2348
     18 C         -14.2336  -18.3967   25.6376 C.3     1  UNL1        0.0067
     19 C         -14.5340  -18.3639   24.1684 C.3     1  UNL1        0.0459
     20 O          -3.8832  -15.7312   23.1258 O.3     1  UNL1       -0.4502
     21 C          -3.3363  -17.0081   22.5597 C.ar    1  UNL1        0.1835
     22 C          -2.1642  -16.9724   21.6243 C.ar    1  UNL1        0.1396
     23 N          -1.6174  -18.2493   21.0581 N.ar    1  UNL1       -0.2192
     24 C          -2.2427  -19.5619   21.4273 C.ar    1  UNL1        0.1991
     25 N          -3.4147  -19.5975   22.3627 N.ar    1  UNL1       -0.2192
     26 C          -3.9616  -18.3206   22.9289 C.ar    1  UNL1        0.1396
@<TRIPOS>BOND
     1    18    19    1
     2    19    12    1
     3    12    13   ar
     4    13    14   ar
     5    14    15   ar
     6    15    16   ar
     7    16     8    1
     8     8     9   am
     9     9    10    2
    10     9     1    1
    11     1     2   ar
    12     2     3   ar
    13     3    20    1
    14    20    21    1
    15    21    22   ar
    16    22    23   ar
    17    23    24   ar
    18    24    25   ar
    19    25    26   ar
    20     3     4   ar
    21     4     5   ar
    22     5     6    1
    23     5     7   ar
    24    16    17   ar
    25    17    12   ar
    26     7     1   ar
    27    26    21   ar
    28     8    11    1
@<TRIPOS>MOLECULE
*****
 26 28 0 0 0
SMALL
GASTEIGER

@<TRIPOS>ATOM
      1 C          -6.6050  -16.4112   23.9794 C.ar    1  UNL1        0.1374
      2 C          -8.0438  -16.3440   23.5608 C.ar    1  UNL1        0.0612
      3 C          -9.0773  -15.8153   24.5106 C.ar    1  UNL1        0.1483
      4 C          -8.6720  -15.3538   25.8791 C.ar    1  UNL1        0.0522
      5 C          -7.2333  -15.4211   26.2978 C.ar    1  UNL1        0.0625
      6 C          -6.8280  -14.9596   27.6663 C.3     1  UNL1        0.0522
      7 N          -6.1997  -15.9498   25.3480 N.ar    1  UNL1       -0.2449
      8 N          -4.1824  -16.3739   23.0415 N.am    1  UNL1       -0.2646
      9 C          -5.5714  -16.9400   23.0296 C.2     1  UNL1        0.2684
     10 O          -5.9269  -18.0348   22.0678 O.2     1  UNL1       -0.2681
     11 H          -3.9491  -15.6553   23.6728 H       1  UNL1        0.1566
     12 C          -2.2830  -18.7915   20.5320 C.ar    1  UNL1        0.0604
     13 C          -1.0817  -17.9601   20.1921 C.ar    1  UNL1        0.0148
     14 C          -0.9139  -16.6000   20.8020 C.ar    1  UNL1        0.0041
     15 C          -1.9474  -16.0713   21.7518 C.ar    1  UNL1        0.0345
     16 C          -3.1488  -16.9026   22.0917 C.ar    1  UNL1        0.1340
     17 N          -3.3166  -18.2627   21.4818 N.ar    1  UNL1       -0.2348
     18 C          -3.8153  -20.7671   19.8255 C.3     1  UNL1        0.0067
     19 C          -2.4509  -20.1516   19.9220 C.3     1  UNL1        0.0459
     20 O         -10.5162  -15.7480   24.0920 O.3     1  UNL1       -0.4502
     21 C         -11.0228  -16.6451   23.0018 C.ar    1  UNL1        0.1835
     22 C         -11.5258  -16.0549   21.7178 C.ar    1  UNL1        0.1396
     23 N         -12.0324  -16.9521   20.6277 N.ar    1  UNL1       -0.2192
     24 C         -12.0361  -18.4395   20.8216 C.ar    1  UNL1        0.1991
     25 N         -11.5331  -19.0297   22.1055 N.ar    1  UNL1       -0.2192
     26 C         -11.0265  -18.1325   23.1957 C.ar    1  UNL1        0.1396
@<TRIPOS>BOND
     1    18    19    1
     2    19    12    1
     3    12    13   ar
     4    13    14   ar
     5    14    15   ar
     6    15    16   ar
     7    16     8    1
     8     8     9   am
     9     9    10    2
    10     9     1    1
    11     1     2   ar
    12     2     3   ar
    13     3    20    1
    14    20    21    1
    15    21    22   ar
    16    22    23   ar
    17    23    24   ar
    18    24    25   ar
    19    25    26   ar
    20     3     4   ar
    21     4     5   ar
    22     5     6    1
    23     5     7   ar
    24    16    17   ar
    25    17    12   ar
    26     7     1   ar
    27    26    21   ar
    28     8    11    1
@<TRIPOS>MOLECULE
*****
 26 28 0 0 0
SMALL
GASTEIGER

@<TRIPOS>ATOM
      1 C          -6.9827  -18.8979   21.9221 C.ar    1  UNL1        0.1374
      2 C          -5.6752  -18.3910   22.4544 C.ar    1  UNL1        0.0612
      3 C          -4.3926  -19.0554   22.0498 C.ar    1  UNL1        0.1483
      4 C          -4.4176  -20.2266   21.1130 C.ar    1  UNL1        0.0522
      5 C          -5.7252  -20.7335   20.5807 C.ar    1  UNL1        0.0625
      6 C          -5.7502  -21.9047   19.6439 C.3     1  UNL1        0.0522
      7 N          -7.0077  -20.0691   20.9853 N.ar    1  UNL1       -0.2449
      8 N          -9.5749  -18.7575   21.8162 N.am    1  UNL1       -0.2646
      9 C          -8.2654  -18.2335   22.3266 C.2     1  UNL1        0.2684
     10 O          -8.2384  -17.0452   23.2415 O.2     1  UNL1       -0.2681
     11 H          -9.5925  -19.5375   21.2157 H       1  UNL1        0.1566
     12 C         -12.9403  -17.9772   23.7694 C.ar    1  UNL1        0.0604
     13 C         -13.4226  -16.7647   23.0298 C.ar    1  UNL1        0.0148
     14 C         -12.6224  -16.2164   21.8857 C.ar    1  UNL1        0.0041
     15 C         -11.3398  -16.8806   21.4812 C.ar    1  UNL1        0.0345
     16 C         -10.8575  -18.0932   22.2207 C.ar    1  UNL1        0.1340
     17 N         -11.6578  -18.6415   23.3648 N.ar    1  UNL1       -0.2348
     18 C         -15.2387  -18.5432   24.8404 C.3     1  UNL1        0.0067
     19 C         -13.7406  -18.5255   24.9135 C.3     1  UNL1        0.0459
     20 O          -3.0850  -18.5485   22.5821 O.3     1  UNL1       -0.4502
     21 C          -2.0104  -18.1055   21.6339 C.ar    1  UNL1        0.1835
     22 C          -1.2453  -19.1222   20.8395 C.ar    1  UNL1        0.1396
     23 N          -0.1708  -18.6793   19.8913 N.ar    1  UNL1       -0.2192
     24 C           0.1388  -17.2196   19.7376 C.ar    1  UNL1        0.1991
     25 N          -0.6263  -16.2029   20.5320 N.ar    1  UNL1       -0.2192
     26 C          -1.7009  -16.6459   21.4801 C.ar    1  UNL1        0.1396
@<TRIPOS>BOND
     1    18    19    1
     2    19    12    1
     3    12    13   ar
     4    13    14   ar
     5    14    15   ar
     6    15    16   ar
     7    16     8    1
     8     8     9   am
     9     9    10    2
    10     9     1    1
    11     1     2   ar
    12     2     3   ar
    13     3    20    1
    14    20    21    1
    15    21    22   ar
    16    22    23   ar
    17    23    24   ar
    18    24    25   ar
    19    25    26   ar
    20     3     4   ar
    21     4     5   ar
    22     5     6    1
    23     5     7   ar
    24    16    17   ar
    25    17    12   ar
    26     7     1   ar
    27    26    21   ar
    28     8    11    1
@<TRIPOS>MOLECULE
*****
 26 28 0 0 0
SMALL
GASTEIGER

@<TRIPOS>ATOM
      1 C          -7.1381  -16.2561   24.0329 C.ar    1  UNL1        0.1374
      2 C          -5.7983  -16.7686   23.5946 C.ar    1  UNL1        0.0612
      3 C          -4.5914  -16.5457   24.4569 C.ar    1  UNL1        0.1483
      4 C          -4.7243  -15.8103   25.7575 C.ar    1  UNL1        0.0522
      5 C          -6.0641  -15.2978   26.1958 C.ar    1  UNL1        0.0625
      6 C          -6.1970  -14.5624   27.4964 C.3     1  UNL1        0.0522
      7 N          -7.2710  -15.5207   25.3335 N.ar    1  UNL1       -0.2449
      8 N          -9.6828  -16.7270   23.8023 N.am    1  UNL1       -0.2646
      9 C          -8.3451  -16.4790   23.1705 C.2     1  UNL1        0.2684
     10 O          -8.2144  -16.4538   21.6764 O.2     1  UNL1       -0.2681
     11 H          -9.7685  -16.7435   24.7829 H       1  UNL1        0.1566
     12 C         -12.1906  -16.5128   20.7339 C.ar    1  UNL1        0.0604
     13 C         -13.3036  -17.3955   21.2153 C.ar    1  UNL1        0.0148
     14 C         -13.2097  -18.0554   22.5591 C.ar    1  UNL1        0.0041
     15 C         -12.0028  -17.8326   23.4214 C.ar    1  UNL1        0.0345
     16 C         -10.8898  -16.9499   22.9400 C.ar    1  UNL1        0.1340
     17 N         -10.9836  -16.2899   21.5962 N.ar    1  UNL1       -0.2348
     18 C         -11.0930  -15.1436   18.8180 C.3     1  UNL1        0.0067
     19 C         -12.2844  -15.8529   19.3901 C.3     1  UNL1        0.0459
     20 O          -3.2514  -17.0582   24.0186 O.3     1  UNL1       -0.4502
     21 C          -3.0375  -17.4756   22.5938 C.ar    1  UNL1        0.1835
     22 C          -3.4590  -18.8422   22.1413 C.ar    1  UNL1        0.1396
     23 N          -3.2451  -19.2596   20.7165 N.ar    1  UNL1       -0.2192
     24 C          -2.6096  -18.3103   19.7442 C.ar    1  UNL1        0.1991
     25 N          -2.1881  -16.9438   20.1968 N.ar    1  UNL1       -0.2192
     26 C          -2.4021  -16.5264   21.6216 C.ar    1  UNL1        0.1396
@<TRIPOS>BOND
     1    18    19    1
     2    19    12    1
     3    12    13   ar
     4    13    14   ar
     5    14    15   ar
     6    15    16   ar
     7    16     8    1
     8     8     9   am
     9     9    10    2
    10     9     1    1
    11     1     2   ar
    12     2     3   ar
    13     3    20    1
    14    20    21    1
    15    21    22   ar
    16    22    23   ar
    17    23    24   ar
    18    24    25   ar
    19    25    26   ar
    20     3     4   ar
    21     4     5   ar
    22     5     6    1
    23     5     7   ar
    24    16    17   ar
    25    17    12   ar
    26     7     1   ar
    27    26    21   ar
    28     8    11    1
@<TRIPOS>MOLECULE
*****
 26 28 0 0 0
SMALL
GASTEIGER

@<TRIPOS>ATOM
      1 C           1.2617    4.3718   34.0470 C.ar    1  UNL1        0.1374
      2 C           1.8648    3.9868   35.3653 C.ar    1  UNL1        0.0612
      3 C           1.5959    4.8182   36.5845 C.ar    1  UNL1        0.1483
      4 C           0.7238    6.0346   36.4853 C.ar    1  UNL1        0.0522
      5 C           0.1207    6.4196   35.1670 C.ar    1  UNL1        0.0625
      6 C          -0.7514    7.6361   35.0679 C.3     1  UNL1        0.0522
      7 N           0.3896    5.5883   33.9479 N.ar    1  UNL1       -0.2449
      8 N           1.3635    2.0509   32.8839 N.am    1  UNL1       -0.2646
      9 C           1.5306    3.5404   32.8277 C.2     1  UNL1        0.2684
     10 O           1.9667    4.1987   31.5524 O.2     1  UNL1       -0.2681
     11 H           1.0773    1.6189   33.7210 H       1  UNL1        0.1566
     12 C           0.8415    0.2320   29.3954 C.ar    1  UNL1        0.0604
     13 C           2.1702   -0.4432   29.2262 C.ar    1  UNL1        0.0148
     14 C           3.2300   -0.2871   30.2762 C.ar    1  UNL1        0.0041
     15 C           2.9611    0.5442   31.4954 C.ar    1  UNL1        0.0345
     16 C           1.6324    1.2195   31.6646 C.ar    1  UNL1        0.1340
     17 N           0.5727    1.0633   30.6146 N.ar    1  UNL1       -0.2348
     18 C          -1.5527   -0.5057   28.7073 C.3     1  UNL1        0.0067
     19 C          -0.2183    0.0759   28.3454 C.3     1  UNL1        0.0459
     20 O           2.1990    4.4332   37.9028 O.3     1  UNL1       -0.4502
     21 C           1.9450    3.0698   38.4742 C.ar    1  UNL1        0.1835
     22 C           3.0983    2.1819   38.8373 C.ar    1  UNL1        0.1396
     23 N           2.8443    0.8185   39.4086 N.ar    1  UNL1       -0.2192
     24 C           1.4370    0.3428   39.6169 C.ar    1  UNL1        0.1991
     25 N           0.2838    1.2306   39.2539 N.ar    1  UNL1       -0.2192
     26 C           0.5378    2.5941   38.6825 C.ar    1  UNL1        0.1396
@<TRIPOS>BOND
     1    18    19    1
     2    19    12    1
     3    12    13   ar
     4    13    14   ar
     5    14    15   ar
     6    15    16   ar
     7    16     8    1
     8     8     9   am
     9     9    10    2
    10     9     1    1
    11     1     2   ar
    12     2     3   ar
    13     3    20    1
    14    20    21    1
    15    21    22   ar
    16    22    23   ar
    17    23    24   ar
    18    24    25   ar
    19    25    26   ar
    20     3     4   ar
    21     4     5   ar
    22     5     6    1
    23     5     7   ar
    24    16    17   ar
    25    17    12   ar
    26     7     1   ar
    27    26    21   ar
    28     8    11    1
@<TRIPOS>MOLECULE
*****
 26 28 0 0 0
SMALL
GASTEIGER

@<TRIPOS>ATOM
      1 C          -6.7405  -19.1420   21.3360 C.ar    1  UNL1        0.1374
      2 C          -5.9325  -18.3918   22.3528 C.ar    1  UNL1        0.0612
      3 C          -4.4419  -18.5542   22.3945 C.ar    1  UNL1        0.1483
      4 C          -3.7594  -19.4670   21.4192 C.ar    1  UNL1        0.0522
      5 C          -4.5675  -20.2172   20.4023 C.ar    1  UNL1        0.0625
      6 C          -3.8850  -21.1300   19.4271 C.3     1  UNL1        0.0522
      7 N          -6.0580  -20.0548   20.3607 N.ar    1  UNL1       -0.2449
      8 N          -8.9148  -18.0755   22.2767 N.am    1  UNL1       -0.2646
      9 C          -8.2312  -18.9796   21.2943 C.2     1  UNL1        0.2684
     10 O          -9.0381  -19.7213   20.2702 O.2     1  UNL1       -0.2681
     11 H          -8.3852  -17.5887   22.9489 H       1  UNL1        0.1566
     12 C         -12.7206  -18.0816   23.4020 C.ar    1  UNL1        0.0604
     13 C         -13.3866  -17.5882   22.1519 C.ar    1  UNL1        0.0148
     14 C         -12.5621  -17.2572   20.9433 C.ar    1  UNL1        0.0041
     15 C         -11.0715  -17.4196   20.9849 C.ar    1  UNL1        0.0345
     16 C         -10.4055  -17.9130   22.2351 C.ar    1  UNL1        0.1340
     17 N         -11.2300  -18.2440   23.4436 N.ar    1  UNL1       -0.2348
     18 C         -15.0423  -18.4177   24.5186 C.3     1  UNL1        0.0067
     19 C         -13.5451  -18.4126   24.6106 C.3     1  UNL1        0.0459
     20 O          -3.6337  -17.8039   23.4114 O.3     1  UNL1       -0.4502
     21 C          -4.3128  -16.8679   24.3667 C.ar    1  UNL1        0.1835
     22 C          -4.9709  -15.6209   23.8548 C.ar    1  UNL1        0.1396
     23 N          -5.6499  -14.6849   24.8102 N.ar    1  UNL1       -0.2192
     24 C          -5.6710  -14.9960   26.2775 C.ar    1  UNL1        0.1991
     25 N          -5.0130  -16.2429   26.7894 N.ar    1  UNL1       -0.2192
     26 C          -4.3339  -17.1789   25.8340 C.ar    1  UNL1        0.1396
@<TRIPOS>BOND
     1    18    19    1
     2    19    12    1
     3    12    13   ar
     4    13    14   ar
     5    14    15   ar
     6    15    16   ar
     7    16     8    1
     8     8     9   am
     9     9    10    2
    10     9     1    1
    11     1     2   ar
    12     2     3   ar
    13     3    20    1
    14    20    21    1
    15    21    22   ar
    16    22    23   ar
    17    23    24   ar
    18    24    25   ar
    19    25    26   ar
    20     3     4   ar
    21     4     5   ar
    22     5     6    1
    23     5     7   ar
    24    16    17   ar
    25    17    12   ar
    26     7     1   ar
    27    26    21   ar
    28     8    11    1
