@<TRIPOS>MOLECULE
*****
 33 36 0 0 0
SMALL
GASTEIGER

@<TRIPOS>ATOM
      1 C          -6.8612  -18.2894   22.6223 C.ar    1  UNL1        0.1460
      2 N          -5.5594  -18.4970   21.9067 N.ar    1  UNL1       -0.2144
      3 C          -4.3380  -17.7400   22.3369 C.ar    1  UNL1        0.1390
      4 C          -4.4185  -16.7754   23.4828 C.ar    1  UNL1        0.0360
      5 C          -5.7203  -16.5677   24.1984 C.ar    1  UNL1        0.0184
      6 C          -6.1018  -15.6901   25.3535 C.ar    1  UNL1       -0.0086
      7 C          -5.1868  -14.7610   26.0947 C.3     1  UNL1        0.0322
      8 C          -7.5591  -15.9048   25.6371 C.ar    1  UNL1        0.0336
      9 C          -8.3571  -15.2279   26.7119 C.3     1  UNL1        0.0497
     10 N          -8.0781  -16.9150   24.6574 N.ar    1  UNL1       -0.3262
     11 C          -6.9416  -17.3248   23.7682 C.ar    1  UNL1        0.0913
     12 N          -3.0361  -17.9476   21.6213 N.am    1  UNL1       -0.2392
     13 C          -2.6174  -19.3285   21.2115 C.3     1  UNL1        0.1317
     14 C          -1.3156  -19.5361   20.4959 C.3     1  UNL1        0.1647
     15 O          -0.4324  -18.3628   20.1901 O.3     1  UNL1       -0.3426
     16 C          -0.8511  -16.9820   20.5998 C.3     1  UNL1        0.2275
     17 C          -2.1530  -16.7744   21.3154 C.2     1  UNL1        0.2607
     18 O          -2.5717  -15.3935   21.7252 O.2     1  UNL1       -0.2718
     19 N          -8.0826  -19.0465   22.1921 N.pl3   1  UNL1       -0.3133
     20 H          -8.2997  -19.9102   22.6118 H       1  UNL1        0.1485
     21 C          -8.9733  -18.4875   21.1224 C.3     1  UNL1        0.1148
     22 C          -9.2505  -15.5094   21.3553 C.3     1  UNL1        0.0307
     23 C         -10.4354  -16.3947   21.6047 C.ar    1  UNL1       -0.0245
     24 C         -11.7589  -15.7910   21.9705 C.ar    1  UNL1       -0.0045
     25 C         -12.9438  -16.6762   22.2199 C.ar    1  UNL1       -0.0007
     26 C         -12.8053  -18.1653   22.1034 C.ar    1  UNL1       -0.0045
     27 C         -11.4818  -18.7690   21.7376 C.ar    1  UNL1       -0.0245
     28 C         -11.3432  -20.2581   21.6212 C.3     1  UNL1        0.0307
     29 C         -10.2968  -17.8837   21.4882 C.ar    1  UNL1       -0.0105
     30 C          -9.4863  -17.4259   24.5803 C.3     1  UNL1        0.1374
     31 C          -9.8720  -18.6756   25.3147 C.3     1  UNL1        0.1616
     32 O          -9.5348  -20.0187   24.7382 O.3     1  UNL1       -0.3799
     33 H         -10.0335  -20.1526   23.9170 H       1  UNL1        0.2105
@<TRIPOS>BOND
     1    22    23    1
     2    23    24   ar
     3    24    25   ar
     4    25    26   ar
     5    26    27   ar
     6    27    28    1
     7    27    29   ar
     8    29    21    1
     9    21    19    1
    10    19     1    1
    11     1     2   ar
    12     2     3   ar
    13     3    12    1
    14    12    13    1
    15    13    14    1
    16    14    15    1
    17    15    16    1
    18    16    17    1
    19    17    18    2
    20     3     4   ar
    21     4     5   ar
    22     5     6   ar
    23     6     7    1
    24     6     8   ar
    25     8     9    1
    26     8    10   ar
    27    10    30    1
    28    30    31    1
    29    31    32    1
    30    10    11   ar
    31    29    23   ar
    32    11     1   ar
    33    17    12   am
    34    11     5   ar
    35    19    20    1
    36    32    33    1
@<TRIPOS>MOLECULE
*****
 33 36 0 0 0
SMALL
GASTEIGER

@<TRIPOS>ATOM
      1 C          -6.8629  -18.2849   22.6297 C.ar    1  UNL1        0.1460
      2 N          -5.5612  -18.4925   21.9140 N.ar    1  UNL1       -0.2144
      3 C          -4.3400  -17.7349   22.3437 C.ar    1  UNL1        0.1390
      4 C          -4.4206  -16.7696   23.4890 C.ar    1  UNL1        0.0360
      5 C          -5.7223  -16.5620   24.2047 C.ar    1  UNL1        0.0184
      6 C          -6.1041  -15.6839   25.3593 C.ar    1  UNL1       -0.0086
      7 C          -5.1893  -14.7541   26.1000 C.3     1  UNL1        0.0322
      8 C          -7.5612  -15.8988   25.6433 C.ar    1  UNL1        0.0336
      9 C          -8.3593  -15.2216   26.7178 C.3     1  UNL1        0.0497
     10 N          -8.0801  -16.9098   24.6641 N.ar    1  UNL1       -0.3262
     11 C          -6.9435  -17.3196   23.7750 C.ar    1  UNL1        0.0913
     12 N          -3.0381  -17.9425   21.6280 N.am    1  UNL1       -0.2392
     13 C          -2.6142  -19.3247   21.2281 C.3     1  UNL1        0.1317
     14 C          -1.3124  -19.5323   20.5125 C.3     1  UNL1        0.1647
     15 O          -0.4344  -18.3577   20.1967 O.3     1  UNL1       -0.3426
     16 C          -0.8583  -16.9756   20.5966 C.3     1  UNL1        0.2275
     17 C          -2.1602  -16.7680   21.3123 C.2     1  UNL1        0.2607
     18 O          -2.5841  -15.3858   21.7122 O.2     1  UNL1       -0.2718
     19 N          -8.0842  -19.0425   22.2000 N.pl3   1  UNL1       -0.3133
     20 H          -8.3022  -19.9049   22.6218 H       1  UNL1        0.1485
     21 C          -8.9733  -18.4861   21.1276 C.3     1  UNL1        0.1148
     22 C         -11.3426  -20.2579   21.6250 C.3     1  UNL1        0.0307
     23 C         -11.4826  -18.7688   21.7385 C.ar    1  UNL1       -0.0245
     24 C         -12.8074  -18.1655   22.1007 C.ar    1  UNL1       -0.0045
     25 C         -12.9475  -16.6764   22.2142 C.ar    1  UNL1       -0.0007
     26 C         -11.7628  -15.7905   21.9656 C.ar    1  UNL1       -0.0045
     27 C         -10.4381  -16.3937   21.6034 C.ar    1  UNL1       -0.0245
     28 C          -9.2535  -15.5078   21.3547 C.3     1  UNL1        0.0307
     29 C         -10.2980  -17.8829   21.4898 C.ar    1  UNL1       -0.0105
     30 C          -9.4881  -17.4211   24.5875 C.3     1  UNL1        0.1374
     31 C          -9.8736  -18.6700   25.3234 C.3     1  UNL1        0.1616
     32 O          -9.5461  -20.0138   24.7431 O.3     1  UNL1       -0.3799
     33 H         -10.0513  -20.1448   23.9255 H       1  UNL1        0.2105
@<TRIPOS>BOND
     1    22    23    1
     2    23    24   ar
     3    24    25   ar
     4    25    26   ar
     5    26    27   ar
     6    27    28    1
     7    27    29   ar
     8    29    21    1
     9    21    19    1
    10    19     1    1
    11     1     2   ar
    12     2     3   ar
    13     3    12    1
    14    12    13    1
    15    13    14    1
    16    14    15    1
    17    15    16    1
    18    16    17    1
    19    17    18    2
    20     3     4   ar
    21     4     5   ar
    22     5     6   ar
    23     6     7    1
    24     6     8   ar
    25     8     9    1
    26     8    10   ar
    27    10    30    1
    28    30    31    1
    29    31    32    1
    30    10    11   ar
    31    29    23   ar
    32    11     1   ar
    33    17    12   am
    34    11     5   ar
    35    19    20    1
    36    32    33    1
@<TRIPOS>MOLECULE
*****
 33 36 0 0 0
SMALL
GASTEIGER

@<TRIPOS>ATOM
      1 C          -6.1651  -17.6636   22.6292 C.ar    1  UNL1        0.1460
      2 N          -7.6329  -17.4898   22.8849 N.ar    1  UNL1       -0.2144
      3 C          -8.6221  -18.4069   22.2291 C.ar    1  UNL1        0.1390
      4 C          -8.1436  -19.4979   21.3176 C.ar    1  UNL1        0.0360
      5 C          -6.6759  -19.6718   21.0620 C.ar    1  UNL1        0.0184
      6 C          -5.9128  -20.6497   20.2185 C.ar    1  UNL1       -0.0086
      7 C          -6.5065  -21.7476   19.3865 C.3     1  UNL1        0.0322
      8 C          -4.4520  -20.3369   20.3530 C.ar    1  UNL1        0.0336
      9 C          -3.3283  -21.0671   19.6791 C.3     1  UNL1        0.0497
     10 N          -4.3121  -19.1656   21.2796 N.ar    1  UNL1       -0.3262
     11 C          -5.6866  -18.7546   21.7178 C.ar    1  UNL1        0.0913
     12 N         -10.0900  -18.2332   22.4847 N.am    1  UNL1       -0.2392
     13 C         -10.6682  -18.6047   23.8180 C.3     1  UNL1        0.1317
     14 C         -12.1360  -18.4310   24.0736 C.3     1  UNL1        0.1647
     15 O         -13.0256  -17.8856   22.9960 O.3     1  UNL1       -0.3426
     16 C         -12.4474  -17.5140   21.6628 C.3     1  UNL1        0.2275
     17 C         -10.9796  -17.6878   21.4071 C.2     1  UNL1        0.2607
     18 O         -10.4013  -17.3162   20.0738 O.2     1  UNL1       -0.2718
     19 N          -5.1758  -16.7464   23.2850 N.pl3   1  UNL1       -0.3133
     20 H          -4.2197  -16.9809   23.2967 H       1  UNL1        0.1485
     21 C          -5.6432  -15.4719   23.9231 C.3     1  UNL1        0.1148
     22 C          -4.4854  -16.3256   26.5557 C.3     1  UNL1        0.0307
     23 C          -5.9335  -15.9463   26.4609 C.ar    1  UNL1       -0.0245
     24 C          -6.8028  -15.9939   27.6825 C.ar    1  UNL1       -0.0045
     25 C          -8.2510  -15.6147   27.5877 C.ar    1  UNL1       -0.0007
     26 C          -8.8299  -15.1878   26.2713 C.ar    1  UNL1       -0.0045
     27 C          -7.9607  -15.1402   25.0498 C.ar    1  UNL1       -0.0245
     28 C          -8.5396  -14.7134   23.7335 C.3     1  UNL1        0.0307
     29 C          -6.5124  -15.5195   25.1446 C.ar    1  UNL1       -0.0105
     30 C          -3.0241  -18.5190   21.6951 C.3     1  UNL1        0.1374
     31 C          -2.5184  -17.3136   20.9592 C.3     1  UNL1        0.1616
     32 O          -2.6610  -15.9496   21.5667 O.3     1  UNL1       -0.3799
     33 H          -3.6013  -15.7196   21.6280 H       1  UNL1        0.2105
@<TRIPOS>BOND
     1    22    23    1
     2    23    24   ar
     3    24    25   ar
     4    25    26   ar
     5    26    27   ar
     6    27    28    1
     7    27    29   ar
     8    29    21    1
     9    21    19    1
    10    19     1    1
    11     1     2   ar
    12     2     3   ar
    13     3    12    1
    14    12    13    1
    15    13    14    1
    16    14    15    1
    17    15    16    1
    18    16    17    1
    19    17    18    2
    20     3     4   ar
    21     4     5   ar
    22     5     6   ar
    23     6     7    1
    24     6     8   ar
    25     8     9    1
    26     8    10   ar
    27    10    30    1
    28    30    31    1
    29    31    32    1
    30    10    11   ar
    31    29    23   ar
    32    11     1   ar
    33    17    12   am
    34    11     5   ar
    35    19    20    1
    36    32    33    1
@<TRIPOS>MOLECULE
*****
 33 36 0 0 0
SMALL
GASTEIGER

@<TRIPOS>ATOM
      1 C          -6.2185  -17.6724   22.6016 C.ar    1  UNL1        0.1460
      2 N          -7.6869  -17.4915   22.8486 N.ar    1  UNL1       -0.2144
      3 C          -8.6766  -18.4043   22.1873 C.ar    1  UNL1        0.1390
      4 C          -8.1979  -19.4978   21.2790 C.ar    1  UNL1        0.0360
      5 C          -6.7295  -19.6786   21.0320 C.ar    1  UNL1        0.0184
      6 C          -5.9662  -20.6604   20.1933 C.ar    1  UNL1       -0.0086
      7 C          -6.5601  -21.7558   19.3582 C.3     1  UNL1        0.0322
      8 C          -4.5047  -20.3545   20.3362 C.ar    1  UNL1        0.0336
      9 C          -3.3805  -21.0902   19.6692 C.3     1  UNL1        0.0497
     10 N          -4.3647  -19.1836   21.2633 N.ar    1  UNL1       -0.3262
     11 C          -5.7398  -18.7659   21.6933 C.ar    1  UNL1        0.0913
     12 N         -10.1451  -18.2235   22.4343 N.am    1  UNL1       -0.2392
     13 C         -10.7353  -18.6052   23.7594 C.3     1  UNL1        0.1317
     14 C         -12.2037  -18.4244   24.0064 C.3     1  UNL1        0.1647
     15 O         -13.0820  -17.8619   22.9283 O.3     1  UNL1       -0.3426
     16 C         -12.4918  -17.4802   21.6032 C.3     1  UNL1        0.2275
     17 C         -11.0233  -17.6610   21.3562 C.2     1  UNL1        0.2607
     18 O         -10.4331  -17.2793   20.0310 O.2     1  UNL1       -0.2718
     19 N          -5.2287  -16.7596   23.2629 N.pl3   1  UNL1       -0.3133
     20 H          -4.2741  -16.9997   23.2820 H       1  UNL1        0.1485
     21 C          -5.6934  -15.4811   23.8949 C.3     1  UNL1        0.1148
     22 C          -8.5983  -14.7482   23.7378 C.3     1  UNL1        0.0307
     23 C          -7.9972  -15.1544   25.0506 C.ar    1  UNL1       -0.0245
     24 C          -8.8486  -15.1941   26.2850 C.ar    1  UNL1       -0.0045
     25 C          -8.2476  -15.6003   27.5979 C.ar    1  UNL1       -0.0007
     26 C          -6.7951  -15.9667   27.6765 C.ar    1  UNL1       -0.0045
     27 C          -5.9438  -15.9270   26.4422 C.ar    1  UNL1       -0.0245
     28 C          -4.4913  -16.2935   26.5208 C.3     1  UNL1        0.0307
     29 C          -6.5448  -15.5208   25.1292 C.ar    1  UNL1       -0.0105
     30 C          -3.0761  -18.5429   21.6861 C.3     1  UNL1        0.1374
     31 C          -2.5519  -17.3504   20.9422 C.3     1  UNL1        0.1616
     32 O          -2.6933  -15.9778   21.5304 O.3     1  UNL1       -0.3799
     33 H          -3.6328  -15.7407   21.5758 H       1  UNL1        0.2105
@<TRIPOS>BOND
     1    22    23    1
     2    23    24   ar
     3    24    25   ar
     4    25    26   ar
     5    26    27   ar
     6    27    28    1
     7    27    29   ar
     8    29    21    1
     9    21    19    1
    10    19     1    1
    11     1     2   ar
    12     2     3   ar
    13     3    12    1
    14    12    13    1
    15    13    14    1
    16    14    15    1
    17    15    16    1
    18    16    17    1
    19    17    18    2
    20     3     4   ar
    21     4     5   ar
    22     5     6   ar
    23     6     7    1
    24     6     8   ar
    25     8     9    1
    26     8    10   ar
    27    10    30    1
    28    30    31    1
    29    31    32    1
    30    10    11   ar
    31    29    23   ar
    32    11     1   ar
    33    17    12   am
    34    11     5   ar
    35    19    20    1
    36    32    33    1
@<TRIPOS>MOLECULE
*****
 33 36 0 0 0
SMALL
GASTEIGER

@<TRIPOS>ATOM
      1 C          -8.0425  -16.9980   22.2179 C.ar    1  UNL1        0.1460
      2 N          -6.7290  -17.5644   21.7666 N.ar    1  UNL1       -0.2144
      3 C          -6.4357  -19.0229   21.9583 C.ar    1  UNL1        0.1390
      4 C          -7.4559  -19.9150   22.6012 C.ar    1  UNL1        0.0360
      5 C          -8.7695  -19.3485   23.0524 C.ar    1  UNL1        0.0184
      6 C          -9.9603  -19.9780   23.7124 C.ar    1  UNL1       -0.0086
      7 C         -10.0977  -21.4232   24.0899 C.3     1  UNL1        0.0322
      8 C         -10.9896  -18.9086   23.9287 C.ar    1  UNL1        0.0336
      9 C         -12.3371  -19.0966   24.5605 C.3     1  UNL1        0.0497
     10 N         -10.4350  -17.6181   23.4024 N.ar    1  UNL1       -0.3262
     11 C          -9.0628  -17.8901   22.8608 C.ar    1  UNL1        0.0913
     12 N          -5.1220  -19.5894   21.5070 N.am    1  UNL1       -0.2392
     13 C          -5.0555  -20.4359   20.2705 C.3     1  UNL1        0.1317
     14 C          -3.7419  -21.0024   19.8192 C.3     1  UNL1        0.1647
     15 O          -2.4949  -20.7223   20.6044 O.3     1  UNL1       -0.3426
     16 C          -2.5614  -19.8758   21.8409 C.3     1  UNL1        0.2275
     17 C          -3.8751  -19.3093   22.2922 C.2     1  UNL1        0.2607
     18 O          -3.9416  -18.4627   23.5287 O.2     1  UNL1       -0.2718
     19 N          -8.3359  -15.5395   22.0263 N.pl3   1  UNL1       -0.3133
     20 H          -8.9077  -15.2462   21.2804 H       1  UNL1        0.1485
     21 C          -7.7581  -14.5278   22.9710 C.3     1  UNL1        0.1148
     22 C          -4.7981  -15.0082   23.0585 C.3     1  UNL1        0.0307
     23 C          -5.6286  -15.2177   24.2899 C.ar    1  UNL1       -0.0245
     24 C          -4.9792  -15.6675   25.5651 C.ar    1  UNL1       -0.0045
     25 C          -5.8097  -15.8770   26.7964 C.ar    1  UNL1       -0.0007
     26 C          -7.2897  -15.6367   26.7527 C.ar    1  UNL1       -0.0045
     27 C          -7.9392  -15.1870   25.4776 C.ar    1  UNL1       -0.0245
     28 C          -9.4192  -14.9468   25.4338 C.3     1  UNL1        0.0307
     29 C          -7.1086  -14.9775   24.2461 C.ar    1  UNL1       -0.0105
     30 C         -11.1303  -16.2891   23.4153 C.3     1  UNL1        0.1374
     31 C         -11.9294  -15.8491   22.2246 C.3     1  UNL1        0.1616
     32 O         -11.2981  -15.8273   20.8641 O.3     1  UNL1       -0.3799
     33 H         -10.5958  -15.1586   20.8443 H       1  UNL1        0.2105
@<TRIPOS>BOND
     1    22    23    1
     2    23    24   ar
     3    24    25   ar
     4    25    26   ar
     5    26    27   ar
     6    27    28    1
     7    27    29   ar
     8    29    21    1
     9    21    19    1
    10    19     1    1
    11     1     2   ar
    12     2     3   ar
    13     3    12    1
    14    12    13    1
    15    13    14    1
    16    14    15    1
    17    15    16    1
    18    16    17    1
    19    17    18    2
    20     3     4   ar
    21     4     5   ar
    22     5     6   ar
    23     6     7    1
    24     6     8   ar
    25     8     9    1
    26     8    10   ar
    27    10    30    1
    28    30    31    1
    29    31    32    1
    30    10    11   ar
    31    29    23   ar
    32    11     1   ar
    33    17    12   am
    34    11     5   ar
    35    19    20    1
    36    32    33    1
@<TRIPOS>MOLECULE
*****
 33 36 0 0 0
SMALL
GASTEIGER

@<TRIPOS>ATOM
      1 C          -7.0798  -18.3307   21.8282 C.ar    1  UNL1        0.1460
      2 N          -6.8060  -17.6293   23.1255 N.ar    1  UNL1       -0.2144
      3 C          -7.9206  -16.9399   23.8551 C.ar    1  UNL1        0.1390
      4 C          -9.3090  -16.9519   23.2874 C.ar    1  UNL1        0.0360
      5 C          -9.5827  -17.6533   21.9902 C.ar    1  UNL1        0.0184
      6 C         -10.8398  -17.8321   21.1915 C.ar    1  UNL1       -0.0086
      7 C         -12.1964  -17.3037   21.5527 C.3     1  UNL1        0.0322
      8 C         -10.5021  -18.6319   19.9683 C.ar    1  UNL1        0.0336
      9 C         -11.4618  -19.0438   18.8915 C.3     1  UNL1        0.0497
     10 N          -9.0364  -18.9475   20.0110 N.ar    1  UNL1       -0.3262
     11 C          -8.4681  -18.3427   21.2606 C.ar    1  UNL1        0.0913
     12 N          -7.6468  -16.2384   25.1525 N.am    1  UNL1       -0.2392
     13 C          -8.4858  -16.5388   26.3591 C.3     1  UNL1        0.1317
     14 C          -8.2121  -15.8374   27.6564 C.3     1  UNL1        0.1647
     15 O          -7.0994  -14.8355   27.7472 O.3     1  UNL1       -0.3426
     16 C          -6.2604  -14.5351   26.5406 C.3     1  UNL1        0.2275
     17 C          -6.5342  -15.2366   25.2432 C.2     1  UNL1        0.2607
     18 O          -5.6952  -14.9362   24.0366 O.2     1  UNL1       -0.2718
     19 N          -5.9651  -19.0201   21.0986 N.pl3   1  UNL1       -0.3133
     20 H          -6.1045  -19.3435   20.1792 H       1  UNL1        0.1485
     21 C          -4.6381  -19.2168   21.7697 C.3     1  UNL1        0.1148
     22 C          -3.3951  -16.9243   23.2527 C.3     1  UNL1        0.0307
     23 C          -2.7924  -17.3987   21.9637 C.ar    1  UNL1       -0.0245
     24 C          -1.5681  -16.7269   21.4161 C.ar    1  UNL1       -0.0045
     25 C          -0.9653  -17.2013   20.1271 C.ar    1  UNL1       -0.0007
     26 C          -1.5868  -18.3476   19.3856 C.ar    1  UNL1       -0.0045
     27 C          -2.8111  -19.0194   19.9331 C.ar    1  UNL1       -0.0245
     28 C          -3.4326  -20.1656   19.1916 C.3     1  UNL1        0.0307
     29 C          -3.4139  -18.5450   21.2222 C.ar    1  UNL1       -0.0105
     30 C          -8.2728  -19.7305   18.9843 C.3     1  UNL1        0.1374
     31 C          -8.7952  -21.0539   18.5094 C.3     1  UNL1        0.1616
     32 O          -9.1205  -21.2551   17.0590 O.3     1  UNL1       -0.3799
     33 H          -9.8683  -20.6880   16.8137 H       1  UNL1        0.2105
@<TRIPOS>BOND
     1    22    23    1
     2    23    24   ar
     3    24    25   ar
     4    25    26   ar
     5    26    27   ar
     6    27    28    1
     7    27    29   ar
     8    29    21    1
     9    21    19    1
    10    19     1    1
    11     1     2   ar
    12     2     3   ar
    13     3    12    1
    14    12    13    1
    15    13    14    1
    16    14    15    1
    17    15    16    1
    18    16    17    1
    19    17    18    2
    20     3     4   ar
    21     4     5   ar
    22     5     6   ar
    23     6     7    1
    24     6     8   ar
    25     8     9    1
    26     8    10   ar
    27    10    30    1
    28    30    31    1
    29    31    32    1
    30    10    11   ar
    31    29    23   ar
    32    11     1   ar
    33    17    12   am
    34    11     5   ar
    35    19    20    1
    36    32    33    1
@<TRIPOS>MOLECULE
*****
 33 36 0 0 0
SMALL
GASTEIGER

@<TRIPOS>ATOM
      1 C          -7.8923  -17.7358   21.6865 C.ar    1  UNL1        0.1460
      2 N          -7.9538  -16.9360   22.9539 N.ar    1  UNL1       -0.2144
      3 C          -6.7545  -16.8601   23.8517 C.ar    1  UNL1        0.1390
      4 C          -5.4938  -17.5840   23.4819 C.ar    1  UNL1        0.0360
      5 C          -5.4324  -18.3837   22.2144 C.ar    1  UNL1        0.0184
      6 C          -4.3359  -19.1969   21.5928 C.ar    1  UNL1       -0.0086
      7 C          -2.9594  -19.3965   22.1545 C.3     1  UNL1        0.0322
      8 C          -4.8575  -19.7754   20.3109 C.ar    1  UNL1        0.0336
      9 C          -4.0941  -20.6550   19.3656 C.3     1  UNL1        0.0497
     10 N          -6.2763  -19.3197   20.1402 N.ar    1  UNL1       -0.3262
     11 C          -6.6317  -18.4596   21.3167 C.ar    1  UNL1        0.0913
     12 N          -6.8159  -16.0603   25.1192 N.am    1  UNL1       -0.2392
     13 C          -5.6473  -15.2140   25.5293 C.3     1  UNL1        0.1317
     14 C          -5.7086  -14.4142   26.7968 C.3     1  UNL1        0.1647
     15 O          -6.9386  -14.4608   27.6543 O.3     1  UNL1       -0.3426
     16 C          -8.1071  -15.3071   27.2442 C.3     1  UNL1        0.2275
     17 C          -8.0458  -16.1069   25.9766 C.2     1  UNL1        0.2607
     18 O          -9.2143  -16.9532   25.5665 O.2     1  UNL1       -0.2718
     19 N          -9.0917  -17.8117   20.7886 N.pl3   1  UNL1       -0.3133
     20 H          -9.1809  -17.1875   20.0326 H       1  UNL1        0.1485
     21 C         -10.1550  -18.8388   21.0428 C.3     1  UNL1        0.1148
     22 C          -9.5429  -20.3021   23.5893 C.3     1  UNL1        0.0307
     23 C         -10.7599  -19.4298   23.4994 C.ar    1  UNL1       -0.0245
     24 C         -11.6709  -19.2891   24.6828 C.ar    1  UNL1       -0.0045
     25 C         -12.8879  -18.4169   24.5929 C.ar    1  UNL1       -0.0007
     26 C         -13.1939  -17.6852   23.3197 C.ar    1  UNL1       -0.0045
     27 C         -12.2829  -17.8258   22.1364 C.ar    1  UNL1       -0.0245
     28 C         -12.5890  -17.0942   20.8632 C.3     1  UNL1        0.0307
     29 C         -11.0659  -18.6981   22.2262 C.ar    1  UNL1       -0.0105
     30 C          -7.1811  -19.6637   18.9943 C.3     1  UNL1        0.1374
     31 C          -7.9858  -20.9292   19.0278 C.3     1  UNL1        0.1616
     32 O          -8.8394  -21.3065   17.8536 O.3     1  UNL1       -0.3799
     33 H          -9.5564  -20.6608   17.7543 H       1  UNL1        0.2105
@<TRIPOS>BOND
     1    22    23    1
     2    23    24   ar
     3    24    25   ar
     4    25    26   ar
     5    26    27   ar
     6    27    28    1
     7    27    29   ar
     8    29    21    1
     9    21    19    1
    10    19     1    1
    11     1     2   ar
    12     2     3   ar
    13     3    12    1
    14    12    13    1
    15    13    14    1
    16    14    15    1
    17    15    16    1
    18    16    17    1
    19    17    18    2
    20     3     4   ar
    21     4     5   ar
    22     5     6   ar
    23     6     7    1
    24     6     8   ar
    25     8     9    1
    26     8    10   ar
    27    10    30    1
    28    30    31    1
    29    31    32    1
    30    10    11   ar
    31    29    23   ar
    32    11     1   ar
    33    17    12   am
    34    11     5   ar
    35    19    20    1
    36    32    33    1
@<TRIPOS>MOLECULE
*****
 33 36 0 0 0
SMALL
GASTEIGER

@<TRIPOS>ATOM
      1 C          -8.0617  -17.6578   21.7325 C.ar    1  UNL1        0.1460
      2 N          -8.1758  -16.8901   23.0160 N.ar    1  UNL1       -0.2144
      3 C          -7.0094  -16.8243   23.9568 C.ar    1  UNL1        0.1390
      4 C          -5.7288  -17.5262   23.6139 C.ar    1  UNL1        0.0360
      5 C          -5.6147  -18.2938   22.3303 C.ar    1  UNL1        0.0184
      6 C          -4.4885  -19.0804   21.7280 C.ar    1  UNL1       -0.0086
      7 C          -3.1303  -19.2800   22.3325 C.3     1  UNL1        0.0322
      8 C          -4.9589  -19.6324   20.4149 C.ar    1  UNL1        0.0336
      9 C          -4.1536  -20.4809   19.4759 C.3     1  UNL1        0.0497
     10 N          -6.3758  -19.1869   20.2058 N.ar    1  UNL1       -0.3262
     11 C          -6.7811  -18.3597   21.3896 C.ar    1  UNL1        0.0913
     12 N          -7.1234  -16.0566   25.2404 N.am    1  UNL1       -0.2392
     13 C          -8.3336  -16.2256   26.1104 C.3     1  UNL1        0.1317
     14 C          -8.4477  -15.4580   27.3940 C.3     1  UNL1        0.1647
     15 O          -7.3516  -14.5212   27.8076 O.3     1  UNL1       -0.3426
     16 C          -6.1414  -14.3522   26.9377 C.3     1  UNL1        0.2275
     17 C          -6.0273  -15.1199   25.6540 C.2     1  UNL1        0.2607
     18 O          -4.8171  -14.9508   24.7841 O.2     1  UNL1       -0.2718
     19 N          -9.2282  -17.7236   20.7917 N.pl3   1  UNL1       -0.3133
     20 H          -9.2804  -17.1043   20.0282 H       1  UNL1        0.1485
     21 C         -10.3151  -18.7332   21.0142 C.3     1  UNL1        0.1148
     22 C         -12.7332  -16.9612   20.9005 C.3     1  UNL1        0.0307
     23 C         -12.4243  -17.7292   22.1513 C.ar    1  UNL1       -0.0245
     24 C         -13.3245  -17.6113   23.3454 C.ar    1  UNL1       -0.0045
     25 C         -13.0157  -18.3793   24.5963 C.ar    1  UNL1       -0.0007
     26 C         -11.8067  -19.2653   24.6531 C.ar    1  UNL1       -0.0045
     27 C         -10.9065  -19.3833   23.4591 C.ar    1  UNL1       -0.0245
     28 C          -9.6974  -20.2693   23.5160 C.3     1  UNL1        0.0307
     29 C         -11.2153  -18.6152   22.2082 C.ar    1  UNL1       -0.0105
     30 C          -7.2364  -19.5117   19.0209 C.3     1  UNL1        0.1374
     31 C          -8.1171  -20.7257   19.0439 C.3     1  UNL1        0.1616
     32 O          -9.3177  -20.7985   18.1476 O.3     1  UNL1       -0.3799
     33 H          -9.9624  -20.1251   18.4155 H       1  UNL1        0.2105
@<TRIPOS>BOND
     1    22    23    1
     2    23    24   ar
     3    24    25   ar
     4    25    26   ar
     5    26    27   ar
     6    27    28    1
     7    27    29   ar
     8    29    21    1
     9    21    19    1
    10    19     1    1
    11     1     2   ar
    12     2     3   ar
    13     3    12    1
    14    12    13    1
    15    13    14    1
    16    14    15    1
    17    15    16    1
    18    16    17    1
    19    17    18    2
    20     3     4   ar
    21     4     5   ar
    22     5     6   ar
    23     6     7    1
    24     6     8   ar
    25     8     9    1
    26     8    10   ar
    27    10    30    1
    28    30    31    1
    29    31    32    1
    30    10    11   ar
    31    29    23   ar
    32    11     1   ar
    33    17    12   am
    34    11     5   ar
    35    19    20    1
    36    32    33    1
@<TRIPOS>MOLECULE
*****
 33 36 0 0 0
SMALL
GASTEIGER

@<TRIPOS>ATOM
      1 C          -8.3324  -18.3722   22.8119 C.ar    1  UNL1        0.1460
      2 N          -6.8386  -18.3931   22.9458 N.ar    1  UNL1       -0.2144
      3 C          -5.9884  -18.8376   21.7927 C.ar    1  UNL1        0.1390
      4 C          -6.6321  -19.2612   20.5058 C.ar    1  UNL1        0.0360
      5 C          -8.1260  -19.2403   20.3719 C.ar    1  UNL1        0.0184
      6 C          -9.0370  -19.5987   19.2354 C.ar    1  UNL1       -0.0086
      7 C          -8.6097  -20.0933   17.8853 C.3     1  UNL1        0.0322
      8 C         -10.4502  -19.3757   19.6861 C.ar    1  UNL1        0.0336
      9 C         -11.6843  -19.6082   18.8657 C.3     1  UNL1        0.0497
     10 N         -10.4126  -18.8795   21.1011 N.ar    1  UNL1       -0.3262
     11 C          -8.9761  -18.7958   21.5249 C.ar    1  UNL1        0.0913
     12 N          -4.4945  -18.8585   21.9266 N.am    1  UNL1       -0.2392
     13 C          -3.8124  -17.9097   22.8671 C.3     1  UNL1        0.1317
     14 C          -2.3186  -17.9306   23.0010 C.3     1  UNL1        0.1647
     15 O          -1.5068  -18.9004   22.1943 O.3     1  UNL1       -0.3426
     16 C          -2.1888  -19.8492   21.2538 C.3     1  UNL1        0.2275
     17 C          -3.6828  -19.8282   21.1199 C.2     1  UNL1        0.2607
     18 O          -4.3648  -20.7770   20.1794 O.2     1  UNL1       -0.2718
     19 N          -9.1827  -17.9276   23.9650 N.pl3   1  UNL1       -0.3133
     20 H          -9.7703  -18.5728   24.4208 H       1  UNL1        0.1485
     21 C          -9.1375  -16.5002   24.4236 C.3     1  UNL1        0.1148
     22 C          -7.0756  -15.0515   22.7958 C.3     1  UNL1        0.0307
     23 C          -6.8714  -15.2389   24.2699 C.ar    1  UNL1       -0.0245
     24 C          -5.6361  -14.7020   24.9302 C.ar    1  UNL1       -0.0045
     25 C          -5.4319  -14.8894   26.4043 C.ar    1  UNL1       -0.0007
     26 C          -6.4628  -15.6137   27.2182 C.ar    1  UNL1       -0.0045
     27 C          -7.6980  -16.1506   26.5580 C.ar    1  UNL1       -0.0245
     28 C          -8.7290  -16.8750   27.3720 C.3     1  UNL1        0.0307
     29 C          -7.9023  -15.9632   25.0838 C.ar    1  UNL1       -0.0105
     30 C         -11.6025  -18.5285   21.9443 C.3     1  UNL1        0.1374
     31 C         -12.2122  -17.1614   21.8490 C.3     1  UNL1        0.1616
     32 O         -12.7164  -16.6552   20.5302 O.3     1  UNL1       -0.3799
     33 H         -11.9705  -16.5430   19.9203 H       1  UNL1        0.2105
@<TRIPOS>BOND
     1    22    23    1
     2    23    24   ar
     3    24    25   ar
     4    25    26   ar
     5    26    27   ar
     6    27    28    1
     7    27    29   ar
     8    29    21    1
     9    21    19    1
    10    19     1    1
    11     1     2   ar
    12     2     3   ar
    13     3    12    1
    14    12    13    1
    15    13    14    1
    16    14    15    1
    17    15    16    1
    18    16    17    1
    19    17    18    2
    20     3     4   ar
    21     4     5   ar
    22     5     6   ar
    23     6     7    1
    24     6     8   ar
    25     8     9    1
    26     8    10   ar
    27    10    30    1
    28    30    31    1
    29    31    32    1
    30    10    11   ar
    31    29    23   ar
    32    11     1   ar
    33    17    12   am
    34    11     5   ar
    35    19    20    1
    36    32    33    1
