@<TRIPOS>MOLECULE
*****
 29 32 0 0 0
SMALL
GASTEIGER

@<TRIPOS>ATOM
      1 C          -8.2449  -18.4288   23.2116 C.ar    1  UNL1        0.0284
      2 C          -8.2240  -19.8812   22.8372 C.ar    1  UNL1        0.0027
      3 C          -7.0756  -20.4358   22.0475 C.ar    1  UNL1        0.0339
      4 C          -5.9481  -19.5379   21.6321 C.ar    1  UNL1        0.1311
      5 N          -5.9690  -18.0855   22.0064 N.ar    1  UNL1       -0.2035
      6 C          -7.1173  -17.5309   22.7962 C.ar    1  UNL1        0.2196
      7 F          -7.1382  -16.0785   23.1704 F       1  UNL1       -0.1835
      8 N          -4.7997  -20.0925   20.8423 N.pl3   1  UNL1       -0.3144
      9 H          -4.9568  -20.4800   19.9510 H       1  UNL1        0.1485
     10 C          -3.4120  -20.0567   21.4106 C.3     1  UNL1        0.1170
     11 C          -2.4590  -18.9755   20.9950 C.ar    1  UNL1        0.0188
     12 C          -1.4440  -19.2415   19.9232 C.ar    1  UNL1        0.0964
     13 N          -0.4910  -18.1602   19.5077 N.ar    1  UNL1       -0.2402
     14 C          -0.5531  -16.8128   20.1639 C.ar    1  UNL1        0.1284
     15 C          -1.5683  -16.5468   21.2358 C.ar    1  UNL1        0.1590
     16 F          -1.6303  -15.1994   21.8920 F       1  UNL1       -0.2025
     17 C          -2.5211  -17.6280   21.6513 C.ar    1  UNL1        0.0302
     18 C          -9.3932  -17.8742   24.0013 C.3     1  UNL1        0.0603
     19 C         -10.9659  -15.4783   20.0640 C.2     1  UNL1        0.1673
     20 C         -12.4300  -15.6787   19.8068 C.2     1  UNL1        0.2683
     21 N         -13.2409  -16.5454   20.7240 N.2     1  UNL1       -0.0278
     22 C         -12.5877  -17.2117   21.8984 C.2     1  UNL1        0.3719
     23 N         -13.1266  -18.1154   22.9674 N.2     1  UNL1       -0.0311
     24 C         -11.9956  -18.4736   23.8853 C.2     1  UNL1        0.2319
     25 C         -10.7576  -17.7913   23.3836 C.2     1  UNL1        0.0329
     26 C         -11.1236  -17.0114   22.1556 C.2     1  UNL1        0.0739
     27 C         -10.3127  -16.1447   21.2383 C.3     1  UNL1        0.1019
     28 C          -9.1034  -13.7021   19.7094 C.3     1  UNL1        0.2522
     29 O         -10.1550  -14.6116   19.1467 O.2     1  UNL1       -0.4715
@<TRIPOS>BOND
     1    28    29    1
     2    29    19    1
     3    19    20    2
     4    20    21    1
     5    21    22    2
     6    22    23    1
     7    23    24    2
     8    24    25    1
     9    25    18    1
    10    18     1    1
    11     1     2   ar
    12     2     3   ar
    13     3     4   ar
    14     4     8    1
    15     8    10    1
    16    10    11    1
    17    11    12   ar
    18    12    13   ar
    19    13    14   ar
    20    14    15   ar
    21    15    16    1
    22    15    17   ar
    23     4     5   ar
    24     5     6   ar
    25     6     7    1
    26    25    26    2
    27    26    27    1
    28    27    19    1
    29    26    22    1
    30     6     1   ar
    31    17    11   ar
    32     8     9    1
@<TRIPOS>MOLECULE
*****
 29 32 0 0 0
SMALL
GASTEIGER

@<TRIPOS>ATOM
      1 C         -10.2180  -17.8789   24.3406 C.ar    1  UNL1        0.0284
      2 C          -9.7320  -18.3859   25.6660 C.ar    1  UNL1        0.0027
      3 C          -8.9691  -17.4764   26.5830 C.ar    1  UNL1        0.0339
      4 C          -8.6921  -16.0599   26.1745 C.ar    1  UNL1        0.1311
      5 N          -9.1781  -15.5530   24.8490 N.ar    1  UNL1       -0.2035
      6 C          -9.9410  -16.4624   23.9321 C.ar    1  UNL1        0.2196
      7 F         -10.4270  -15.9554   22.6066 F       1  UNL1       -0.1835
      8 N          -7.9292  -15.1504   27.0915 N.pl3   1  UNL1       -0.3144
      9 H          -8.4129  -14.5515   27.7051 H       1  UNL1        0.1485
     10 C          -6.4293  -15.1535   27.0734 C.3     1  UNL1        0.1170
     11 C          -5.6951  -15.5242   25.8190 C.ar    1  UNL1        0.0188
     12 C          -5.8691  -14.7012   24.5771 C.ar    1  UNL1        0.0964
     13 N          -5.1349  -15.0718   23.3227 N.ar    1  UNL1       -0.2402
     14 C          -4.2266  -16.2655   23.3102 C.ar    1  UNL1        0.1284
     15 C          -4.0526  -17.0885   24.5521 C.ar    1  UNL1        0.1590
     16 F          -3.1444  -18.2823   24.5396 F       1  UNL1       -0.2025
     17 C          -4.7868  -16.7179   25.8065 C.ar    1  UNL1        0.0302
     18 C         -10.9809  -18.7884   23.4237 C.3     1  UNL1        0.0603
     19 C          -6.5536  -19.4479   21.5051 C.2     1  UNL1        0.1673
     20 C          -6.5789  -19.5670   20.0101 C.2     1  UNL1        0.2683
     21 N          -7.8821  -19.4792   19.2726 N.2     1  UNL1       -0.0278
     22 C          -9.1601  -19.2722   20.0301 C.2     1  UNL1        0.3719
     23 N         -10.5852  -19.1471   19.5792 N.2     1  UNL1       -0.0311
     24 C         -11.4408  -18.9506   20.7955 C.2     1  UNL1        0.2319
     25 C         -10.5444  -18.9543   21.9982 C.2     1  UNL1        0.0329
     26 C          -9.1348  -19.1531   21.5251 C.2     1  UNL1        0.0739
     27 C          -7.8316  -19.2409   22.2626 C.3     1  UNL1        0.1019
     28 C          -3.9570  -19.5299   21.4831 C.3     1  UNL1        0.2522
     29 O          -5.2504  -19.5358   22.2426 O.2     1  UNL1       -0.4715
@<TRIPOS>BOND
     1    28    29    1
     2    29    19    1
     3    19    20    2
     4    20    21    1
     5    21    22    2
     6    22    23    1
     7    23    24    2
     8    24    25    1
     9    25    18    1
    10    18     1    1
    11     1     2   ar
    12     2     3   ar
    13     3     4   ar
    14     4     8    1
    15     8    10    1
    16    10    11    1
    17    11    12   ar
    18    12    13   ar
    19    13    14   ar
    20    14    15   ar
    21    15    16    1
    22    15    17   ar
    23     4     5   ar
    24     5     6   ar
    25     6     7    1
    26    25    26    2
    27    26    27    1
    28    27    19    1
    29    26    22    1
    30     6     1   ar
    31    17    11   ar
    32     8     9    1
@<TRIPOS>MOLECULE
*****
 29 32 0 0 0
SMALL
GASTEIGER

@<TRIPOS>ATOM
      1 C          -6.9991  -20.2091   20.9829 C.ar    1  UNL1        0.0284
      2 C          -7.3929  -20.3686   22.4214 C.ar    1  UNL1        0.0027
      3 C          -8.6702  -19.7613   22.9212 C.ar    1  UNL1        0.0339
      4 C          -9.5537  -18.9945   21.9823 C.ar    1  UNL1        0.1311
      5 N          -9.1598  -18.8350   20.5437 N.ar    1  UNL1       -0.2035
      6 C          -7.8826  -19.4423   20.0440 C.ar    1  UNL1        0.2196
      7 F          -7.4888  -19.2828   18.6054 F       1  UNL1       -0.1835
      8 N         -10.8310  -18.3872   22.4821 N.pl3   1  UNL1       -0.3144
      9 H         -11.6649  -18.9102   22.4637 H       1  UNL1        0.1485
     10 C         -10.8377  -16.9832   23.0098 C.3     1  UNL1        0.1170
     11 C          -9.5502  -16.3271   23.4124 C.ar    1  UNL1        0.0188
     12 C          -8.6068  -15.8194   22.3626 C.ar    1  UNL1        0.0964
     13 N          -7.3194  -15.1633   22.7652 N.ar    1  UNL1       -0.2402
     14 C          -6.9753  -15.0150   24.2177 C.ar    1  UNL1        0.1284
     15 C          -7.9188  -15.5228   25.2675 C.ar    1  UNL1        0.1590
     16 F          -7.5747  -15.3745   26.7200 F       1  UNL1       -0.2025
     17 C          -9.2062  -16.1788   24.8649 C.ar    1  UNL1        0.0302
     18 C          -5.7218  -20.8164   20.4832 C.3     1  UNL1        0.0603
     19 C          -3.8040  -17.3869   23.3602 C.2     1  UNL1        0.1673
     20 C          -2.5592  -16.7762   22.7879 C.2     1  UNL1        0.2683
     21 N          -2.0379  -17.2407   21.4603 N.2     1  UNL1       -0.0278
     22 C          -2.7614  -18.3159   20.7050 C.2     1  UNL1        0.3719
     23 N          -2.4878  -18.9727   19.3845 N.2     1  UNL1       -0.0311
     24 C          -3.5634  -19.9893   19.1406 C.2     1  UNL1        0.2319
     25 C          -4.5019  -19.9609   20.3105 C.2     1  UNL1        0.0329
     26 C          -4.0061  -18.9266   21.2773 C.2     1  UNL1        0.0739
     27 C          -4.5274  -18.4621   22.6049 C.3     1  UNL1        0.1019
     28 C          -3.7660  -17.4965   25.9556 C.3     1  UNL1        0.2522
     29 O          -4.3253  -16.9224   24.6878 O.2     1  UNL1       -0.4715
@<TRIPOS>BOND
     1    28    29    1
     2    29    19    1
     3    19    20    2
     4    20    21    1
     5    21    22    2
     6    22    23    1
     7    23    24    2
     8    24    25    1
     9    25    18    1
    10    18     1    1
    11     1     2   ar
    12     2     3   ar
    13     3     4   ar
    14     4     8    1
    15     8    10    1
    16    10    11    1
    17    11    12   ar
    18    12    13   ar
    19    13    14   ar
    20    14    15   ar
    21    15    16    1
    22    15    17   ar
    23     4     5   ar
    24     5     6   ar
    25     6     7    1
    26    25    26    2
    27    26    27    1
    28    27    19    1
    29    26    22    1
    30     6     1   ar
    31    17    11   ar
    32     8     9    1
@<TRIPOS>MOLECULE
*****
 29 32 0 0 0
SMALL
GASTEIGER

@<TRIPOS>ATOM
      1 C          -8.2280  -18.8821   20.4088 C.ar    1  UNL1        0.0284
      2 C          -7.4599  -20.1529   20.1967 C.ar    1  UNL1        0.0027
      3 C          -6.2207  -20.4228   20.9975 C.ar    1  UNL1        0.0339
      4 C          -5.7495  -19.4219   22.0106 C.ar    1  UNL1        0.1311
      5 N          -6.5177  -18.1511   22.2227 N.ar    1  UNL1       -0.2035
      6 C          -7.7569  -17.8811   21.4218 C.ar    1  UNL1        0.2196
      7 F          -8.5250  -16.6103   21.6340 F       1  UNL1       -0.1835
      8 N          -4.5103  -19.6919   22.8115 N.pl3   1  UNL1       -0.3144
      9 H          -4.5580  -19.7314   23.7940 H       1  UNL1        0.1485
     10 C          -3.1983  -19.9016   22.1153 C.3     1  UNL1        0.1170
     11 C          -2.5506  -18.7672   21.3781 C.ar    1  UNL1        0.0188
     12 C          -2.1874  -17.5083   22.1084 C.ar    1  UNL1        0.0964
     13 N          -1.5397  -16.3738   21.3712 N.ar    1  UNL1       -0.2402
     14 C          -1.2553  -16.4982   19.9036 C.ar    1  UNL1        0.1284
     15 C          -1.6186  -17.7571   19.1733 C.ar    1  UNL1        0.1590
     16 F          -1.3342  -17.8814   17.7058 F       1  UNL1       -0.2025
     17 C          -2.2662  -18.8915   19.9106 C.ar    1  UNL1        0.0302
     18 C          -9.4672  -18.6121   19.6079 C.3     1  UNL1        0.0603
     19 C         -11.2257  -19.3332   24.0917 C.2     1  UNL1        0.1673
     20 C         -12.4952  -18.5764   24.3477 C.2     1  UNL1        0.2683
     21 N         -13.0841  -17.7134   23.2714 N.2     1  UNL1       -0.0278
     22 C         -12.4034  -17.6071   21.9390 C.2     1  UNL1        0.3719
     23 N         -12.7452  -16.8410   20.6956 N.2     1  UNL1       -0.0311
     24 C         -11.6869  -17.1242   19.6709 C.2     1  UNL1        0.2319
     25 C         -10.6910  -18.0654   20.2812 C.2     1  UNL1        0.0329
     26 C         -11.1339  -18.3638   21.6830 C.2     1  UNL1        0.0739
     27 C         -10.5450  -19.2268   22.7593 C.3     1  UNL1        0.1019
     28 C          -9.5598  -21.1844   24.8315 C.3     1  UNL1        0.2522
     29 O         -10.6369  -20.1962   25.1680 O.2     1  UNL1       -0.4715
@<TRIPOS>BOND
     1    28    29    1
     2    29    19    1
     3    19    20    2
     4    20    21    1
     5    21    22    2
     6    22    23    1
     7    23    24    2
     8    24    25    1
     9    25    18    1
    10    18     1    1
    11     1     2   ar
    12     2     3   ar
    13     3     4   ar
    14     4     8    1
    15     8    10    1
    16    10    11    1
    17    11    12   ar
    18    12    13   ar
    19    13    14   ar
    20    14    15   ar
    21    15    16    1
    22    15    17   ar
    23     4     5   ar
    24     5     6   ar
    25     6     7    1
    26    25    26    2
    27    26    27    1
    28    27    19    1
    29    26    22    1
    30     6     1   ar
    31    17    11   ar
    32     8     9    1
@<TRIPOS>MOLECULE
*****
 29 32 0 0 0
SMALL
GASTEIGER

@<TRIPOS>ATOM
      1 C         -11.8209   -3.2421   19.1352 C.ar    1  UNL1        0.0284
      2 C         -13.0576   -3.7781   19.7934 C.ar    1  UNL1        0.0027
      3 C         -13.3567   -5.2471   19.7445 C.ar    1  UNL1        0.0339
      4 C         -12.4190   -6.1803   19.0374 C.ar    1  UNL1        0.1311
      5 N         -11.1823   -5.6443   18.3791 N.ar    1  UNL1       -0.2035
      6 C         -10.8832   -4.1752   18.4280 C.ar    1  UNL1        0.2196
      7 F          -9.6465   -3.6393   17.7698 F       1  UNL1       -0.1835
      8 N         -12.7181   -7.6493   18.9884 N.pl3   1  UNL1       -0.3144
      9 H         -12.2616   -8.2655   19.6058 H       1  UNL1        0.1485
     10 C         -13.7128   -8.1796   17.9988 C.3     1  UNL1        0.1170
     11 C         -14.9669   -8.8472   18.4802 C.ar    1  UNL1        0.0188
     12 C         -15.3039  -10.2335   18.0171 C.ar    1  UNL1        0.0964
     13 N         -16.5579  -10.9010   18.4985 N.ar    1  UNL1       -0.2402
     14 C         -17.4750  -10.1822   19.4431 C.ar    1  UNL1        0.1284
     15 C         -17.1380   -8.7958   19.9063 C.ar    1  UNL1        0.1590
     16 F         -18.0551   -8.0770   20.8509 F       1  UNL1       -0.2025
     17 C         -15.8840   -8.1284   19.4249 C.ar    1  UNL1        0.0302
     18 C         -11.5218   -1.7731   19.1841 C.3     1  UNL1        0.0603
     19 C         -15.7697    0.4344   18.2903 C.2     1  UNL1        0.1673
     20 C         -15.7520    1.2406   17.0255 C.2     1  UNL1        0.2683
     21 N         -14.5073    1.2988   16.1905 N.2     1  UNL1       -0.0278
     22 C         -13.2802    0.5508   16.6203 C.2     1  UNL1        0.3719
     23 N         -11.9175    0.4212   16.0070 N.2     1  UNL1       -0.0311
     24 C         -11.0929   -0.4651   16.8928 C.2     1  UNL1        0.2319
     25 C         -11.9460   -0.8833   18.0535 C.2     1  UNL1        0.0329
     26 C         -13.2978   -0.2553   17.8851 C.2     1  UNL1        0.0739
     27 C         -14.5426   -0.3135   18.7201 C.3     1  UNL1        0.1019
     28 C         -16.9221    0.4902   20.6181 C.3     1  UNL1        0.2522
     29 O         -17.0144    0.3762   19.1253 O.2     1  UNL1       -0.4715
@<TRIPOS>BOND
     1    28    29    1
     2    29    19    1
     3    19    20    2
     4    20    21    1
     5    21    22    2
     6    22    23    1
     7    23    24    2
     8    24    25    1
     9    25    18    1
    10    18     1    1
    11     1     2   ar
    12     2     3   ar
    13     3     4   ar
    14     4     8    1
    15     8    10    1
    16    10    11    1
    17    11    12   ar
    18    12    13   ar
    19    13    14   ar
    20    14    15   ar
    21    15    16    1
    22    15    17   ar
    23     4     5   ar
    24     5     6   ar
    25     6     7    1
    26    25    26    2
    27    26    27    1
    28    27    19    1
    29    26    22    1
    30     6     1   ar
    31    17    11   ar
    32     8     9    1
@<TRIPOS>MOLECULE
*****
 29 32 0 0 0
SMALL
GASTEIGER

@<TRIPOS>ATOM
      1 C          -7.0232  -16.4844   23.0820 C.ar    1  UNL1        0.0284
      2 C          -7.0997  -17.7726   22.3174 C.ar    1  UNL1        0.0027
      3 C          -5.9198  -18.6983   22.2876 C.ar    1  UNL1        0.0339
      4 C          -4.6633  -18.3358   23.0224 C.ar    1  UNL1        0.1311
      5 N          -4.5869  -17.0475   23.7870 N.ar    1  UNL1       -0.2035
      6 C          -5.7668  -16.1218   23.8169 C.ar    1  UNL1        0.2196
      7 F          -5.6902  -14.8337   24.5815 F       1  UNL1       -0.1835
      8 N          -3.4834  -19.2615   22.9925 N.pl3   1  UNL1       -0.3144
      9 H          -2.9664  -19.4267   23.8139 H       1  UNL1        0.1485
     10 C          -3.0912  -19.9355   21.7111 C.3     1  UNL1        0.1170
     11 C          -2.3582  -19.1658   20.6527 C.ar    1  UNL1        0.0188
     12 C          -2.9425  -19.0395   19.2770 C.ar    1  UNL1        0.0964
     13 N          -2.2095  -18.2698   18.2185 N.ar    1  UNL1       -0.2402
     14 C          -0.8922  -17.6264   18.5358 C.ar    1  UNL1        0.1284
     15 C          -0.3079  -17.7527   19.9116 C.ar    1  UNL1        0.1590
     16 F           1.0094  -17.1092   20.2288 F       1  UNL1       -0.2025
     17 C          -1.0409  -18.5223   20.9699 C.ar    1  UNL1        0.0302
     18 C          -8.2031  -15.5588   23.1119 C.3     1  UNL1        0.0603
     19 C         -12.3910  -18.0250   23.4211 C.2     1  UNL1        0.1673
     20 C         -13.2198  -17.9234   22.1751 C.2     1  UNL1        0.2683
     21 N         -12.7244  -17.1218   21.0081 N.2     1  UNL1       -0.0278
     22 C         -11.4002  -16.4217   21.0871 C.2     1  UNL1        0.3719
     23 N         -10.6571  -15.5657   20.1047 N.2     1  UNL1       -0.0311
     24 C          -9.3690  -15.1383   20.7436 C.2     1  UNL1        0.2319
     25 C          -9.3160  -15.7300   22.1209 C.2     1  UNL1        0.0329
     26 C         -10.5714  -16.5233   22.3332 C.2     1  UNL1        0.0739
     27 C         -11.0668  -17.3249   23.5002 C.3     1  UNL1        0.1019
     28 C         -14.1613  -18.4393   25.2770 C.3     1  UNL1        0.2522
     29 O         -12.8864  -18.8267   24.5881 O.2     1  UNL1       -0.4715
@<TRIPOS>BOND
     1    28    29    1
     2    29    19    1
     3    19    20    2
     4    20    21    1
     5    21    22    2
     6    22    23    1
     7    23    24    2
     8    24    25    1
     9    25    18    1
    10    18     1    1
    11     1     2   ar
    12     2     3   ar
    13     3     4   ar
    14     4     8    1
    15     8    10    1
    16    10    11    1
    17    11    12   ar
    18    12    13   ar
    19    13    14   ar
    20    14    15   ar
    21    15    16    1
    22    15    17   ar
    23     4     5   ar
    24     5     6   ar
    25     6     7    1
    26    25    26    2
    27    26    27    1
    28    27    19    1
    29    26    22    1
    30     6     1   ar
    31    17    11   ar
    32     8     9    1
@<TRIPOS>MOLECULE
*****
 29 32 0 0 0
SMALL
GASTEIGER

@<TRIPOS>ATOM
      1 C          -7.5133  -16.2160   24.6396 C.ar    1  UNL1        0.0284
      2 C          -7.2051  -16.8679   23.3244 C.ar    1  UNL1        0.0027
      3 C          -5.8347  -16.7417   22.7276 C.ar    1  UNL1        0.0339
      4 C          -4.7725  -15.9635   23.4460 C.ar    1  UNL1        0.1311
      5 N          -5.0808  -15.3115   24.7613 N.ar    1  UNL1       -0.2035
      6 C          -6.4511  -15.4377   25.3582 C.ar    1  UNL1        0.2196
      7 F          -6.7593  -14.7857   26.6734 F       1  UNL1       -0.1835
      8 N          -3.4022  -15.8372   22.8492 N.pl3   1  UNL1       -0.3144
      9 H          -3.0671  -14.9552   22.5680 H       1  UNL1        0.1485
     10 C          -2.5425  -17.0548   22.6807 C.3     1  UNL1        0.1170
     11 C          -2.6509  -17.8829   21.4348 C.ar    1  UNL1        0.0188
     12 C          -1.8422  -17.5248   20.2234 C.ar    1  UNL1        0.0964
     13 N          -1.9507  -18.3530   18.9774 N.ar    1  UNL1       -0.2402
     14 C          -2.8679  -19.5394   18.9429 C.ar    1  UNL1        0.1284
     15 C          -3.6767  -19.8975   20.1545 C.ar    1  UNL1        0.1590
     16 F          -4.5939  -21.0839   20.1199 F       1  UNL1       -0.2025
     17 C          -3.5681  -19.0693   21.4003 C.ar    1  UNL1        0.0302
     18 C          -8.8836  -16.3422   25.2365 C.3     1  UNL1        0.0603
     19 C         -11.9481  -16.6532   21.4644 C.2     1  UNL1        0.1673
     20 C         -12.6695  -17.9670   21.4072 C.2     1  UNL1        0.2683
     21 N         -12.4064  -19.0131   22.4495 N.2     1  UNL1       -0.0278
     22 C         -11.4219  -18.7454   23.5490 C.2     1  UNL1        0.3719
     23 N         -10.9597  -19.5788   24.7074 N.2     1  UNL1       -0.0311
     24 C          -9.9526  -18.7800   25.4805 C.2     1  UNL1        0.2319
     25 C          -9.7924  -17.4529   24.8000 C.2     1  UNL1        0.0329
     26 C         -10.7004  -17.4316   23.6062 C.2     1  UNL1        0.0739
     27 C         -10.9635  -16.3855   22.5639 C.3     1  UNL1        0.1019
     28 C         -11.4381  -15.6180   19.1367 C.3     1  UNL1        0.2522
     29 O         -12.2112  -15.6071   20.4220 O.2     1  UNL1       -0.4715
@<TRIPOS>BOND
     1    28    29    1
     2    29    19    1
     3    19    20    2
     4    20    21    1
     5    21    22    2
     6    22    23    1
     7    23    24    2
     8    24    25    1
     9    25    18    1
    10    18     1    1
    11     1     2   ar
    12     2     3   ar
    13     3     4   ar
    14     4     8    1
    15     8    10    1
    16    10    11    1
    17    11    12   ar
    18    12    13   ar
    19    13    14   ar
    20    14    15   ar
    21    15    16    1
    22    15    17   ar
    23     4     5   ar
    24     5     6   ar
    25     6     7    1
    26    25    26    2
    27    26    27    1
    28    27    19    1
    29    26    22    1
    30     6     1   ar
    31    17    11   ar
    32     8     9    1
@<TRIPOS>MOLECULE
*****
 29 32 0 0 0
SMALL
GASTEIGER

@<TRIPOS>ATOM
      1 C           5.1500   -3.5742   21.8213 C.ar    1  UNL1        0.0284
      2 C           4.3207   -2.8928   22.8691 C.ar    1  UNL1        0.0027
      3 C           4.9341   -2.5205   24.1862 C.ar    1  UNL1        0.0339
      4 C           6.3770   -2.8294   24.4557 C.ar    1  UNL1        0.1311
      5 N           7.2064   -3.5108   23.4078 N.ar    1  UNL1       -0.2035
      6 C           6.5929   -3.8832   22.0906 C.ar    1  UNL1        0.2196
      7 F           7.4223   -4.5646   21.0429 F       1  UNL1       -0.1835
      8 N           6.9905   -2.4571   25.7728 N.pl3   1  UNL1       -0.3144
      9 H           7.6863   -1.7616   25.8128 H       1  UNL1        0.1485
     10 C           6.5439   -3.1442   27.0292 C.3     1  UNL1        0.1170
     11 C           7.0698   -4.5081   27.3655 C.ar    1  UNL1        0.0188
     12 C           7.8007   -4.7330   28.6560 C.ar    1  UNL1        0.0964
     13 N           8.3266   -6.0969   28.9923 N.ar    1  UNL1       -0.2402
     14 C           8.1216   -7.2360   28.0382 C.ar    1  UNL1        0.1284
     15 C           7.3907   -7.0112   26.7477 C.ar    1  UNL1        0.1590
     16 F           7.1857   -8.1503   25.7936 F       1  UNL1       -0.2025
     17 C           6.8648   -5.6473   26.4115 C.ar    1  UNL1        0.0302
     18 C           4.5365   -3.9466   20.5041 C.3     1  UNL1        0.0603
     19 C           1.5068   -0.2228   19.6849 C.2     1  UNL1        0.1673
     20 C           1.8337    0.5280   18.4282 C.2     1  UNL1        0.2683
     21 N           2.9932    0.0994   17.5785 N.2     1  UNL1       -0.0278
     22 C           3.8259   -1.0799   17.9857 C.2     1  UNL1        0.3719
     23 N           5.0208   -1.7308   17.3544 N.2     1  UNL1       -0.0311
     24 C           5.4324   -2.8839   18.2209 C.2     1  UNL1        0.2319
     25 C           4.4920   -2.9457   19.3878 C.2     1  UNL1        0.0329
     26 C           3.4990   -1.8307   19.2424 C.2     1  UNL1        0.0739
     27 C           2.3395   -1.4022   20.0920 C.3     1  UNL1        0.1019
     28 C          -0.1073    1.6350   20.5173 C.3     1  UNL1        0.2522
     29 O           0.3473    0.2057   20.5345 O.2     1  UNL1       -0.4715
@<TRIPOS>BOND
     1    28    29    1
     2    29    19    1
     3    19    20    2
     4    20    21    1
     5    21    22    2
     6    22    23    1
     7    23    24    2
     8    24    25    1
     9    25    18    1
    10    18     1    1
    11     1     2   ar
    12     2     3   ar
    13     3     4   ar
    14     4     8    1
    15     8    10    1
    16    10    11    1
    17    11    12   ar
    18    12    13   ar
    19    13    14   ar
    20    14    15   ar
    21    15    16    1
    22    15    17   ar
    23     4     5   ar
    24     5     6   ar
    25     6     7    1
    26    25    26    2
    27    26    27    1
    28    27    19    1
    29    26    22    1
    30     6     1   ar
    31    17    11   ar
    32     8     9    1
@<TRIPOS>MOLECULE
*****
 29 32 0 0 0
SMALL
GASTEIGER

@<TRIPOS>ATOM
      1 C          -7.1121  -20.0819   20.7709 C.ar    1  UNL1        0.0284
      2 C          -7.1453  -20.3646   22.2436 C.ar    1  UNL1        0.0027
      3 C          -8.4169  -20.1726   23.0158 C.ar    1  UNL1        0.0339
      4 C          -9.6554  -19.6979   22.3152 C.ar    1  UNL1        0.1311
      5 N          -9.6221  -19.4152   20.8424 N.ar    1  UNL1       -0.2035
      6 C          -8.3506  -19.6072   20.0702 C.ar    1  UNL1        0.2196
      7 F          -8.3174  -19.3244   18.5975 F       1  UNL1       -0.1835
      8 N         -10.9270  -19.5059   23.0873 N.pl3   1  UNL1       -0.3144
      9 H         -11.3027  -20.2508   23.6101 H       1  UNL1        0.1485
     10 C         -11.6261  -18.1791   23.0629 C.3     1  UNL1        0.1170
     11 C         -11.2180  -17.1345   22.0667 C.ar    1  UNL1        0.0188
     12 C          -9.9499  -16.3596   22.2695 C.ar    1  UNL1        0.0964
     13 N          -9.5418  -15.3150   21.2734 N.ar    1  UNL1       -0.2402
     14 C         -10.4019  -15.0453   20.0744 C.ar    1  UNL1        0.1284
     15 C         -11.6701  -15.8203   19.8717 C.ar    1  UNL1        0.1590
     16 F         -12.5302  -15.5506   18.6727 F       1  UNL1       -0.2025
     17 C         -12.0781  -16.8648   20.8678 C.ar    1  UNL1        0.0302
     18 C          -5.8405  -20.2739   19.9988 C.3     1  UNL1        0.0603
     19 C          -4.6850  -17.1261   23.5304 C.2     1  UNL1        0.1673
     20 C          -3.2224  -17.1359   23.8634 C.2     1  UNL1        0.2683
     21 N          -2.2922  -18.0554   23.1291 N.2     1  UNL1       -0.0278
     22 C          -2.8245  -18.9651   22.0619 C.2     1  UNL1        0.3719
     23 N          -2.1541  -19.9726   21.1756 N.2     1  UNL1       -0.0311
     24 C          -3.2023  -20.5855   20.2949 C.2     1  UNL1        0.2319
     25 C          -4.5205  -19.9568   20.6368 C.2     1  UNL1        0.0329
     26 C          -4.2870  -18.9554   21.7290 C.2     1  UNL1        0.0739
     27 C          -5.2172  -18.0358   22.4632 C.3     1  UNL1        0.1019
     28 C          -6.6259  -15.3992   23.5054 C.3     1  UNL1        0.2522
     29 O          -5.6152  -16.2066   24.2647 O.2     1  UNL1       -0.4715
@<TRIPOS>BOND
     1    28    29    1
     2    29    19    1
     3    19    20    2
     4    20    21    1
     5    21    22    2
     6    22    23    1
     7    23    24    2
     8    24    25    1
     9    25    18    1
    10    18     1    1
    11     1     2   ar
    12     2     3   ar
    13     3     4   ar
    14     4     8    1
    15     8    10    1
    16    10    11    1
    17    11    12   ar
    18    12    13   ar
    19    13    14   ar
    20    14    15   ar
    21    15    16    1
    22    15    17   ar
    23     4     5   ar
    24     5     6   ar
    25     6     7    1
    26    25    26    2
    27    26    27    1
    28    27    19    1
    29    26    22    1
    30     6     1   ar
    31    17    11   ar
    32     8     9    1
