@<TRIPOS>MOLECULE
*****
 32 34 0 0 0
SMALL
GASTEIGER

@<TRIPOS>ATOM
      1 C          -3.9216  -18.3903   21.9936 C.ar    1  UNL1        0.2031
      2 N          -4.7576  -17.3532   22.6835 N.ar    1  UNL1       -0.1927
      3 C          -4.2651  -15.9402   22.7868 C.ar    1  UNL1        0.2187
      4 N          -2.9367  -15.5641   22.2003 N.ar    1  UNL1       -0.2057
      5 C          -2.1008  -16.6011   21.5104 C.ar    1  UNL1        0.1799
      6 C          -2.5933  -18.0142   21.4071 C.ar    1  UNL1        0.3398
      7 N          -1.7574  -19.0512   20.7173 N.pl3   1  UNL1        0.0855
      8 O          -0.9777  -18.6898   19.4879 O.2     1  UNL1        0.0416
      9 O          -1.7012  -20.4497   21.2569 O.co2   1  UNL1       -0.5759
     10 N          -4.4141  -19.8033   21.8903 N.pl3   1  UNL1       -0.3131
     11 H          -4.0919  -20.4845   22.5239 H       1  UNL1        0.1484
     12 C          -5.3974  -20.1786   20.8216 C.3     1  UNL1        0.0883
     13 C          -9.7801  -19.3383   21.4009 C.3     1  UNL1        0.0155
     14 C          -8.9159  -19.6627   22.5833 C.3     1  UNL1        0.0014
     15 C          -7.4550  -19.9428   22.3901 C.3     1  UNL1        0.0017
     16 C          -6.8583  -19.8985   21.0147 C.3     1  UNL1        0.0196
     17 C          -7.7225  -19.5742   19.8324 C.3     1  UNL1        0.0017
     18 C          -9.1834  -19.2941   20.0255 C.3     1  UNL1        0.0014
     19 N         -11.8951  -17.9359   20.8440 N.3     1  UNL1       -0.3211
     20 C         -11.2410  -19.0582   21.5941 C.3     1  UNL1        0.0651
     21 H         -12.8827  -17.8896   21.0946 H       1  UNL1        0.1189
     22 H         -11.8060  -18.0998   19.8412 H       1  UNL1        0.1189
     23 N          -5.1010  -14.9032   23.4766 N.pl3   1  UNL1       -0.2990
     24 H          -4.6795  -14.0868   23.8305 H       1  UNL1        0.1500
     25 C          -6.5790  -15.1099   23.6273 C.3     1  UNL1        0.1173
     26 C          -7.1398  -15.5913   24.9326 C.ar    1  UNL1        0.0080
     27 C          -6.3492  -15.4231   26.1961 C.ar    1  UNL1       -0.0018
     28 C          -6.9099  -15.9045   27.5015 C.ar    1  UNL1       -0.0002
     29 C          -8.2613  -16.5541   27.5432 C.ar    1  UNL1        0.0008
     30 C          -9.0519  -16.7224   26.2796 C.ar    1  UNL1        0.0111
     31 C          -8.4912  -16.2410   24.9743 C.ar    1  UNL1        0.0553
     32 CL         -9.2818  -16.4092   23.7108 Cl      1  UNL1       -0.0825
@<TRIPOS>UNITY_ATOM_ATTR
7 1
charge 1
9 1
charge -1
@<TRIPOS>BOND
     1    19    20    1
     2    20    13    1
     3    13    14    1
     4    14    15    1
     5    15    16    1
     6    16    12    1
     7    12    10    1
     8    10     1    1
     9     1     2   ar
    10     2     3   ar
    11     3    23    1
    12    23    25    1
    13    25    26    1
    14    26    27   ar
    15    27    28   ar
    16    28    29   ar
    17    29    30   ar
    18    30    31   ar
    19    31    32    1
    20     3     4   ar
    21     4     5   ar
    22     5     6   ar
    23     6     7    1
    24     7     8    2
    25     7     9    1
    26    16    17    1
    27    17    18    1
    28    18    13    1
    29     6     1   ar
    30    31    26   ar
    31    19    21    1
    32    19    22    1
    33    10    11    1
    34    23    24    1
@<TRIPOS>MOLECULE
*****
 32 34 0 0 0
SMALL
GASTEIGER

@<TRIPOS>ATOM
      1 C          -6.4758  -15.9831   23.8546 C.ar    1  UNL1        0.2031
      2 N          -7.1755  -16.3563   22.5813 N.ar    1  UNL1       -0.1927
      3 C          -8.6738  -16.3322   22.5140 C.ar    1  UNL1        0.2187
      4 N          -9.4724  -15.9348   23.7200 N.ar    1  UNL1       -0.2057
      5 C          -8.7727  -15.5615   24.9932 C.ar    1  UNL1        0.1799
      6 C          -7.2745  -15.5857   25.0605 C.ar    1  UNL1        0.3398
      7 N          -6.5748  -15.2124   26.3337 N.pl3   1  UNL1        0.0855
      8 O          -7.1389  -15.6457   27.6544 O.2     1  UNL1        0.0416
      9 O          -5.3109  -14.4058   26.2864 O.co2   1  UNL1       -0.5759
     10 N          -4.9775  -16.0072   23.9219 N.pl3   1  UNL1       -0.3131
     11 H          -4.4771  -15.1696   24.0532 H       1  UNL1        0.1484
     12 C          -4.2417  -17.3075   23.7894 C.3     1  UNL1        0.0883
     13 C          -1.4498  -17.9696   20.3228 C.3     1  UNL1        0.0155
     14 C          -2.2499  -19.1140   20.8706 C.3     1  UNL1        0.0014
     15 C          -3.1805  -18.8933   22.0261 C.3     1  UNL1        0.0017
     16 C          -3.3110  -17.5282   22.6338 C.3     1  UNL1        0.0196
     17 C          -2.5110  -16.3838   22.0860 C.3     1  UNL1        0.0017
     18 C          -1.5803  -16.6045   20.9305 C.3     1  UNL1        0.0014
     19 N          -0.9507  -17.8284   17.7770 N.3     1  UNL1       -0.3211
     20 C          -0.5192  -18.1903   19.1673 C.3     1  UNL1        0.0651
     21 H          -0.1998  -18.0437   17.1211 H       1  UNL1        0.1189
     22 H          -1.1629  -16.8316   17.7356 H       1  UNL1        0.1189
     23 N          -9.3735  -16.7055   21.2408 N.pl3   1  UNL1       -0.2990
     24 H          -9.2298  -16.1724   20.4257 H       1  UNL1        0.1500
     25 C         -10.2921  -17.8909   21.2096 C.3     1  UNL1        0.1173
     26 C         -11.2391  -18.1361   22.3466 C.ar    1  UNL1        0.0080
     27 C         -12.5751  -17.4544   22.3702 C.ar    1  UNL1       -0.0018
     28 C         -13.5222  -17.6995   23.5073 C.ar    1  UNL1       -0.0002
     29 C         -13.1333  -18.6263   24.6208 C.ar    1  UNL1        0.0008
     30 C         -11.7973  -19.3080   24.5972 C.ar    1  UNL1        0.0111
     31 C         -10.8502  -19.0628   23.4601 C.ar    1  UNL1        0.0553
     32 CL         -9.5143  -19.7445   23.4365 Cl      1  UNL1       -0.0825
@<TRIPOS>UNITY_ATOM_ATTR
7 1
charge 1
9 1
charge -1
@<TRIPOS>BOND
     1    19    20    1
     2    20    13    1
     3    13    14    1
     4    14    15    1
     5    15    16    1
     6    16    12    1
     7    12    10    1
     8    10     1    1
     9     1     2   ar
    10     2     3   ar
    11     3    23    1
    12    23    25    1
    13    25    26    1
    14    26    27   ar
    15    27    28   ar
    16    28    29   ar
    17    29    30   ar
    18    30    31   ar
    19    31    32    1
    20     3     4   ar
    21     4     5   ar
    22     5     6   ar
    23     6     7    1
    24     7     8    2
    25     7     9    1
    26    16    17    1
    27    17    18    1
    28    18    13    1
    29     6     1   ar
    30    31    26   ar
    31    19    21    1
    32    19    22    1
    33    10    11    1
    34    23    24    1
@<TRIPOS>MOLECULE
*****
 32 34 0 0 0
SMALL
GASTEIGER

@<TRIPOS>ATOM
      1 C          -7.4293  -17.1501   23.5585 C.ar    1  UNL1        0.2031
      2 N          -8.6530  -18.0041   23.7113 N.ar    1  UNL1       -0.1927
      3 C          -9.5688  -17.7998   24.8816 C.ar    1  UNL1        0.2187
      4 N          -9.2608  -16.7415   25.8991 N.ar    1  UNL1       -0.2057
      5 C          -8.0372  -15.8875   25.7462 C.ar    1  UNL1        0.1799
      6 C          -7.1214  -16.0918   24.5759 C.ar    1  UNL1        0.3398
      7 N          -5.8978  -15.2379   24.4231 N.pl3   1  UNL1        0.0855
      8 O          -5.1679  -14.7487   25.6388 O.2     1  UNL1        0.0416
      9 O          -5.4039  -14.8732   23.0544 O.co2   1  UNL1       -0.5759
     10 N          -6.5136  -17.3544   22.3882 N.pl3   1  UNL1       -0.3131
     11 H          -6.4826  -16.6871   21.6650 H       1  UNL1        0.1484
     12 C          -5.6450  -18.5754   22.3197 C.3     1  UNL1        0.0883
     13 C          -1.5802  -18.3404   20.4033 C.3     1  UNL1        0.0155
     14 C          -2.7400  -18.9020   19.6356 C.3     1  UNL1        0.0014
     15 C          -4.0949  -18.9803   20.2744 C.3     1  UNL1        0.0017
     16 C          -4.2901  -18.4970   21.6809 C.3     1  UNL1        0.0196
     17 C          -3.1302  -17.9355   22.4486 C.3     1  UNL1        0.0017
     18 C          -1.7753  -17.8572   21.8098 C.3     1  UNL1        0.0014
     19 N           0.9545  -17.7929   20.5632 N.3     1  UNL1       -0.3211
     20 C          -0.2253  -18.2621   19.7645 C.3     1  UNL1        0.0651
     21 H           1.7882  -17.8023   19.9757 H       1  UNL1        0.1189
     22 H           1.0935  -18.4133   21.3608 H       1  UNL1        0.1189
     23 N         -10.7925  -18.6537   25.0345 N.pl3   1  UNL1       -0.2990
     24 H         -10.8626  -19.2829   25.7884 H       1  UNL1        0.1500
     25 C         -11.9094  -18.5490   24.0386 C.3     1  UNL1        0.1173
     26 C         -11.6051  -18.5273   22.5700 C.ar    1  UNL1        0.0080
     27 C         -11.0646  -19.7546   21.8979 C.ar    1  UNL1       -0.0018
     28 C         -10.7603  -19.7330   20.4292 C.ar    1  UNL1       -0.0002
     29 C         -10.9966  -18.4842   19.6326 C.ar    1  UNL1        0.0008
     30 C         -11.5372  -17.2569   20.3048 C.ar    1  UNL1        0.0111
     31 C         -11.8414  -17.2785   21.7734 C.ar    1  UNL1        0.0553
     32 CL        -12.3819  -16.0513   22.4454 Cl      1  UNL1       -0.0825
@<TRIPOS>UNITY_ATOM_ATTR
7 1
charge 1
9 1
charge -1
@<TRIPOS>BOND
     1    19    20    1
     2    20    13    1
     3    13    14    1
     4    14    15    1
     5    15    16    1
     6    16    12    1
     7    12    10    1
     8    10     1    1
     9     1     2   ar
    10     2     3   ar
    11     3    23    1
    12    23    25    1
    13    25    26    1
    14    26    27   ar
    15    27    28   ar
    16    28    29   ar
    17    29    30   ar
    18    30    31   ar
    19    31    32    1
    20     3     4   ar
    21     4     5   ar
    22     5     6   ar
    23     6     7    1
    24     7     8    2
    25     7     9    1
    26    16    17    1
    27    17    18    1
    28    18    13    1
    29     6     1   ar
    30    31    26   ar
    31    19    21    1
    32    19    22    1
    33    10    11    1
    34    23    24    1
@<TRIPOS>MOLECULE
*****
 32 34 0 0 0
SMALL
GASTEIGER

@<TRIPOS>ATOM
      1 C          -3.7675  -17.9706   21.8443 C.ar    1  UNL1        0.2031
      2 N          -5.1383  -18.5505   22.0307 N.ar    1  UNL1       -0.1927
      3 C          -5.6178  -19.6474   21.1269 C.ar    1  UNL1        0.2187
      4 N          -4.7266  -20.1644   20.0367 N.ar    1  UNL1       -0.2057
      5 C          -3.3559  -19.5845   19.8503 C.ar    1  UNL1        0.1799
      6 C          -2.8763  -18.4876   20.7541 C.ar    1  UNL1        0.3398
      7 N          -1.5056  -17.9077   20.5677 N.pl3   1  UNL1        0.0855
      8 O          -1.2523  -16.4640   20.8867 O.2     1  UNL1        0.0416
      9 O          -0.3882  -18.7714   20.0623 O.co2   1  UNL1       -0.5759
     10 N          -3.2880  -16.8737   22.7480 N.pl3   1  UNL1       -0.3131
     11 H          -2.4180  -16.9547   23.2017 H       1  UNL1        0.1484
     12 C          -4.1339  -15.6534   22.9606 C.3     1  UNL1        0.0883
     13 C          -7.3593  -15.6700   26.0985 C.3     1  UNL1        0.0155
     14 C          -7.7219  -15.8069   24.6494 C.3     1  UNL1        0.0014
     15 C          -6.6468  -15.8013   23.6035 C.3     1  UNL1        0.0017
     16 C          -5.2090  -15.6589   24.0065 C.3     1  UNL1        0.0196
     17 C          -4.8464  -15.5221   25.4556 C.3     1  UNL1        0.0017
     18 C          -5.9215  -15.5277   26.5015 C.3     1  UNL1        0.0014
     19 N          -8.6787  -14.4510   27.9754 N.3     1  UNL1       -0.3211
     20 C          -8.4344  -15.6756   27.1444 C.3     1  UNL1        0.0651
     21 H          -9.4395  -14.6308   28.6305 H       1  UNL1        0.1189
     22 H          -8.9307  -13.6720   27.3671 H       1  UNL1        0.1189
     23 N          -6.9886  -20.2274   21.3133 N.pl3   1  UNL1       -0.2990
     24 H          -7.0963  -21.1909   21.4841 H       1  UNL1        0.1500
     25 C          -8.1951  -19.3392   21.2394 C.3     1  UNL1        0.1173
     26 C          -9.0879  -19.1860   22.4350 C.ar    1  UNL1        0.0080
     27 C          -9.1296  -20.2589   23.4823 C.ar    1  UNL1       -0.0018
     28 C         -10.0224  -20.1057   24.6779 C.ar    1  UNL1       -0.0002
     29 C         -10.8736  -18.8795   24.8262 C.ar    1  UNL1        0.0008
     30 C         -10.8319  -17.8065   23.7787 C.ar    1  UNL1        0.0111
     31 C          -9.9391  -17.9598   22.5832 C.ar    1  UNL1        0.0553
     32 CL         -9.8974  -16.8868   21.5359 Cl      1  UNL1       -0.0825
@<TRIPOS>UNITY_ATOM_ATTR
7 1
charge 1
9 1
charge -1
@<TRIPOS>BOND
     1    19    20    1
     2    20    13    1
     3    13    14    1
     4    14    15    1
     5    15    16    1
     6    16    12    1
     7    12    10    1
     8    10     1    1
     9     1     2   ar
    10     2     3   ar
    11     3    23    1
    12    23    25    1
    13    25    26    1
    14    26    27   ar
    15    27    28   ar
    16    28    29   ar
    17    29    30   ar
    18    30    31   ar
    19    31    32    1
    20     3     4   ar
    21     4     5   ar
    22     5     6   ar
    23     6     7    1
    24     7     8    2
    25     7     9    1
    26    16    17    1
    27    17    18    1
    28    18    13    1
    29     6     1   ar
    30    31    26   ar
    31    19    21    1
    32    19    22    1
    33    10    11    1
    34    23    24    1
@<TRIPOS>MOLECULE
*****
 32 34 0 0 0
SMALL
GASTEIGER

@<TRIPOS>ATOM
      1 C          -8.1335  -18.5553   21.4734 C.ar    1  UNL1        0.2031
      2 N          -7.5044  -17.3109   22.0265 N.ar    1  UNL1       -0.1927
      3 C          -8.2487  -16.0095   21.9793 C.ar    1  UNL1        0.2187
      4 N          -9.6222  -15.9524   21.3790 N.ar    1  UNL1       -0.2057
      5 C         -10.2513  -17.1967   20.8260 C.ar    1  UNL1        0.1799
      6 C          -9.5070  -18.4981   20.8732 C.ar    1  UNL1        0.3398
      7 N         -10.1361  -19.7424   20.3202 N.pl3   1  UNL1        0.0855
      8 O          -9.6271  -20.3347   19.0395 O.2     1  UNL1        0.0416
      9 O         -11.2743  -20.3945   21.0478 O.co2   1  UNL1       -0.5759
     10 N          -7.3892  -19.8567   21.5206 N.pl3   1  UNL1       -0.3131
     11 H          -7.5985  -20.5184   22.2189 H       1  UNL1        0.1484
     12 C          -6.3260  -20.1499   20.5040 C.3     1  UNL1        0.0883
     13 C          -2.3709  -18.0128   20.7041 C.3     1  UNL1        0.0155
     14 C          -3.0515  -18.2087   19.3818 C.3     1  UNL1        0.0014
     15 C          -4.3699  -18.9211   19.3151 C.3     1  UNL1        0.0017
     16 C          -5.0076  -19.4375   20.5707 C.3     1  UNL1        0.0196
     17 C          -4.3270  -19.2417   21.8929 C.3     1  UNL1        0.0017
     18 C          -3.0087  -18.5293   21.9596 C.3     1  UNL1        0.0014
     19 N           0.2177  -18.0454   20.4856 N.3     1  UNL1       -0.3211
     20 C          -1.0525  -17.3004   20.7708 C.3     1  UNL1        0.0651
     21 H           1.0114  -17.4111   20.5759 H       1  UNL1        0.1189
     22 H           0.1872  -18.4189   19.5370 H       1  UNL1        0.1189
     23 N          -7.6196  -14.7652   22.5323 N.pl3   1  UNL1       -0.2990
     24 H          -7.8158  -13.8911   22.1240 H       1  UNL1        0.1500
     25 C          -6.6915  -14.8526   23.7076 C.3     1  UNL1        0.1173
     26 C          -7.1837  -15.4047   25.0125 C.ar    1  UNL1        0.0080
     27 C          -8.5801  -15.9416   25.1207 C.ar    1  UNL1       -0.0018
     28 C          -9.0723  -16.4938   26.4257 C.ar    1  UNL1       -0.0002
     29 C          -8.1681  -16.5090   27.6224 C.ar    1  UNL1        0.0008
     30 C          -6.7716  -15.9721   27.5141 C.ar    1  UNL1        0.0111
     31 C          -6.2794  -15.4200   26.2092 C.ar    1  UNL1        0.0553
     32 CL         -4.8830  -14.8831   26.1010 Cl      1  UNL1       -0.0825
@<TRIPOS>UNITY_ATOM_ATTR
7 1
charge 1
9 1
charge -1
@<TRIPOS>BOND
     1    19    20    1
     2    20    13    1
     3    13    14    1
     4    14    15    1
     5    15    16    1
     6    16    12    1
     7    12    10    1
     8    10     1    1
     9     1     2   ar
    10     2     3   ar
    11     3    23    1
    12    23    25    1
    13    25    26    1
    14    26    27   ar
    15    27    28   ar
    16    28    29   ar
    17    29    30   ar
    18    30    31   ar
    19    31    32    1
    20     3     4   ar
    21     4     5   ar
    22     5     6   ar
    23     6     7    1
    24     7     8    2
    25     7     9    1
    26    16    17    1
    27    17    18    1
    28    18    13    1
    29     6     1   ar
    30    31    26   ar
    31    19    21    1
    32    19    22    1
    33    10    11    1
    34    23    24    1
@<TRIPOS>MOLECULE
*****
 32 34 0 0 0
SMALL
GASTEIGER

@<TRIPOS>ATOM
      1 C          -6.6219  -17.7090   22.9833 C.ar    1  UNL1        0.2031
      2 N          -8.0911  -17.4077   23.0140 N.ar    1  UNL1       -0.1927
      3 C          -8.5743  -16.0819   23.5226 C.ar    1  UNL1        0.2187
      4 N          -7.5883  -15.0574   24.0005 N.ar    1  UNL1       -0.2057
      5 C          -6.1193  -15.3587   23.9697 C.ar    1  UNL1        0.1799
      6 C          -5.6360  -16.6845   23.4612 C.ar    1  UNL1        0.3398
      7 N          -4.1670  -16.9858   23.4304 N.pl3   1  UNL1        0.0855
      8 O          -3.6042  -18.0651   24.3071 O.2     1  UNL1        0.0416
      9 O          -3.2606  -16.2079   22.5230 O.co2   1  UNL1       -0.5759
     10 N          -6.1387  -19.0349   22.4747 N.pl3   1  UNL1       -0.3131
     11 H          -6.1059  -19.8116   23.0788 H       1  UNL1        0.1484
     12 C          -5.7054  -19.1774   21.0457 C.3     1  UNL1        0.0883
     13 C          -1.3997  -18.5074   19.9225 C.3     1  UNL1        0.0155
     14 C          -1.7412  -19.3510   21.1148 C.3     1  UNL1        0.0014
     15 C          -3.1765  -19.5744   21.4892 C.3     1  UNL1        0.0017
     16 C          -4.2702  -18.9540   20.6713 C.3     1  UNL1        0.0196
     17 C          -3.9286  -18.1103   19.4791 C.3     1  UNL1        0.0017
     18 C          -2.4934  -17.8870   19.1047 C.3     1  UNL1        0.0014
     19 N           1.0198  -17.8319   20.5858 N.3     1  UNL1       -0.3211
     20 C           0.0356  -18.2840   19.5481 C.3     1  UNL1        0.0651
     21 H           1.9410  -17.7315   20.1598 H       1  UNL1        0.1189
     22 H           1.0652  -18.5226   21.3351 H       1  UNL1        0.1189
     23 N         -10.0433  -15.7806   23.5533 N.pl3   1  UNL1       -0.2990
     24 H         -10.3535  -14.8567   23.6931 H       1  UNL1        0.1500
     25 C         -11.0399  -16.8869   23.3710 C.3     1  UNL1        0.1173
     26 C         -11.0074  -17.7286   22.1299 C.ar    1  UNL1        0.0080
     27 C         -11.0871  -17.0784   20.7805 C.ar    1  UNL1       -0.0018
     28 C         -11.0547  -17.9201   19.5393 C.ar    1  UNL1       -0.0002
     29 C         -10.9426  -19.4119   19.6475 C.ar    1  UNL1        0.0008
     30 C         -10.8629  -20.0621   20.9970 C.ar    1  UNL1        0.0111
     31 C         -10.8953  -19.2204   22.2381 C.ar    1  UNL1        0.0553
     32 CL        -10.8156  -19.8706   23.5875 Cl      1  UNL1       -0.0825
@<TRIPOS>UNITY_ATOM_ATTR
7 1
charge 1
9 1
charge -1
@<TRIPOS>BOND
     1    19    20    1
     2    20    13    1
     3    13    14    1
     4    14    15    1
     5    15    16    1
     6    16    12    1
     7    12    10    1
     8    10     1    1
     9     1     2   ar
    10     2     3   ar
    11     3    23    1
    12    23    25    1
    13    25    26    1
    14    26    27   ar
    15    27    28   ar
    16    28    29   ar
    17    29    30   ar
    18    30    31   ar
    19    31    32    1
    20     3     4   ar
    21     4     5   ar
    22     5     6   ar
    23     6     7    1
    24     7     8    2
    25     7     9    1
    26    16    17    1
    27    17    18    1
    28    18    13    1
    29     6     1   ar
    30    31    26   ar
    31    19    21    1
    32    19    22    1
    33    10    11    1
    34    23    24    1
@<TRIPOS>MOLECULE
*****
 32 34 0 0 0
SMALL
GASTEIGER

@<TRIPOS>ATOM
      1 C          -7.6152  -16.2280   24.7752 C.ar    1  UNL1        0.2031
      2 N          -6.5571  -16.2125   23.7120 N.ar    1  UNL1       -0.1927
      3 C          -5.1841  -15.6977   24.0278 C.ar    1  UNL1        0.2187
      4 N          -4.8691  -15.1984   25.4068 N.ar    1  UNL1       -0.2057
      5 C          -5.9271  -15.2139   26.4699 C.ar    1  UNL1        0.1799
      6 C          -7.3002  -15.7287   26.1541 C.ar    1  UNL1        0.3398
      7 N          -8.3582  -15.7443   27.2172 N.pl3   1  UNL1        0.0855
      8 O          -9.0374  -17.0314   27.5807 O.2     1  UNL1        0.0416
      9 O          -8.7372  -14.4726   27.9169 O.co2   1  UNL1       -0.5759
     10 N          -8.9882  -16.7428   24.4594 N.pl3   1  UNL1       -0.3131
     11 H          -9.4448  -17.3458   25.0896 H       1  UNL1        0.1484
     12 C          -9.6655  -16.3389   23.1835 C.3     1  UNL1        0.0883
     13 C          -9.8732  -19.2231   19.7355 C.3     1  UNL1        0.0155
     14 C         -10.9544  -18.2006   19.9242 C.3     1  UNL1        0.0014
     15 C         -10.8852  -17.2393   21.0736 C.3     1  UNL1        0.0017
     16 C          -9.7348  -17.3003   22.0342 C.3     1  UNL1        0.0196
     17 C          -8.6536  -18.3227   21.8454 C.3     1  UNL1        0.0017
     18 C          -8.7228  -19.2841   20.6961 C.3     1  UNL1        0.0014
     19 N          -8.7314  -20.9811   18.2007 N.3     1  UNL1       -0.3211
     20 C          -9.9425  -20.1845   18.5862 C.3     1  UNL1        0.0651
     21 H          -8.9564  -21.5785   17.4052 H       1  UNL1        0.1189
     22 H          -8.4400  -21.5596   18.9887 H       1  UNL1        0.1189
     23 N          -4.1260  -15.6821   22.9647 N.pl3   1  UNL1       -0.2990
     24 H          -4.0351  -14.9012   22.3721 H       1  UNL1        0.1500
     25 C          -3.2065  -16.8564   22.8045 C.3     1  UNL1        0.1173
     26 C          -3.5949  -17.9967   21.9107 C.ar    1  UNL1        0.0080
     27 C          -4.7197  -18.9079   22.3035 C.ar    1  UNL1       -0.0018
     28 C          -5.1082  -20.0483   21.4098 C.ar    1  UNL1       -0.0002
     29 C          -4.3718  -20.2773   20.1232 C.ar    1  UNL1        0.0008
     30 C          -3.2469  -19.3660   19.7304 C.ar    1  UNL1        0.0111
     31 C          -2.8585  -18.2257   20.6241 C.ar    1  UNL1        0.0553
     32 CL         -1.7337  -17.3145   20.2313 Cl      1  UNL1       -0.0825
@<TRIPOS>UNITY_ATOM_ATTR
7 1
charge 1
9 1
charge -1
@<TRIPOS>BOND
     1    19    20    1
     2    20    13    1
     3    13    14    1
     4    14    15    1
     5    15    16    1
     6    16    12    1
     7    12    10    1
     8    10     1    1
     9     1     2   ar
    10     2     3   ar
    11     3    23    1
    12    23    25    1
    13    25    26    1
    14    26    27   ar
    15    27    28   ar
    16    28    29   ar
    17    29    30   ar
    18    30    31   ar
    19    31    32    1
    20     3     4   ar
    21     4     5   ar
    22     5     6   ar
    23     6     7    1
    24     7     8    2
    25     7     9    1
    26    16    17    1
    27    17    18    1
    28    18    13    1
    29     6     1   ar
    30    31    26   ar
    31    19    21    1
    32    19    22    1
    33    10    11    1
    34    23    24    1
@<TRIPOS>MOLECULE
*****
 32 34 0 0 0
SMALL
GASTEIGER

@<TRIPOS>ATOM
      1 C          -6.9452  -16.9403   23.5439 C.ar    1  UNL1        0.2031
      2 N          -5.6179  -16.9098   22.8457 N.ar    1  UNL1       -0.1927
      3 C          -4.5405  -15.9818   23.3232 C.ar    1  UNL1        0.2187
      4 N          -4.7904  -15.0844   24.4989 N.ar    1  UNL1       -0.2057
      5 C          -6.1176  -15.1150   25.1971 C.ar    1  UNL1        0.1799
      6 C          -7.1950  -16.0430   24.7195 C.ar    1  UNL1        0.3398
      7 N          -8.5223  -16.0736   25.4177 N.pl3   1  UNL1        0.0855
      8 O          -8.7692  -17.0645   26.5163 O.2     1  UNL1        0.0416
      9 O          -9.6027  -15.1132   25.0171 O.co2   1  UNL1       -0.5759
     10 N          -8.0226  -17.8683   23.0663 N.pl3   1  UNL1       -0.3131
     11 H          -7.9209  -18.8409   23.1805 H       1  UNL1        0.1484
     12 C          -9.2550  -17.3145   22.4148 C.3     1  UNL1        0.0883
     13 C         -13.3046  -18.1345   24.1977 C.3     1  UNL1        0.0155
     14 C         -12.1074  -18.9052   24.6695 C.3     1  UNL1        0.0014
     15 C         -10.7575  -18.6319   24.0752 C.3     1  UNL1        0.0017
     16 C         -10.6049  -17.5879   23.0091 C.3     1  UNL1        0.0196
     17 C         -11.8021  -16.8172   22.5373 C.3     1  UNL1        0.0017
     18 C         -13.1519  -17.0905   23.1315 C.3     1  UNL1        0.0014
     19 N         -14.7817  -18.7152   26.2546 N.3     1  UNL1       -0.3211
     20 C         -14.6544  -18.4079   24.7919 C.3     1  UNL1        0.0651
     21 H         -15.7627  -18.8734   26.4846 H       1  UNL1        0.1189
     22 H         -14.4273  -17.9290   26.7993 H       1  UNL1        0.1189
     23 N          -3.2132  -15.9512   22.6251 N.pl3   1  UNL1       -0.2990
     24 H          -2.8597  -15.1009   22.2768 H       1  UNL1        0.1500
     25 C          -2.4245  -17.2161   22.4576 C.3     1  UNL1        0.1173
     26 C          -2.9023  -18.2782   21.5123 C.ar    1  UNL1        0.0080
     27 C          -3.7887  -19.3814   22.0097 C.ar    1  UNL1       -0.0018
     28 C          -4.2665  -20.4436   21.0644 C.ar    1  UNL1       -0.0002
     29 C          -3.8579  -20.4026   19.6217 C.ar    1  UNL1        0.0008
     30 C          -2.9715  -19.2994   19.1243 C.ar    1  UNL1        0.0111
     31 C          -2.4938  -18.2372   20.0696 C.ar    1  UNL1        0.0553
     32 CL         -1.6074  -17.1341   19.5722 Cl      1  UNL1       -0.0825
@<TRIPOS>UNITY_ATOM_ATTR
7 1
charge 1
9 1
charge -1
@<TRIPOS>BOND
     1    19    20    1
     2    20    13    1
     3    13    14    1
     4    14    15    1
     5    15    16    1
     6    16    12    1
     7    12    10    1
     8    10     1    1
     9     1     2   ar
    10     2     3   ar
    11     3    23    1
    12    23    25    1
    13    25    26    1
    14    26    27   ar
    15    27    28   ar
    16    28    29   ar
    17    29    30   ar
    18    30    31   ar
    19    31    32    1
    20     3     4   ar
    21     4     5   ar
    22     5     6   ar
    23     6     7    1
    24     7     8    2
    25     7     9    1
    26    16    17    1
    27    17    18    1
    28    18    13    1
    29     6     1   ar
    30    31    26   ar
    31    19    21    1
    32    19    22    1
    33    10    11    1
    34    23    24    1
@<TRIPOS>MOLECULE
*****
 32 34 0 0 0
SMALL
GASTEIGER

@<TRIPOS>ATOM
      1 C          -7.6480  -16.4348   25.2602 C.ar    1  UNL1        0.2031
      2 N          -6.6626  -16.5197   24.1324 N.ar    1  UNL1       -0.1927
      3 C          -5.3682  -15.7657   24.2090 C.ar    1  UNL1        0.2187
      4 N          -5.0592  -14.9267   25.4135 N.ar    1  UNL1       -0.2057
      5 C          -6.0445  -14.8419   26.5412 C.ar    1  UNL1        0.1799
      6 C          -7.3389  -15.5959   26.4646 C.ar    1  UNL1        0.3398
      7 N          -8.3242  -15.5111   27.5923 N.pl3   1  UNL1        0.0855
      8 O          -8.9820  -16.7563   28.1089 O.2     1  UNL1        0.0416
      9 O          -8.6519  -14.1810   28.2036 O.co2   1  UNL1       -0.5759
     10 N          -8.9424  -17.1889   25.1835 N.pl3   1  UNL1       -0.3131
     11 H          -9.6261  -17.0653   25.8810 H       1  UNL1        0.1484
     12 C          -9.1951  -18.1312   24.0442 C.3     1  UNL1        0.0883
     13 C         -11.7182  -16.8194   20.5566 C.3     1  UNL1        0.0155
     14 C         -10.9648  -18.1149   20.4921 C.3     1  UNL1        0.0014
     15 C         -10.1238  -18.5522   21.6546 C.3     1  UNL1        0.0017
     16 C         -10.0361  -17.6940   22.8817 C.3     1  UNL1        0.0196
     17 C         -10.7895  -16.3985   22.9462 C.3     1  UNL1        0.0017
     18 C         -11.6305  -15.9612   21.7837 C.3     1  UNL1        0.0014
     19 N         -12.2216  -15.1203   18.6568 N.3     1  UNL1       -0.3211
     20 C         -12.5592  -16.3821   19.3941 C.3     1  UNL1        0.0651
     21 H         -12.8926  -14.9776   17.9020 H       1  UNL1        0.1189
     22 H         -11.2821  -15.1953   18.2668 H       1  UNL1        0.1189
     23 N          -4.3829  -15.8505   23.0813 N.pl3   1  UNL1       -0.2990
     24 H          -4.3717  -15.1555   22.3841 H       1  UNL1        0.1500
     25 C          -3.4146  -16.9944   23.0157 C.3     1  UNL1        0.1173
     26 C          -3.4905  -17.9774   21.8853 C.ar    1  UNL1        0.0080
     27 C          -4.5317  -19.0570   21.8989 C.ar    1  UNL1       -0.0018
     28 C          -4.6075  -20.0401   20.7684 C.ar    1  UNL1       -0.0002
     29 C          -3.6422  -19.9434   19.6244 C.ar    1  UNL1        0.0008
     30 C          -2.6010  -18.8637   19.6109 C.ar    1  UNL1        0.0111
     31 C          -2.5251  -17.8807   20.7413 C.ar    1  UNL1        0.0553
     32 CL         -1.4839  -16.8011   20.7277 Cl      1  UNL1       -0.0825
@<TRIPOS>UNITY_ATOM_ATTR
7 1
charge 1
9 1
charge -1
@<TRIPOS>BOND
     1    19    20    1
     2    20    13    1
     3    13    14    1
     4    14    15    1
     5    15    16    1
     6    16    12    1
     7    12    10    1
     8    10     1    1
     9     1     2   ar
    10     2     3   ar
    11     3    23    1
    12    23    25    1
    13    25    26    1
    14    26    27   ar
    15    27    28   ar
    16    28    29   ar
    17    29    30   ar
    18    30    31   ar
    19    31    32    1
    20     3     4   ar
    21     4     5   ar
    22     5     6   ar
    23     6     7    1
    24     7     8    2
    25     7     9    1
    26    16    17    1
    27    17    18    1
    28    18    13    1
    29     6     1   ar
    30    31    26   ar
    31    19    21    1
    32    19    22    1
    33    10    11    1
    34    23    24    1
