@<TRIPOS>MOLECULE
*****
 35 38 0 0 0
SMALL
GASTEIGER

@<TRIPOS>ATOM
      1 C           5.6825    0.9678   17.4221 C.ar    1  UNL1        0.1060
      2 C           6.2579   -0.4114   17.5510 C.ar    1  UNL1        0.0215
      3 C           5.4596   -1.4988   18.2070 C.ar    1  UNL1        0.0384
      4 C           4.0858   -1.2068   18.7341 C.ar    1  UNL1        0.1432
      5 C           3.5104    0.1724   18.6051 C.ar    1  UNL1        0.0888
      6 C           4.3088    1.2598   17.9491 C.ar    1  UNL1        0.0259
      7 C           2.1367    0.4642   19.1321 C.2     1  UNL1        0.2525
      8 O           0.9799    0.5842   18.1849 O.2     1  UNL1       -0.2698
      9 N           1.9199    0.6361   20.6064 N.am    1  UNL1       -0.2660
     10 C           2.9745    0.5448   21.6692 C.3     1  UNL1        0.1236
     11 C           2.3167    0.7817   22.9963 C.ar    1  UNL1        0.0338
     12 C           2.5619    0.8717   24.4734 C.ar    1  UNL1        0.0991
     13 N           1.2525    1.1651   25.1437 N.ar    1  UNL1       -0.2271
     14 N           0.1979    1.2564   24.0808 N.ar    1  UNL1       -0.1680
     15 C           0.8557    1.0195   22.7537 C.ar    1  UNL1        0.0981
     16 C           0.6104    0.9295   21.2766 C.3     1  UNL1        0.1414
     17 C           1.0356    1.3369   26.6179 C.ar    1  UNL1        0.1042
     18 C           2.0795    2.0140   27.4556 C.ar    1  UNL1        0.1181
     19 N           1.8627    2.1859   28.9299 N.ar    1  UNL1       -0.2384
     20 C           0.6019    1.6807   29.5665 C.ar    1  UNL1        0.1285
     21 C          -0.4420    1.0035   28.7287 C.ar    1  UNL1        0.1607
     22 F          -1.7028    0.4983   29.3653 F       1  UNL1       -0.2025
     23 C          -0.2252    0.8317   27.2545 C.ar    1  UNL1        0.0520
     24 S           6.4808    2.0552   16.7661 S.O2    1  UNL1        0.0087
     25 O           5.5739    3.0858   17.3708 O.2     1  UNL1       -0.1686
     26 O           7.3876    1.0247   16.1614 O.2     1  UNL1       -0.1686
     27 C           6.7056    4.5230   15.9854 C.3     1  UNL1        0.0276
     28 C           7.2790    3.1426   16.1101 C.3     1  UNL1        0.1560
     29 O           3.2875   -2.2942   19.3901 O.3     1  UNL1       -0.4702
     30 C           3.9878   -3.4129   20.1029 C.3     1  UNL1        0.2599
     31 C           4.3350   -3.2755   21.5557 C.3     1  UNL1        0.0566
     32 C           4.3410   -4.6690   19.3630 C.3     1  UNL1        0.4340
     33 F           4.6942   -5.9251   18.6231 F       1  UNL1       -0.1664
     34 F           2.9071   -4.8311   18.9536 F       1  UNL1       -0.1664
     35 F           5.7749   -4.5069   19.7724 F       1  UNL1       -0.1664
@<TRIPOS>BOND
     1    27    28    1
     2    28    24    1
     3    24    25    2
     4    24    26    2
     5    24     1    1
     6     1     2   ar
     7     2     3   ar
     8     3     4   ar
     9     4    29    1
    10    29    30    1
    11    30    31    1
    12    30    32    1
    13    32    33    1
    14    32    34    1
    15    32    35    1
    16     4     5   ar
    17     5     7    1
    18     7     8    2
    19     7     9   am
    20     9    10    1
    21    10    11    1
    22    11    12   ar
    23    12    13   ar
    24    13    17    1
    25    17    18   ar
    26    18    19   ar
    27    19    20   ar
    28    20    21   ar
    29    21    22    1
    30    21    23   ar
    31    13    14   ar
    32    14    15   ar
    33    15    16    1
    34     5     6   ar
    35     6     1   ar
    36    16     9    1
    37    15    11   ar
    38    23    17   ar
@<TRIPOS>MOLECULE
*****
 35 38 0 0 0
SMALL
GASTEIGER

@<TRIPOS>ATOM
      1 C           1.0591    0.6035   28.9322 C.ar    1  UNL1        0.1060
      2 C          -0.4306    0.4965   29.0704 C.ar    1  UNL1        0.0215
      3 C          -1.3263    1.1354   28.0508 C.ar    1  UNL1        0.0384
      4 C          -0.7320    1.8814   26.8929 C.ar    1  UNL1        0.1432
      5 C           0.7578    1.9883   26.7547 C.ar    1  UNL1        0.0888
      6 C           1.6534    1.3494   27.7744 C.ar    1  UNL1        0.0259
      7 C           1.3520    2.7343   25.5969 C.2     1  UNL1        0.2525
      8 O           1.2730    4.2314   25.5493 O.2     1  UNL1       -0.2698
      9 N           2.0251    1.9830   24.4867 N.am    1  UNL1       -0.2660
     10 C           2.1801    0.4937   24.3972 C.3     1  UNL1        0.1236
     11 C           2.9122    0.1795   23.1263 C.ar    1  UNL1        0.0338
     12 C           3.4605   -0.9351   22.2855 C.ar    1  UNL1        0.0991
     13 N           4.0968   -0.3290   21.0698 N.ar    1  UNL1       -0.2271
     14 N           3.9418    1.1604   21.1594 N.ar    1  UNL1       -0.1680
     15 C           3.2097    1.4746   22.4303 C.ar    1  UNL1        0.0981
     16 C           2.6614    2.5892   23.2711 C.3     1  UNL1        0.1414
     17 C           4.7699   -1.0802   19.9597 C.ar    1  UNL1        0.1042
     18 C           5.7803   -0.3901   19.0920 C.ar    1  UNL1        0.1181
     19 N           6.4535   -1.1413   17.9818 N.ar    1  UNL1       -0.2384
     20 C           6.1162   -2.5826   17.7392 C.ar    1  UNL1        0.1285
     21 C           5.1058   -3.2727   18.6069 C.ar    1  UNL1        0.1607
     22 F           4.7685   -4.7141   18.3643 F       1  UNL1       -0.2025
     23 C           4.4327   -2.5215   19.7171 C.ar    1  UNL1        0.0520
     24 S           1.9548   -0.0354   29.9518 S.O2    1  UNL1        0.0087
     25 O           1.3758    0.8500   31.0152 O.2     1  UNL1       -0.1686
     26 O           2.5337   -0.9209   28.8884 O.2     1  UNL1       -0.1686
     27 C           4.2916   -0.9338   30.6463 C.3     1  UNL1        0.0276
     28 C           2.8504   -0.6743   30.9715 C.3     1  UNL1        0.1560
     29 O          -1.6276    2.5203   25.8733 O.3     1  UNL1       -0.4702
     30 C          -2.5000    3.6772   26.2612 C.3     1  UNL1        0.2599
     31 C          -1.9170    4.8374   27.0124 C.3     1  UNL1        0.0566
     32 C          -3.9553    3.6741   25.8979 C.3     1  UNL1        0.4340
     33 F          -5.4107    3.6710   25.5347 F       1  UNL1       -0.1664
     34 F          -3.6015    3.3235   24.4831 F       1  UNL1       -0.1664
     35 F          -4.3092    4.0246   27.3128 F       1  UNL1       -0.1664
@<TRIPOS>BOND
     1    27    28    1
     2    28    24    1
     3    24    25    2
     4    24    26    2
     5    24     1    1
     6     1     2   ar
     7     2     3   ar
     8     3     4   ar
     9     4    29    1
    10    29    30    1
    11    30    31    1
    12    30    32    1
    13    32    33    1
    14    32    34    1
    15    32    35    1
    16     4     5   ar
    17     5     7    1
    18     7     8    2
    19     7     9   am
    20     9    10    1
    21    10    11    1
    22    11    12   ar
    23    12    13   ar
    24    13    17    1
    25    17    18   ar
    26    18    19   ar
    27    19    20   ar
    28    20    21   ar
    29    21    22    1
    30    21    23   ar
    31    13    14   ar
    32    14    15   ar
    33    15    16    1
    34     5     6   ar
    35     6     1   ar
    36    16     9    1
    37    15    11   ar
    38    23    17   ar
@<TRIPOS>MOLECULE
*****
 35 38 0 0 0
SMALL
GASTEIGER

@<TRIPOS>ATOM
      1 C           3.5187    1.7071   37.8275 C.ar    1  UNL1        0.1060
      2 C           4.8406    1.9174   38.5045 C.ar    1  UNL1        0.0215
      3 C           6.0799    2.1190   37.6837 C.ar    1  UNL1        0.0384
      4 C           5.9971    2.1103   36.1860 C.ar    1  UNL1        0.1432
      5 C           4.6752    1.9000   35.5090 C.ar    1  UNL1        0.0888
      6 C           3.4359    1.6984   36.3299 C.ar    1  UNL1        0.0259
      7 C           4.5925    1.8913   34.0113 C.2     1  UNL1        0.2525
      8 O           4.0580    3.0886   33.2828 O.2     1  UNL1       -0.2698
      9 N           5.0443    0.6854   33.2422 N.am    1  UNL1       -0.2660
     10 C           5.5981   -0.5786   33.8300 C.3     1  UNL1        0.1236
     11 C           5.9177   -1.5135   32.7013 C.ar    1  UNL1        0.0338
     12 C           6.4575   -2.8725   32.3670 C.ar    1  UNL1        0.0991
     13 N           6.4348   -3.0262   30.8751 N.ar    1  UNL1       -0.2271
     14 N           5.8809   -1.7621   30.2873 N.ar    1  UNL1       -0.1680
     15 C           5.5613   -0.8272   31.4160 C.ar    1  UNL1        0.0981
     16 C           5.0216    0.5318   31.7503 C.3     1  UNL1        0.1414
     17 C           6.8865   -4.2321   30.1060 C.ar    1  UNL1        0.1042
     18 C           7.7876   -5.2409   30.7543 C.ar    1  UNL1        0.1181
     19 N           8.2395   -6.4469   29.9852 N.ar    1  UNL1       -0.2384
     20 C           7.7902   -6.6440   28.5677 C.ar    1  UNL1        0.1285
     21 C           6.8890   -5.6351   27.9193 C.ar    1  UNL1        0.1607
     22 F           6.4397   -5.8323   26.5018 F       1  UNL1       -0.2025
     23 C           6.4372   -4.4293   28.6884 C.ar    1  UNL1        0.0520
     24 S           2.2794    1.5055   38.6483 S.O2    1  UNL1        0.0087
     25 O           1.5231    2.4199   37.7308 O.2     1  UNL1       -0.1686
     26 O           3.0358    0.5911   39.5657 O.2     1  UNL1       -0.1686
     27 C          -0.0447    2.3397   39.4561 C.3     1  UNL1        0.0276
     28 C           1.0402    1.3039   39.4690 C.3     1  UNL1        0.1560
     29 O           7.2363    2.3119   35.3652 O.3     1  UNL1       -0.4702
     30 C           8.5056    1.6044   35.7372 C.3     1  UNL1        0.2599
     31 C           9.5272    2.2957   36.5906 C.3     1  UNL1        0.0566
     32 C           8.7533    0.2055   35.2557 C.3     1  UNL1        0.4340
     33 F           9.0010   -1.1934   34.7742 F       1  UNL1       -0.1664
     34 F           8.3560   -0.3277   36.6003 F       1  UNL1       -0.1664
     35 F           9.1506    0.7386   33.9112 F       1  UNL1       -0.1664
@<TRIPOS>BOND
     1    27    28    1
     2    28    24    1
     3    24    25    2
     4    24    26    2
     5    24     1    1
     6     1     2   ar
     7     2     3   ar
     8     3     4   ar
     9     4    29    1
    10    29    30    1
    11    30    31    1
    12    30    32    1
    13    32    33    1
    14    32    34    1
    15    32    35    1
    16     4     5   ar
    17     5     7    1
    18     7     8    2
    19     7     9   am
    20     9    10    1
    21    10    11    1
    22    11    12   ar
    23    12    13   ar
    24    13    17    1
    25    17    18   ar
    26    18    19   ar
    27    19    20   ar
    28    20    21   ar
    29    21    22    1
    30    21    23   ar
    31    13    14   ar
    32    14    15   ar
    33    15    16    1
    34     5     6   ar
    35     6     1   ar
    36    16     9    1
    37    15    11   ar
    38    23    17   ar
@<TRIPOS>MOLECULE
*****
 35 38 0 0 0
SMALL
GASTEIGER

@<TRIPOS>ATOM
      1 C           5.8229   -2.2525   24.0684 C.ar    1  UNL1        0.1060
      2 C           5.5310   -3.5540   23.3821 C.ar    1  UNL1        0.0215
      3 C           4.6621   -3.5788   22.1596 C.ar    1  UNL1        0.0384
      4 C           4.0852   -2.3021   21.6235 C.ar    1  UNL1        0.1432
      5 C           4.3771   -1.0007   22.3098 C.ar    1  UNL1        0.0888
      6 C           5.2460   -0.9759   23.5323 C.ar    1  UNL1        0.0259
      7 C           3.8002    0.2759   21.7736 C.2     1  UNL1        0.2525
      8 O           4.3798    0.9006   20.5393 O.2     1  UNL1       -0.2698
      9 N           2.6436    0.9276   22.4718 N.am    1  UNL1       -0.2660
     10 C           1.9625    0.4226   23.7092 C.3     1  UNL1        0.1236
     11 C           0.8630    1.3818   24.0573 C.ar    1  UNL1        0.0338
     12 C          -0.2375    1.6625   25.0371 C.ar    1  UNL1        0.0991
     13 N          -0.9161    2.9337   24.6206 N.ar    1  UNL1       -0.2271
     14 N          -0.2349    3.4387   23.3831 N.ar    1  UNL1       -0.1680
     15 C           0.8646    2.4795   23.0350 C.ar    1  UNL1        0.0981
     16 C           1.9650    2.1989   22.0552 C.3     1  UNL1        0.1414
     17 C          -2.0726    3.5855   25.3187 C.ar    1  UNL1        0.1042
     18 C          -1.8347    4.4323   26.5337 C.ar    1  UNL1        0.1181
     19 N          -2.9913    5.0841   27.2319 N.ar    1  UNL1       -0.2384
     20 C          -4.3858    4.8891   26.7151 C.ar    1  UNL1        0.1285
     21 C          -4.6238    4.0423   25.5000 C.ar    1  UNL1        0.1607
     22 F          -6.0184    3.8473   24.9831 F       1  UNL1       -0.2025
     23 C          -3.4673    3.3905   24.8018 C.ar    1  UNL1        0.0520
     24 S           6.6918   -2.2277   25.2908 S.O2    1  UNL1        0.0087
     25 O           7.3823   -3.4753   24.8255 O.2     1  UNL1       -0.1686
     26 O           6.0013   -0.9800   25.7562 O.2     1  UNL1       -0.1686
     27 C           6.9402   -2.0621   27.8717 C.3     1  UNL1        0.0276
     28 C           7.5607   -2.2028   26.5133 C.3     1  UNL1        0.1560
     29 O           3.2163   -2.3270   20.4010 O.3     1  UNL1       -0.4702
     30 C           3.8186   -2.6187   19.0586 C.3     1  UNL1        0.2599
     31 C           3.9998   -1.5129   18.0615 C.3     1  UNL1        0.0566
     32 C           4.2397   -4.0163   18.7132 C.3     1  UNL1        0.4340
     33 F           4.6609   -5.4140   18.3677 F       1  UNL1       -0.1664
     34 F           2.8464   -4.5027   18.9818 F       1  UNL1       -0.1664
     35 F           5.6330   -3.5301   18.4445 F       1  UNL1       -0.1664
@<TRIPOS>BOND
     1    27    28    1
     2    28    24    1
     3    24    25    2
     4    24    26    2
     5    24     1    1
     6     1     2   ar
     7     2     3   ar
     8     3     4   ar
     9     4    29    1
    10    29    30    1
    11    30    31    1
    12    30    32    1
    13    32    33    1
    14    32    34    1
    15    32    35    1
    16     4     5   ar
    17     5     7    1
    18     7     8    2
    19     7     9   am
    20     9    10    1
    21    10    11    1
    22    11    12   ar
    23    12    13   ar
    24    13    17    1
    25    17    18   ar
    26    18    19   ar
    27    19    20   ar
    28    20    21   ar
    29    21    22    1
    30    21    23   ar
    31    13    14   ar
    32    14    15   ar
    33    15    16    1
    34     5     6   ar
    35     6     1   ar
    36    16     9    1
    37    15    11   ar
    38    23    17   ar
@<TRIPOS>MOLECULE
*****
 35 38 0 0 0
SMALL
GASTEIGER

@<TRIPOS>ATOM
      1 C           5.9877   -2.3939   32.1893 C.ar    1  UNL1        0.1060
      2 C           6.3389   -3.8463   32.3192 C.ar    1  UNL1        0.0215
      3 C           7.1816   -4.5108   31.2712 C.ar    1  UNL1        0.0384
      4 C           7.6731   -3.7227   30.0932 C.ar    1  UNL1        0.1432
      5 C           7.3218   -2.2702   29.9633 C.ar    1  UNL1        0.0888
      6 C           6.4791   -1.6058   31.0114 C.ar    1  UNL1        0.0259
      7 C           7.8133   -1.4822   28.7854 C.2     1  UNL1        0.2525
      8 O           9.1675   -0.8384   28.8261 O.2     1  UNL1       -0.2698
      9 N           6.9506   -1.3380   27.5668 N.am    1  UNL1       -0.2660
     10 C           5.5814   -1.9220   27.3818 C.3     1  UNL1        0.1236
     11 C           5.0903   -1.5294   26.0199 C.ar    1  UNL1        0.0338
     12 C           3.9405   -1.6477   25.0639 C.ar    1  UNL1        0.0991
     13 N           4.2955   -0.8942   23.8164 N.ar    1  UNL1       -0.2271
     14 N           5.6648   -0.3102   24.0015 N.ar    1  UNL1       -0.1680
     15 C           6.1559   -0.7028   25.3633 C.ar    1  UNL1        0.0981
     16 C           7.3057   -0.5845   26.3194 C.3     1  UNL1        0.1414
     17 C           3.4329   -0.7500   22.5979 C.ar    1  UNL1        0.1042
     18 C           2.3242    0.2603   22.5790 C.ar    1  UNL1        0.1181
     19 N           1.4615    0.4045   21.3604 N.ar    1  UNL1       -0.2384
     20 C           1.7074   -0.4615   20.1606 C.ar    1  UNL1        0.1285
     21 C           2.8161   -1.4718   20.1795 C.ar    1  UNL1        0.1607
     22 F           3.0620   -2.3379   18.9796 F       1  UNL1       -0.2025
     23 C           3.6788   -1.6160   21.3980 C.ar    1  UNL1        0.0520
     24 S           5.1450   -1.7294   33.2373 S.O2    1  UNL1        0.0087
     25 O           6.3612   -1.0357   33.7754 O.2     1  UNL1       -0.1686
     26 O           3.9287   -2.4230   32.6991 O.2     1  UNL1       -0.1686
     27 C           4.9389   -0.5401   35.5379 C.3     1  UNL1        0.0276
     28 C           4.3022   -1.0649   34.2852 C.3     1  UNL1        0.1560
     29 O           8.5158   -4.3872   29.0453 O.3     1  UNL1       -0.4702
     30 C           7.9195   -5.4419   28.1610 C.3     1  UNL1        0.2599
     31 C           8.0439   -6.8900   28.5320 C.3     1  UNL1        0.0566
     32 C           7.1987   -5.0486   26.9057 C.3     1  UNL1        0.4340
     33 F           6.4779   -4.6554   25.6503 F       1  UNL1       -0.1664
     34 F           8.2975   -4.0817   26.5776 F       1  UNL1       -0.1664
     35 F           6.0999   -6.0155   27.2337 F       1  UNL1       -0.1664
@<TRIPOS>BOND
     1    27    28    1
     2    28    24    1
     3    24    25    2
     4    24    26    2
     5    24     1    1
     6     1     2   ar
     7     2     3   ar
     8     3     4   ar
     9     4    29    1
    10    29    30    1
    11    30    31    1
    12    30    32    1
    13    32    33    1
    14    32    34    1
    15    32    35    1
    16     4     5   ar
    17     5     7    1
    18     7     8    2
    19     7     9   am
    20     9    10    1
    21    10    11    1
    22    11    12   ar
    23    12    13   ar
    24    13    17    1
    25    17    18   ar
    26    18    19   ar
    27    19    20   ar
    28    20    21   ar
    29    21    22    1
    30    21    23   ar
    31    13    14   ar
    32    14    15   ar
    33    15    16    1
    34     5     6   ar
    35     6     1   ar
    36    16     9    1
    37    15    11   ar
    38    23    17   ar
@<TRIPOS>MOLECULE
*****
 35 38 0 0 0
SMALL
GASTEIGER

@<TRIPOS>ATOM
      1 C           5.3444   -1.5330   31.3511 C.ar    1  UNL1        0.1060
      2 C           5.6415   -2.7683   32.1484 C.ar    1  UNL1        0.0215
      3 C           6.7610   -3.6769   31.7346 C.ar    1  UNL1        0.0384
      4 C           7.5834   -3.3500   30.5235 C.ar    1  UNL1        0.1432
      5 C           7.2864   -2.1146   29.7262 C.ar    1  UNL1        0.0888
      6 C           6.1668   -1.2061   30.1400 C.ar    1  UNL1        0.0259
      7 C           8.1089   -1.7879   28.5151 C.2     1  UNL1        0.2525
      8 O           9.5359   -1.3536   28.6726 O.2     1  UNL1       -0.2698
      9 N           7.5043   -1.8954   27.1465 N.am    1  UNL1       -0.2660
     10 C           6.0981   -2.3141   26.8343 C.3     1  UNL1        0.1236
     11 C           5.9245   -2.2805   25.3447 C.ar    1  UNL1        0.0338
     12 C           4.9482   -2.5185   24.2312 C.ar    1  UNL1        0.0991
     13 N           5.6435   -2.2262   22.9346 N.ar    1  UNL1       -0.2271
     14 N           7.0497   -1.8075   23.2469 N.ar    1  UNL1       -0.1680
     15 C           7.2233   -1.8411   24.7364 C.ar    1  UNL1        0.0981
     16 C           8.1997   -1.6031   25.8500 C.3     1  UNL1        0.1414
     17 C           5.0390   -2.3337   21.5661 C.ar    1  UNL1        0.1042
     18 C           4.9931   -1.1318   20.6699 C.ar    1  UNL1        0.1181
     19 N           4.3886   -1.2393   19.3013 N.ar    1  UNL1       -0.2384
     20 C           3.8298   -2.5487   18.8289 C.ar    1  UNL1        0.1285
     21 C           3.8757   -3.7507   19.7252 C.ar    1  UNL1        0.1607
     22 F           3.3169   -5.0602   19.2528 F       1  UNL1       -0.2025
     23 C           4.4802   -3.6432   21.0937 C.ar    1  UNL1        0.0520
     24 S           4.2249   -0.6244   31.7649 S.O2    1  UNL1        0.0087
     25 O           3.6304   -1.7306   32.5852 O.2     1  UNL1       -0.1686
     26 O           4.8194    0.4817   30.9445 O.2     1  UNL1       -0.1686
     27 C           2.4246    1.1480   31.1588 C.3     1  UNL1        0.0276
     28 C           3.1054    0.2841   32.1787 C.3     1  UNL1        0.1560
     29 O           8.7030   -4.2585   30.1097 O.3     1  UNL1       -0.4702
     30 C           8.4026   -5.5358   29.3828 C.3     1  UNL1        0.2599
     31 C           9.1318   -6.7951   29.7466 C.3     1  UNL1        0.0566
     32 C           7.3731   -5.5539   28.2921 C.3     1  UNL1        0.4340
     33 F           6.3434   -5.5719   27.2013 F       1  UNL1       -0.1664
     34 F           8.4256   -5.1765   27.2922 F       1  UNL1       -0.1664
     35 F           6.3205   -5.9312   29.2919 F       1  UNL1       -0.1664
@<TRIPOS>BOND
     1    27    28    1
     2    28    24    1
     3    24    25    2
     4    24    26    2
     5    24     1    1
     6     1     2   ar
     7     2     3   ar
     8     3     4   ar
     9     4    29    1
    10    29    30    1
    11    30    31    1
    12    30    32    1
    13    32    33    1
    14    32    34    1
    15    32    35    1
    16     4     5   ar
    17     5     7    1
    18     7     8    2
    19     7     9   am
    20     9    10    1
    21    10    11    1
    22    11    12   ar
    23    12    13   ar
    24    13    17    1
    25    17    18   ar
    26    18    19   ar
    27    19    20   ar
    28    20    21   ar
    29    21    22    1
    30    21    23   ar
    31    13    14   ar
    32    14    15   ar
    33    15    16    1
    34     5     6   ar
    35     6     1   ar
    36    16     9    1
    37    15    11   ar
    38    23    17   ar
@<TRIPOS>MOLECULE
*****
 35 38 0 0 0
SMALL
GASTEIGER

@<TRIPOS>ATOM
      1 C           3.3625    0.1618   30.6033 C.ar    1  UNL1        0.1060
      2 C           3.5281   -0.8644   31.6847 C.ar    1  UNL1        0.0215
      3 C           4.7523   -1.7307   31.7155 C.ar    1  UNL1        0.0384
      4 C           5.8108   -1.5706   30.6648 C.ar    1  UNL1        0.1432
      5 C           5.6452   -0.5444   29.5834 C.ar    1  UNL1        0.0888
      6 C           4.4210    0.3219   29.5527 C.ar    1  UNL1        0.0259
      7 C           6.7038   -0.3844   28.5328 C.2     1  UNL1        0.2525
      8 O           8.0190    0.2460   28.8832 O.2     1  UNL1       -0.2698
      9 N           6.4472   -0.8549   27.1318 N.am    1  UNL1       -0.2660
     10 C           5.1876   -1.5006   26.6354 C.3     1  UNL1        0.1236
     11 C           5.3671   -1.8070   25.1780 C.ar    1  UNL1        0.0338
     12 C           4.6996   -2.3954   23.9705 C.ar    1  UNL1        0.0991
     13 N           5.6575   -2.3028   22.8199 N.ar    1  UNL1       -0.2271
     14 N           6.9172   -1.6570   23.3164 N.ar    1  UNL1       -0.1680
     15 C           6.7377   -1.3506   24.7737 C.ar    1  UNL1        0.0981
     16 C           7.4052   -0.7622   25.9813 C.3     1  UNL1        0.1414
     17 C           5.4010   -2.7732   21.4190 C.ar    1  UNL1        0.1042
     18 C           6.1495   -2.1599   20.2729 C.ar    1  UNL1        0.1181
     19 N           5.8930   -2.6303   18.8718 N.ar    1  UNL1       -0.2384
     20 C           4.8878   -3.7141   18.6169 C.ar    1  UNL1        0.1285
     21 C           4.1392   -4.3275   19.7630 C.ar    1  UNL1        0.1607
     22 F           3.1340   -5.4113   19.5080 F       1  UNL1       -0.2025
     23 C           4.3957   -3.8570   21.1639 C.ar    1  UNL1        0.0520
     24 S           2.1383    1.0281   30.5726 S.O2    1  UNL1        0.0087
     25 O           1.2996   -0.1690   30.2355 O.2     1  UNL1       -0.1686
     26 O           2.9769    2.2252   30.9096 O.2     1  UNL1       -0.1686
     27 C           0.5750    2.6699   29.3034 C.3     1  UNL1        0.0276
     28 C           0.9141    1.8944   30.5418 C.3     1  UNL1        0.1560
     29 O           7.0350   -2.4369   30.6956 O.3     1  UNL1       -0.4702
     30 C           6.9714   -3.8438   30.1793 C.3     1  UNL1        0.2599
     31 C           6.9437   -4.0999   28.7016 C.3     1  UNL1        0.0566
     32 C           6.9356   -4.9946   31.1406 C.3     1  UNL1        0.4340
     33 F           6.8998   -6.1455   32.1021 F       1  UNL1       -0.1664
     34 F           6.5384   -5.9147   30.0246 F       1  UNL1       -0.1664
     35 F           7.3329   -4.0746   32.2568 F       1  UNL1       -0.1664
@<TRIPOS>BOND
     1    27    28    1
     2    28    24    1
     3    24    25    2
     4    24    26    2
     5    24     1    1
     6     1     2   ar
     7     2     3   ar
     8     3     4   ar
     9     4    29    1
    10    29    30    1
    11    30    31    1
    12    30    32    1
    13    32    33    1
    14    32    34    1
    15    32    35    1
    16     4     5   ar
    17     5     7    1
    18     7     8    2
    19     7     9   am
    20     9    10    1
    21    10    11    1
    22    11    12   ar
    23    12    13   ar
    24    13    17    1
    25    17    18   ar
    26    18    19   ar
    27    19    20   ar
    28    20    21   ar
    29    21    22    1
    30    21    23   ar
    31    13    14   ar
    32    14    15   ar
    33    15    16    1
    34     5     6   ar
    35     6     1   ar
    36    16     9    1
    37    15    11   ar
    38    23    17   ar
@<TRIPOS>MOLECULE
*****
 35 38 0 0 0
SMALL
GASTEIGER

@<TRIPOS>ATOM
      1 C           3.9554    1.2907   37.0347 C.ar    1  UNL1        0.1060
      2 C           5.3375    1.8526   37.1904 C.ar    1  UNL1        0.0215
      3 C           6.4141    1.4767   36.2159 C.ar    1  UNL1        0.0384
      4 C           6.1085    0.5389   35.0857 C.ar    1  UNL1        0.1432
      5 C           4.7264   -0.0229   34.9300 C.ar    1  UNL1        0.0888
      6 C           3.6499    0.3530   35.9046 C.ar    1  UNL1        0.0259
      7 C           4.4210   -0.9607   33.7998 C.2     1  UNL1        0.2525
      8 O           4.8611   -2.3927   33.8737 O.2     1  UNL1       -0.2698
      9 N           3.6754   -0.4663   32.5958 N.am    1  UNL1       -0.2660
     10 C           3.1743    0.9311   32.3814 C.3     1  UNL1        0.1236
     11 C           2.4892    0.9784   31.0478 C.ar    1  UNL1        0.0338
     12 C           1.7561    1.8713   30.0911 C.ar    1  UNL1        0.0991
     13 N           1.3808    1.0550   28.8900 N.ar    1  UNL1       -0.2271
     14 N           1.8819   -0.3425   29.1044 N.ar    1  UNL1       -0.1680
     15 C           2.5670   -0.3898   30.4380 C.ar    1  UNL1        0.0981
     16 C           3.3001   -1.2827   31.3947 C.3     1  UNL1        0.1414
     17 C           0.6353    1.5493   27.6860 C.ar    1  UNL1        0.1042
     18 C           1.2539    1.4403   26.3238 C.ar    1  UNL1        0.1181
     19 N           0.5083    1.9346   25.1197 N.ar    1  UNL1       -0.2384
     20 C          -0.8559    2.5379   25.2778 C.ar    1  UNL1        0.1285
     21 C          -1.4745    2.6468   26.6400 C.ar    1  UNL1        0.1607
     22 F          -2.8388    3.2502   26.7980 F       1  UNL1       -0.2025
     23 C          -0.7290    2.1526   27.8440 C.ar    1  UNL1        0.0520
     24 S           2.8789    1.6666   38.0092 S.O2    1  UNL1        0.0087
     25 O           3.7205    1.1500   39.1383 O.2     1  UNL1       -0.1686
     26 O           2.0372    2.1832   36.8802 O.2     1  UNL1       -0.1686
     27 C           0.8922    0.9877   39.5397 C.3     1  UNL1        0.0276
     28 C           1.8023    2.0425   38.9838 C.3     1  UNL1        0.1560
     29 O           7.1851    0.1630   34.1111 O.3     1  UNL1       -0.4702
     30 C           7.5210    1.0813   32.9736 C.3     1  UNL1        0.2599
     31 C           8.6304    2.0804   33.1188 C.3     1  UNL1        0.0566
     32 C           6.7476    1.0005   31.6910 C.3     1  UNL1        0.4340
     33 F           5.9742    0.9198   30.4082 F       1  UNL1       -0.1664
     34 F           6.9890   -0.4790   31.6385 F       1  UNL1       -0.1664
     35 F           6.5062    2.4800   31.7434 F       1  UNL1       -0.1664
@<TRIPOS>BOND
     1    27    28    1
     2    28    24    1
     3    24    25    2
     4    24    26    2
     5    24     1    1
     6     1     2   ar
     7     2     3   ar
     8     3     4   ar
     9     4    29    1
    10    29    30    1
    11    30    31    1
    12    30    32    1
    13    32    33    1
    14    32    34    1
    15    32    35    1
    16     4     5   ar
    17     5     7    1
    18     7     8    2
    19     7     9   am
    20     9    10    1
    21    10    11    1
    22    11    12   ar
    23    12    13   ar
    24    13    17    1
    25    17    18   ar
    26    18    19   ar
    27    19    20   ar
    28    20    21   ar
    29    21    22    1
    30    21    23   ar
    31    13    14   ar
    32    14    15   ar
    33    15    16    1
    34     5     6   ar
    35     6     1   ar
    36    16     9    1
    37    15    11   ar
    38    23    17   ar
@<TRIPOS>MOLECULE
*****
 35 38 0 0 0
SMALL
GASTEIGER

@<TRIPOS>ATOM
      1 C           8.1327   -5.7899   29.6280 C.ar    1  UNL1        0.1060
      2 C           7.4100   -5.8415   30.9414 C.ar    1  UNL1        0.0215
      3 C           6.7085   -4.6212   31.4598 C.ar    1  UNL1        0.0384
      4 C           6.7298   -3.3493   30.6648 C.ar    1  UNL1        0.1432
      5 C           7.4525   -3.2978   29.3514 C.ar    1  UNL1        0.0888
      6 C           8.1540   -4.5182   28.8330 C.ar    1  UNL1        0.0259
      7 C           7.4738   -2.0259   28.5564 C.2     1  UNL1        0.2525
      8 O           8.0111   -0.7670   29.1698 O.2     1  UNL1       -0.2698
      9 N           6.9576   -2.0130   27.1481 N.am    1  UNL1       -0.2660
     10 C           6.3933   -3.1875   26.4051 C.3     1  UNL1        0.1236
     11 C           6.0021   -2.7237   25.0333 C.ar    1  UNL1        0.0338
     12 C           5.4116   -3.1629   23.7262 C.ar    1  UNL1        0.0991
     13 N           5.3692   -1.9732   22.8136 N.ar    1  UNL1       -0.2271
     14 N           5.9335   -0.7987   23.5567 N.ar    1  UNL1       -0.1680
     15 C           6.3247   -1.2625   24.9285 C.ar    1  UNL1        0.0981
     16 C           6.9152   -0.8233   26.2355 C.3     1  UNL1        0.1414
     17 C           4.8531   -1.9603   21.4053 C.ar    1  UNL1        0.1042
     18 C           3.4753   -1.4423   21.1162 C.ar    1  UNL1        0.1181
     19 N           2.9592   -1.4294   19.7078 N.ar    1  UNL1       -0.2384
     20 C           3.8208   -1.9344   18.5886 C.ar    1  UNL1        0.1285
     21 C           5.1986   -2.4523   18.8778 C.ar    1  UNL1        0.1607
     22 F           6.0602   -2.9573   17.7585 F       1  UNL1       -0.2025
     23 C           5.7147   -2.4653   20.2860 C.ar    1  UNL1        0.0520
     24 S           8.8341   -7.0103   29.1095 S.O2    1  UNL1        0.0087
     25 O           9.5359   -7.1662   30.4260 O.2     1  UNL1       -0.1686
     26 O           8.1323   -6.8543   27.7930 O.2     1  UNL1       -0.1686
     27 C           8.9989   -8.9505   27.3895 C.3     1  UNL1        0.0276
     28 C           9.5356   -8.2306   28.5910 C.3     1  UNL1        0.1560
     29 O           6.0284   -2.1290   31.1832 O.3     1  UNL1       -0.4702
     30 C           6.2040   -1.7139   32.6139 C.3     1  UNL1        0.2599
     31 C           7.5361   -1.2175   33.0927 C.3     1  UNL1        0.0566
     32 C           5.0477   -1.7952   33.5659 C.3     1  UNL1        0.4340
     33 F           3.8914   -1.8765   34.5180 F       1  UNL1       -0.1664
     34 F           4.2489   -2.5330   32.5327 F       1  UNL1       -0.1664
     35 F           5.8465   -1.0575   34.5991 F       1  UNL1       -0.1664
@<TRIPOS>BOND
     1    27    28    1
     2    28    24    1
     3    24    25    2
     4    24    26    2
     5    24     1    1
     6     1     2   ar
     7     2     3   ar
     8     3     4   ar
     9     4    29    1
    10    29    30    1
    11    30    31    1
    12    30    32    1
    13    32    33    1
    14    32    34    1
    15    32    35    1
    16     4     5   ar
    17     5     7    1
    18     7     8    2
    19     7     9   am
    20     9    10    1
    21    10    11    1
    22    11    12   ar
    23    12    13   ar
    24    13    17    1
    25    17    18   ar
    26    18    19   ar
    27    19    20   ar
    28    20    21   ar
    29    21    22    1
    30    21    23   ar
    31    13    14   ar
    32    14    15   ar
    33    15    16    1
    34     5     6   ar
    35     6     1   ar
    36    16     9    1
    37    15    11   ar
    38    23    17   ar
