@<TRIPOS>MOLECULE
*****
 26 28 0 0 0
SMALL
GASTEIGER

@<TRIPOS>ATOM
      1 C          -5.0171  -15.9393   23.7887 C.ar    1  UNL1        0.3038
      2 N          -5.1288  -14.9181   24.8817 N.ar    1  UNL1       -0.1024
      3 N          -6.5793  -14.7751   25.2359 N.ar    1  UNL1       -0.1094
      4 C          -7.3641  -15.7080   24.3619 C.ar    1  UNL1        0.2508
      5 O          -6.3986  -16.4275   23.4675 O.2     1  UNL1       -0.4143
      6 O          -3.0066  -15.4679   22.2121 O.2     1  UNL1       -0.2649
      7 C          -3.7469  -16.3928   23.1322 C.2     1  UNL1        0.3016
      8 N          -3.2170  -17.7711   23.3959 N.am    1  UNL1       -0.2930
      9 H          -3.7028  -18.3781   23.9998 H       1  UNL1        0.1502
     10 C          -1.9468  -18.2245   22.7394 C.3     1  UNL1        0.1168
     11 C          -1.8363  -18.2304   21.2434 C.ar    1  UNL1        0.0005
     12 C          -2.9525  -18.7885   20.4112 C.ar    1  UNL1        0.0181
     13 C          -2.8420  -18.7944   18.9153 C.ar    1  UNL1        0.0986
     14 N          -1.6153  -18.2422   18.2517 N.ar    1  UNL1       -0.2423
     15 C          -0.4992  -17.6841   19.0839 C.ar    1  UNL1        0.0986
     16 C          -0.6097  -17.6783   20.5798 C.ar    1  UNL1        0.0181
     17 C          -8.8530  -15.8895   24.3793 C.3     1  UNL1        0.2420
     18 S          -9.5015  -16.8583   23.4355 S.O2    1  UNL1        0.0178
     19 O          -9.7010  -17.8251   24.5650 O.2     1  UNL1       -0.1681
     20 O          -9.3019  -15.8916   22.3060 O.2     1  UNL1       -0.1681
     21 C         -10.1500  -17.8272   22.4917 C.ar    1  UNL1        0.1062
     22 C         -10.4524  -19.2254   22.9429 C.ar    1  UNL1        0.0184
     23 C         -11.1010  -20.1943   21.9991 C.ar    1  UNL1        0.0013
     24 C         -11.4470  -19.7650   20.6042 C.ar    1  UNL1        0.0001
     25 C         -11.1445  -18.3668   20.1529 C.ar    1  UNL1        0.0013
     26 C         -10.4960  -17.3979   21.0968 C.ar    1  UNL1        0.0184
@<TRIPOS>BOND
     1     6     7    2
     2     7     8   am
     3     8    10    1
     4    10    11    1
     5    11    12   ar
     6    12    13   ar
     7    13    14   ar
     8    14    15   ar
     9    15    16   ar
    10     7     1    1
    11     1     2   ar
    12     2     3   ar
    13     3     4   ar
    14     4    17    1
    15    17    18    1
    16    18    19    2
    17    18    20    2
    18    18    21    1
    19    21    22   ar
    20    22    23   ar
    21    23    24   ar
    22    24    25   ar
    23    25    26   ar
    24     4     5   ar
    25    16    11   ar
    26     5     1   ar
    27    26    21   ar
    28     8     9    1
@<TRIPOS>MOLECULE
*****
 26 28 0 0 0
SMALL
GASTEIGER

@<TRIPOS>ATOM
      1 C           8.1152   -9.0700   27.5139 C.ar    1  UNL1        0.3038
      2 N           9.4997   -9.6384   27.6141 N.ar    1  UNL1       -0.1024
      3 N           9.3788  -11.1165   27.8387 N.ar    1  UNL1       -0.1094
      4 C           7.9195  -11.4617   27.8772 C.ar    1  UNL1        0.2508
      5 O           7.1386  -10.1969   27.6765 O.2     1  UNL1       -0.4143
      6 O           7.5101   -7.1253   25.9008 O.2     1  UNL1       -0.2649
      7 C           7.7682   -7.6279   27.2903 C.2     1  UNL1        0.3016
      8 N           7.6793   -6.6884   28.4563 N.am    1  UNL1       -0.2930
      9 H           7.8487   -7.0183   29.3683 H       1  UNL1        0.1502
     10 C           7.3324   -5.2463   28.2328 C.3     1  UNL1        0.1168
     11 C           6.9367   -4.3815   29.3928 C.ar    1  UNL1        0.0005
     12 C           6.4733   -2.9748   29.1559 C.ar    1  UNL1        0.0181
     13 C           6.0776   -2.1101   30.3159 C.ar    1  UNL1        0.0986
     14 N           6.1455   -2.6521   31.7129 N.ar    1  UNL1       -0.2423
     15 C           6.6089   -4.0589   31.9498 C.ar    1  UNL1        0.0986
     16 C           7.0045   -4.9236   30.7898 C.ar    1  UNL1        0.0181
     17 C           7.3425  -12.8313   28.0807 C.3     1  UNL1        0.2420
     18 S           5.8565  -13.0126   28.1752 S.O2    1  UNL1        0.0178
     19 O           5.7898  -13.2371   26.6935 O.2     1  UNL1       -0.1681
     20 O           5.9233  -12.7881   29.6568 O.2     1  UNL1       -0.1681
     21 C           4.3706  -13.1939   28.2696 C.ar    1  UNL1        0.1062
     22 C           3.5802  -12.4008   29.2677 C.ar    1  UNL1        0.0184
     23 C           2.0941  -12.5821   29.3622 C.ar    1  UNL1        0.0013
     24 C           1.3985  -13.5565   28.4585 C.ar    1  UNL1        0.0001
     25 C           2.1889  -14.3496   27.4603 C.ar    1  UNL1        0.0013
     26 C           3.6750  -14.1683   27.3659 C.ar    1  UNL1        0.0184
@<TRIPOS>BOND
     1     6     7    2
     2     7     8   am
     3     8    10    1
     4    10    11    1
     5    11    12   ar
     6    12    13   ar
     7    13    14   ar
     8    14    15   ar
     9    15    16   ar
    10     7     1    1
    11     1     2   ar
    12     2     3   ar
    13     3     4   ar
    14     4    17    1
    15    17    18    1
    16    18    19    2
    17    18    20    2
    18    18    21    1
    19    21    22   ar
    20    22    23   ar
    21    23    24   ar
    22    24    25   ar
    23    25    26   ar
    24     4     5   ar
    25    16    11   ar
    26     5     1   ar
    27    26    21   ar
    28     8     9    1
@<TRIPOS>MOLECULE
*****
 26 28 0 0 0
SMALL
GASTEIGER

@<TRIPOS>ATOM
      1 C           8.1504   -9.0773   27.3392 C.ar    1  UNL1        0.3038
      2 N           9.5329   -9.6085   27.5771 N.ar    1  UNL1       -0.1024
      3 N           9.4130  -11.0472   27.9839 N.ar    1  UNL1       -0.1094
      4 C           7.9564  -11.4053   27.9975 C.ar    1  UNL1        0.2508
      5 O           7.1761  -10.1878   27.5990 O.2     1  UNL1       -0.4143
      6 O           6.4224   -7.3689   26.4199 O.2     1  UNL1       -0.2649
      7 C           7.8033   -7.6808   26.9158 C.2     1  UNL1        0.3016
      8 N           8.8370   -6.5963   26.9882 N.am    1  UNL1       -0.2930
      9 H           9.7433   -6.8010   27.3136 H       1  UNL1        0.1502
     10 C           8.4898   -5.1998   26.5648 C.3     1  UNL1        0.1168
     11 C           8.0340   -4.9332   25.1608 C.ar    1  UNL1        0.0005
     12 C           8.8480   -5.4264   24.0015 C.ar    1  UNL1        0.0181
     13 C           8.3921   -5.1598   22.5976 C.ar    1  UNL1        0.0986
     14 N           7.1222   -4.4000   22.3529 N.ar    1  UNL1       -0.2423
     15 C           6.3081   -3.9068   23.5122 C.ar    1  UNL1        0.0986
     16 C           6.7640   -4.1734   24.9161 C.ar    1  UNL1        0.0181
     17 C           7.3811  -12.7455   28.3480 C.3     1  UNL1        0.2420
     18 S           5.8944  -12.9440   28.3585 S.O2    1  UNL1        0.0178
     19 O           5.8884  -12.8198   29.8534 O.2     1  UNL1       -0.1681
     20 O           5.9004  -13.0681   26.8637 O.2     1  UNL1       -0.1681
     21 C           4.4076  -13.1424   28.3691 C.ar    1  UNL1        0.1062
     22 C           3.5538  -12.3631   29.3249 C.ar    1  UNL1        0.0184
     23 C           2.0670  -12.5615   29.3356 C.ar    1  UNL1        0.0013
     24 C           1.4340  -13.5393   28.3904 C.ar    1  UNL1        0.0001
     25 C           2.2879  -14.3186   27.4345 C.ar    1  UNL1        0.0013
     26 C           3.7747  -14.1201   27.4239 C.ar    1  UNL1        0.0184
@<TRIPOS>BOND
     1     6     7    2
     2     7     8   am
     3     8    10    1
     4    10    11    1
     5    11    12   ar
     6    12    13   ar
     7    13    14   ar
     8    14    15   ar
     9    15    16   ar
    10     7     1    1
    11     1     2   ar
    12     2     3   ar
    13     3     4   ar
    14     4    17    1
    15    17    18    1
    16    18    19    2
    17    18    20    2
    18    18    21    1
    19    21    22   ar
    20    22    23   ar
    21    23    24   ar
    22    24    25   ar
    23    25    26   ar
    24     4     5   ar
    25    16    11   ar
    26     5     1   ar
    27    26    21   ar
    28     8     9    1
@<TRIPOS>MOLECULE
*****
 26 28 0 0 0
SMALL
GASTEIGER

@<TRIPOS>ATOM
      1 C           8.3027   -8.2576   27.1601 C.ar    1  UNL1        0.3038
      2 N           8.0780   -7.0444   28.0131 N.ar    1  UNL1       -0.1024
      3 N           8.3559   -5.8312   27.1760 N.ar    1  UNL1       -0.1094
      4 C           8.7525   -6.2946   25.8055 C.ar    1  UNL1        0.2508
      5 O           8.7196   -7.7942   25.7958 O.2     1  UNL1       -0.4143
      6 O           9.3485  -10.5231   27.8838 O.2     1  UNL1       -0.2649
      7 C           8.1393   -9.6838   27.5952 C.2     1  UNL1        0.3016
      8 N           6.7666  -10.2707   27.7415 N.am    1  UNL1       -0.2930
      9 H           5.9730   -9.7199   27.5521 H       1  UNL1        0.1502
     10 C           6.6032  -11.6969   28.1765 C.3     1  UNL1        0.1168
     11 C           5.2500  -12.3429   28.1366 C.ar    1  UNL1        0.0005
     12 C           4.2719  -12.1042   29.2484 C.ar    1  UNL1        0.0181
     13 C           2.9187  -12.7502   29.2084 C.ar    1  UNL1        0.0986
     14 N           2.5437  -13.6348   28.0565 N.ar    1  UNL1       -0.2423
     15 C           3.5218  -13.8735   26.9447 C.ar    1  UNL1        0.0986
     16 C           4.8750  -13.2275   26.9847 C.ar    1  UNL1        0.0181
     17 C           9.1178   -5.4132   24.6481 C.3     1  UNL1        0.2420
     18 S           8.0407   -4.7994   23.8036 S.O2    1  UNL1        0.0178
     19 O           7.8891   -6.0919   23.0576 O.2     1  UNL1       -0.1681
     20 O           8.1922   -3.5070   24.5497 O.2     1  UNL1       -0.1681
     21 C           6.9636   -4.1857   22.9592 C.ar    1  UNL1        0.1062
     22 C           7.1834   -3.9911   21.4882 C.ar    1  UNL1        0.0184
     23 C           6.1062   -3.3774   20.6436 C.ar    1  UNL1        0.0013
     24 C           4.8094   -2.9583   21.2701 C.ar    1  UNL1        0.0001
     25 C           4.5896   -3.1529   22.7411 C.ar    1  UNL1        0.0013
     26 C           5.6667   -3.7666   23.5856 C.ar    1  UNL1        0.0184
@<TRIPOS>BOND
     1     6     7    2
     2     7     8   am
     3     8    10    1
     4    10    11    1
     5    11    12   ar
     6    12    13   ar
     7    13    14   ar
     8    14    15   ar
     9    15    16   ar
    10     7     1    1
    11     1     2   ar
    12     2     3   ar
    13     3     4   ar
    14     4    17    1
    15    17    18    1
    16    18    19    2
    17    18    20    2
    18    18    21    1
    19    21    22   ar
    20    22    23   ar
    21    23    24   ar
    22    24    25   ar
    23    25    26   ar
    24     4     5   ar
    25    16    11   ar
    26     5     1   ar
    27    26    21   ar
    28     8     9    1
@<TRIPOS>MOLECULE
*****
 26 28 0 0 0
SMALL
GASTEIGER

@<TRIPOS>ATOM
      1 C           8.1735   -8.1859   27.1209 C.ar    1  UNL1        0.3038
      2 N           8.1040   -7.6892   25.7073 N.ar    1  UNL1       -0.1024
      3 N           8.2574   -6.1973   25.7321 N.ar    1  UNL1       -0.1094
      4 C           8.4219   -5.7719   27.1611 C.ar    1  UNL1        0.2508
      5 O           8.3700   -7.0010   28.0194 O.2     1  UNL1       -0.4143
      6 O           9.3060  -10.4040   27.8607 O.2     1  UNL1       -0.2649
      7 C           8.0656   -9.6164   27.5590 C.2     1  UNL1        0.3016
      8 N           6.7172  -10.2593   27.6955 N.am    1  UNL1       -0.2930
      9 H           5.9031   -9.7423   27.4975 H       1  UNL1        0.1502
     10 C           6.6092  -11.6898   28.1337 C.3     1  UNL1        0.1168
     11 C           5.2803  -12.3849   28.1045 C.ar    1  UNL1        0.0005
     12 C           4.2674  -12.1120   29.1766 C.ar    1  UNL1        0.0181
     13 C           2.9385  -12.8071   29.1473 C.ar    1  UNL1        0.0986
     14 N           2.6226  -13.7752   28.0459 N.ar    1  UNL1       -0.2423
     15 C           3.6355  -14.0481   26.9738 C.ar    1  UNL1        0.0986
     16 C           4.9644  -13.3530   27.0031 C.ar    1  UNL1        0.0181
     17 C           8.6059   -4.3646   27.6466 C.3     1  UNL1        0.2420
     18 S           7.8061   -3.8627   28.8121 S.O2    1  UNL1        0.0178
     19 O           9.0751   -3.5509   29.5486 O.2     1  UNL1       -0.1681
     20 O           6.5371   -4.1746   28.0755 O.2     1  UNL1       -0.1681
     21 C           7.0063   -3.3608   29.9776 C.ar    1  UNL1        0.1062
     22 C           6.1978   -2.1042   29.8468 C.ar    1  UNL1        0.0184
     23 C           5.3980   -1.6022   31.0123 C.ar    1  UNL1        0.0013
     24 C           5.4068   -2.3569   32.3086 C.ar    1  UNL1        0.0001
     25 C           6.2154   -3.6135   32.4394 C.ar    1  UNL1        0.0013
     26 C           7.0152   -4.1155   31.2738 C.ar    1  UNL1        0.0184
@<TRIPOS>BOND
     1     6     7    2
     2     7     8   am
     3     8    10    1
     4    10    11    1
     5    11    12   ar
     6    12    13   ar
     7    13    14   ar
     8    14    15   ar
     9    15    16   ar
    10     7     1    1
    11     1     2   ar
    12     2     3   ar
    13     3     4   ar
    14     4    17    1
    15    17    18    1
    16    18    19    2
    17    18    20    2
    18    18    21    1
    19    21    22   ar
    20    22    23   ar
    21    23    24   ar
    22    24    25   ar
    23    25    26   ar
    24     4     5   ar
    25    16    11   ar
    26     5     1   ar
    27    26    21   ar
    28     8     9    1
@<TRIPOS>MOLECULE
*****
 26 28 0 0 0
SMALL
GASTEIGER

@<TRIPOS>ATOM
      1 C          -1.0994    2.7909   20.0978 C.ar    1  UNL1        0.3038
      2 N          -0.0337    3.0657   19.0786 N.ar    1  UNL1       -0.1024
      3 N           1.1693    2.2426   19.4324 N.ar    1  UNL1       -0.1094
      4 C           0.8472    1.4591   20.6703 C.ar    1  UNL1        0.2508
      5 O          -0.5549    1.7979   21.0815 O.2     1  UNL1       -0.4143
      6 O          -2.7179    4.7187   19.4544 O.2     1  UNL1       -0.2649
      7 C          -2.4690    3.4018   20.1280 C.2     1  UNL1        0.3016
      8 N          -3.5898    2.6957   20.8319 N.am    1  UNL1       -0.2930
      9 H          -3.4265    1.8314   21.2740 H       1  UNL1        0.1502
     10 C          -4.9594    3.3066   20.8621 C.3     1  UNL1        0.1168
     11 C          -5.5564    3.7454   22.1664 C.ar    1  UNL1        0.0005
     12 C          -6.8883    4.4349   22.1874 C.ar    1  UNL1        0.0181
     13 C          -7.4852    4.8736   23.4917 C.ar    1  UNL1        0.0986
     14 N          -6.7502    4.6228   24.7750 N.ar    1  UNL1       -0.2423
     15 C          -5.4182    3.9332   24.7540 C.ar    1  UNL1        0.0986
     16 C          -4.8214    3.4945   23.4497 C.ar    1  UNL1        0.0181
     17 C           1.7659    0.5043   21.3735 C.3     1  UNL1        0.2420
     18 S           2.6834   -0.3767   20.5784 S.O2    1  UNL1        0.0178
     19 O           1.5056   -1.1766   20.1058 O.2     1  UNL1       -0.1681
     20 O           3.8610    0.4232   21.0510 O.2     1  UNL1       -0.1681
     21 C           3.6007   -1.2577   19.7833 C.ar    1  UNL1        0.1062
     22 C           3.3479   -2.7346   19.7134 C.ar    1  UNL1        0.0184
     23 C           4.2654   -3.6157   18.9182 C.ar    1  UNL1        0.0013
     24 C           5.4355   -3.0198   18.1932 C.ar    1  UNL1        0.0001
     25 C           5.6883   -1.5429   18.2631 C.ar    1  UNL1        0.0013
     26 C           4.7708   -0.6618   19.0583 C.ar    1  UNL1        0.0184
@<TRIPOS>BOND
     1     6     7    2
     2     7     8   am
     3     8    10    1
     4    10    11    1
     5    11    12   ar
     6    12    13   ar
     7    13    14   ar
     8    14    15   ar
     9    15    16   ar
    10     7     1    1
    11     1     2   ar
    12     2     3   ar
    13     3     4   ar
    14     4    17    1
    15    17    18    1
    16    18    19    2
    17    18    20    2
    18    18    21    1
    19    21    22   ar
    20    22    23   ar
    21    23    24   ar
    22    24    25   ar
    23    25    26   ar
    24     4     5   ar
    25    16    11   ar
    26     5     1   ar
    27    26    21   ar
    28     8     9    1
@<TRIPOS>MOLECULE
*****
 26 28 0 0 0
SMALL
GASTEIGER

@<TRIPOS>ATOM
      1 C           6.9639   -2.8616   19.4956 C.ar    1  UNL1        0.3038
      2 N           8.2873   -2.2662   19.1161 N.ar    1  UNL1       -0.1024
      3 N           9.3606   -3.0204   19.8435 N.ar    1  UNL1       -0.1094
      4 C           8.7005   -4.0821   20.6726 C.ar    1  UNL1        0.2508
      5 O           7.2193   -3.9839   20.4575 O.2     1  UNL1       -0.4143
      6 O           5.3369   -2.3820   17.5276 O.2     1  UNL1       -0.2649
      7 C           5.6209   -2.4135   19.0002 C.2     1  UNL1        0.3016
      8 N           4.5618   -1.9967   19.9773 N.am    1  UNL1       -0.2930
      9 H           4.7482   -2.0173   20.9438 H       1  UNL1        0.1502
     10 C           3.2188   -1.5485   19.4819 C.3     1  UNL1        0.1168
     11 C           2.3533   -0.6784   20.3444 C.ar    1  UNL1        0.0005
     12 C           1.0408   -0.1736   19.8224 C.ar    1  UNL1        0.0181
     13 C           0.1754    0.6965   20.6849 C.ar    1  UNL1        0.0986
     14 N           0.6224    1.0617   22.0693 N.ar    1  UNL1       -0.2423
     15 C           1.9349    0.5570   22.5913 C.ar    1  UNL1        0.0986
     16 C           2.8003   -0.3131   21.7288 C.ar    1  UNL1        0.0181
     17 C           9.3991   -5.0686   21.5607 C.3     1  UNL1        0.2420
     18 S           8.7615   -5.5021   22.8473 S.O2    1  UNL1        0.0178
     19 O           8.5812   -6.8840   22.2924 O.2     1  UNL1       -0.1681
     20 O           8.9417   -4.1202   23.4022 O.2     1  UNL1       -0.1681
     21 C           8.1238   -5.9356   24.1339 C.ar    1  UNL1        0.1062
     22 C           8.2053   -7.3700   24.5653 C.ar    1  UNL1        0.0184
     23 C           7.5677   -7.8036   25.8520 C.ar    1  UNL1        0.0013
     24 C           6.8486   -6.8028   26.7072 C.ar    1  UNL1        0.0001
     25 C           6.7671   -5.3685   26.2759 C.ar    1  UNL1        0.0013
     26 C           7.4048   -4.9349   24.9892 C.ar    1  UNL1        0.0184
@<TRIPOS>BOND
     1     6     7    2
     2     7     8   am
     3     8    10    1
     4    10    11    1
     5    11    12   ar
     6    12    13   ar
     7    13    14   ar
     8    14    15   ar
     9    15    16   ar
    10     7     1    1
    11     1     2   ar
    12     2     3   ar
    13     3     4   ar
    14     4    17    1
    15    17    18    1
    16    18    19    2
    17    18    20    2
    18    18    21    1
    19    21    22   ar
    20    22    23   ar
    21    23    24   ar
    22    24    25   ar
    23    25    26   ar
    24     4     5   ar
    25    16    11   ar
    26     5     1   ar
    27    26    21   ar
    28     8     9    1
@<TRIPOS>MOLECULE
*****
 26 28 0 0 0
SMALL
GASTEIGER

@<TRIPOS>ATOM
      1 C           5.4564   -2.3142   19.8264 C.ar    1  UNL1        0.3038
      2 N           5.0603   -3.7292   19.5248 N.ar    1  UNL1       -0.1024
      3 N           6.0686   -4.6386   20.1622 N.ar    1  UNL1       -0.1094
      4 C           7.0879   -3.7857   20.8577 C.ar    1  UNL1        0.2508
      5 O           6.7095   -2.3491   20.6502 O.2     1  UNL1       -0.4143
      6 O           5.0956    0.2555   19.9554 O.2     1  UNL1       -0.2649
      7 C           4.7274   -1.0809   19.3822 C.2     1  UNL1        0.3016
      8 N           3.6300   -1.1838   18.3647 N.am    1  UNL1       -0.2930
      9 H           3.3882   -2.0609   17.9884 H       1  UNL1        0.1502
     10 C           2.9009    0.0495   17.9205 C.3     1  UNL1        0.1168
     11 C           1.7799    0.5987   18.7523 C.ar    1  UNL1        0.0005
     12 C           1.2107   -0.2162   19.8756 C.ar    1  UNL1        0.0181
     13 C           0.0897    0.3329   20.7074 C.ar    1  UNL1        0.0986
     14 N          -0.4619    1.6970   20.4158 N.ar    1  UNL1       -0.2423
     15 C           0.1073    2.5119   19.2925 C.ar    1  UNL1        0.0986
     16 C           1.2283    1.9627   18.4608 C.ar    1  UNL1        0.0181
     17 C           8.2768   -4.2821   21.6259 C.3     1  UNL1        0.2420
     18 S           8.0795   -5.0514   22.8984 S.O2    1  UNL1        0.0178
     19 O           7.7053   -3.7834   23.6070 O.2     1  UNL1       -0.1681
     20 O           8.4538   -6.3194   22.1897 O.2     1  UNL1       -0.1681
     21 C           7.8823   -5.8207   24.1708 C.ar    1  UNL1        0.1062
     22 C           7.1191   -5.2074   25.3073 C.ar    1  UNL1        0.0184
     23 C           6.9218   -5.9767   26.5799 C.ar    1  UNL1        0.0013
     24 C           7.4878   -7.3592   26.7160 C.ar    1  UNL1        0.0001
     25 C           8.2510   -7.9724   25.5795 C.ar    1  UNL1        0.0013
     26 C           8.4482   -7.2031   24.3069 C.ar    1  UNL1        0.0184
@<TRIPOS>BOND
     1     6     7    2
     2     7     8   am
     3     8    10    1
     4    10    11    1
     5    11    12   ar
     6    12    13   ar
     7    13    14   ar
     8    14    15   ar
     9    15    16   ar
    10     7     1    1
    11     1     2   ar
    12     2     3   ar
    13     3     4   ar
    14     4    17    1
    15    17    18    1
    16    18    19    2
    17    18    20    2
    18    18    21    1
    19    21    22   ar
    20    22    23   ar
    21    23    24   ar
    22    24    25   ar
    23    25    26   ar
    24     4     5   ar
    25    16    11   ar
    26     5     1   ar
    27    26    21   ar
    28     8     9    1
@<TRIPOS>MOLECULE
*****
 26 28 0 0 0
SMALL
GASTEIGER

@<TRIPOS>ATOM
      1 C           7.7031   -4.2963   21.8916 C.ar    1  UNL1        0.3038
      2 N           8.1941   -2.8998   21.6496 N.ar    1  UNL1       -0.1024
      3 N           7.4259   -2.3323   20.4929 N.ar    1  UNL1       -0.1094
      4 C           6.4601   -3.3781   20.0200 C.ar    1  UNL1        0.2508
      5 O           6.6314   -4.5919   20.8845 O.2     1  UNL1       -0.4143
      6 O           8.4400   -6.6765   22.6275 O.2     1  UNL1       -0.2649
      7 C           8.1969   -5.2328   22.9541 C.2     1  UNL1        0.3016
      8 N           8.4478   -4.7256   24.3434 N.am    1  UNL1       -0.2930
      9 H           8.2882   -3.7781   24.5577 H       1  UNL1        0.1502
     10 C           8.9417   -5.6621   25.4059 C.3     1  UNL1        0.1168
     11 C           8.2620   -5.7055   26.7424 C.ar    1  UNL1        0.0005
     12 C           8.9770   -6.2801   27.9292 C.ar    1  UNL1        0.0181
     13 C           8.2973   -6.3235   29.2656 C.ar    1  UNL1        0.0986
     14 N           6.9025   -5.7922   29.4153 N.ar    1  UNL1       -0.2423
     15 C           6.1875   -5.2176   28.2285 C.ar    1  UNL1        0.0986
     16 C           6.8672   -5.1742   26.8921 C.ar    1  UNL1        0.0181
     17 C           5.4929   -3.2352   18.8825 C.3     1  UNL1        0.2420
     18 S           4.3928   -2.2183   18.9568 S.O2    1  UNL1        0.0178
     19 O           4.0145   -2.7269   20.3163 O.2     1  UNL1       -0.1681
     20 O           4.7711   -1.7097   17.5973 O.2     1  UNL1       -0.1681
     21 C           3.2926   -1.2014   19.0311 C.ar    1  UNL1        0.1062
     22 C           3.3130   -0.0068   18.1242 C.ar    1  UNL1        0.0184
     23 C           2.2128    1.0102   18.1986 C.ar    1  UNL1        0.0013
     24 C           1.0922    0.8325   19.1798 C.ar    1  UNL1        0.0001
     25 C           1.0719   -0.3622   20.0867 C.ar    1  UNL1        0.0013
     26 C           2.1721   -1.3791   20.0123 C.ar    1  UNL1        0.0184
@<TRIPOS>BOND
     1     6     7    2
     2     7     8   am
     3     8    10    1
     4    10    11    1
     5    11    12   ar
     6    12    13   ar
     7    13    14   ar
     8    14    15   ar
     9    15    16   ar
    10     7     1    1
    11     1     2   ar
    12     2     3   ar
    13     3     4   ar
    14     4    17    1
    15    17    18    1
    16    18    19    2
    17    18    20    2
    18    18    21    1
    19    21    22   ar
    20    22    23   ar
    21    23    24   ar
    22    24    25   ar
    23    25    26   ar
    24     4     5   ar
    25    16    11   ar
    26     5     1   ar
    27    26    21   ar
    28     8     9    1
