@<TRIPOS>MOLECULE
*****
 23 23 0 0 0
SMALL
GASTEIGER

@<TRIPOS>ATOM
      1 C          -7.6415  -19.1638   21.3816 C.3     1  UNL1        0.0693
      2 C          -8.2996  -17.9989   22.0598 C.2     1  UNL1        0.1534
      3 O          -7.9759  -16.5992   21.6285 O.2     1  UNL1       -0.2960
      4 C          -9.2813  -18.2338   23.1694 C.3     1  UNL1        0.0937
      5 C         -10.3538  -17.2229   23.4484 C.3     1  UNL1        0.1179
      6 O          -9.9849  -15.7966   23.7310 O.3     1  UNL1       -0.3840
      7 H          -9.0205  -15.6989   23.6951 H       1  UNL1        0.2104
      8 C         -11.7951  -17.6381   23.4446 C.3     1  UNL1        0.0297
      9 C         -12.5131  -17.8435   22.1438 C.3     1  UNL1        0.0025
     10 C         -12.3021  -16.8831   21.0109 C.3     1  UNL1        0.0001
     11 C         -10.9147  -18.6114   19.6552 C.3     1  UNL1        0.0000
     12 C         -11.2894  -17.1887   19.9474 C.3     1  UNL1        0.0000
     13 C          -6.5207  -19.8925   22.0619 C.3     1  UNL1        0.0342
     14 C          -5.1019  -19.6462   21.6419 C.ar    1  UNL1       -0.0185
     15 C          -4.6249  -20.1154   20.2994 C.ar    1  UNL1       -0.0009
     16 C          -3.2062  -19.8691   19.8794 C.ar    1  UNL1        0.0397
     17 C          -2.2644  -19.1536   20.8019 C.ar    1  UNL1        0.1721
     18 C          -2.7414  -18.6844   22.1444 C.ar    1  UNL1        0.1674
     19 O          -1.7996  -17.9688   23.0670 O.3     1  UNL1       -0.5029
     20 C          -4.1601  -18.9307   22.5644 C.ar    1  UNL1        0.0355
     21 H          -0.9133  -17.8150   22.8047 H       1  UNL1        0.2923
     22 O          -0.8456  -18.9073   20.3820 O.3     1  UNL1       -0.4684
     23 C          -0.4273  -17.5443   19.9157 C.3     1  UNL1        0.2526
@<TRIPOS>BOND
     1    11    12    1
     2    12    10    1
     3    10     9    1
     4     9     8    1
     5     8     5    1
     6     5     6    1
     7     5     4    1
     8     4     2    1
     9     2     3    2
    10     2     1    1
    11     1    13    1
    12    13    14    1
    13    14    15   ar
    14    15    16   ar
    15    16    17   ar
    16    17    22    1
    17    22    23    1
    18    17    18   ar
    19    18    19    1
    20    18    20   ar
    21    20    14   ar
    22     6     7    1
    23    19    21    1
@<TRIPOS>MOLECULE
*****
 23 23 0 0 0
SMALL
GASTEIGER

@<TRIPOS>ATOM
      1 C          -7.9370  -18.8351   21.6965 C.3     1  UNL1        0.0693
      2 C          -8.8117  -19.0978   20.5065 C.2     1  UNL1        0.1534
      3 O          -8.2034  -19.2190   19.1408 O.2     1  UNL1       -0.2960
      4 C         -10.2947  -19.2392   20.6823 C.3     1  UNL1        0.0937
      5 C         -11.1790  -18.0309   20.5935 C.3     1  UNL1        0.1179
      6 O         -10.7886  -16.8785   19.7162 O.3     1  UNL1       -0.3840
      7 H          -9.9444  -17.0752   19.2807 H       1  UNL1        0.2104
      8 C         -12.4537  -17.9749   21.3821 C.3     1  UNL1        0.0297
      9 C         -12.4382  -17.4824   22.7989 C.3     1  UNL1        0.0025
     10 C         -12.0974  -18.4234   23.9163 C.3     1  UNL1        0.0001
     11 C         -10.1195  -19.9338   24.6624 C.3     1  UNL1        0.0000
     12 C         -10.6733  -18.5723   24.3633 C.3     1  UNL1        0.0000
     13 C          -6.9045  -19.8433   22.1055 C.3     1  UNL1        0.0342
     14 C          -5.4754  -19.6659   21.6856 C.ar    1  UNL1       -0.0185
     15 C          -4.9939  -20.2588   20.3946 C.ar    1  UNL1       -0.0009
     16 C          -3.5649  -20.0814   19.9747 C.ar    1  UNL1        0.0397
     17 C          -2.6173  -19.3111   20.8458 C.ar    1  UNL1        0.1721
     18 C          -3.0988  -18.7183   22.1368 C.ar    1  UNL1        0.1674
     19 O          -2.1512  -17.9480   23.0079 O.3     1  UNL1       -0.5029
     20 C          -4.5279  -18.8957   22.5566 C.ar    1  UNL1        0.0355
     21 H          -1.2585  -17.8372   22.7456 H       1  UNL1        0.2923
     22 O          -1.1882  -19.1338   20.4259 O.3     1  UNL1       -0.4684
     23 C          -0.7725  -17.8986   19.6832 C.3     1  UNL1        0.2526
@<TRIPOS>BOND
     1    11    12    1
     2    12    10    1
     3    10     9    1
     4     9     8    1
     5     8     5    1
     6     5     6    1
     7     5     4    1
     8     4     2    1
     9     2     3    2
    10     2     1    1
    11     1    13    1
    12    13    14    1
    13    14    15   ar
    14    15    16   ar
    15    16    17   ar
    16    17    22    1
    17    22    23    1
    18    17    18   ar
    19    18    19    1
    20    18    20   ar
    21    20    14   ar
    22     6     7    1
    23    19    21    1
@<TRIPOS>MOLECULE
*****
 23 23 0 0 0
SMALL
GASTEIGER

@<TRIPOS>ATOM
      1 C          -7.8628  -18.9796   21.6022 C.3     1  UNL1        0.0693
      2 C          -8.2250  -17.6599   22.2163 C.2     1  UNL1        0.1534
      3 O          -7.8005  -16.3828   21.5539 O.2     1  UNL1       -0.2960
      4 C          -9.0118  -17.6172   23.4927 C.3     1  UNL1        0.0937
      5 C          -8.8252  -16.4784   24.4510 C.3     1  UNL1        0.1179
      6 O          -8.7460  -15.0713   23.9373 O.3     1  UNL1       -0.3840
      7 H          -8.8324  -15.0744   22.9712 H       1  UNL1        0.2104
      8 C          -8.7179  -16.7467   25.9229 C.3     1  UNL1        0.0297
      9 C          -8.1062  -15.7202   26.8297 C.3     1  UNL1        0.0025
     10 C          -6.6321  -15.7470   27.1063 C.3     1  UNL1        0.0001
     11 C          -5.2780  -15.8012   24.8897 C.3     1  UNL1        0.0000
     12 C          -5.6777  -15.0942   26.1507 C.3     1  UNL1        0.0000
     13 C          -6.7666  -19.8099   22.2012 C.3     1  UNL1        0.0342
     14 C          -5.3493  -19.6206   21.7478 C.ar    1  UNL1       -0.0185
     15 C          -4.9029  -20.1782   20.4289 C.ar    1  UNL1       -0.0009
     16 C          -3.4857  -19.9889   19.9755 C.ar    1  UNL1        0.0397
     17 C          -2.5148  -19.2419   20.8411 C.ar    1  UNL1        0.1721
     18 C          -2.9611  -18.6843   22.1601 C.ar    1  UNL1        0.1674
     19 O          -1.9902  -17.9373   23.0258 O.3     1  UNL1       -0.5029
     20 C          -4.3784  -18.8736   22.6135 C.ar    1  UNL1        0.0355
     21 H          -1.1049  -17.8190   22.7426 H       1  UNL1        0.2923
     22 O          -1.0975  -19.0526   20.3878 O.3     1  UNL1       -0.4684
     23 C          -0.6886  -17.7740   19.7185 C.3     1  UNL1        0.2526
@<TRIPOS>BOND
     1    11    12    1
     2    12    10    1
     3    10     9    1
     4     9     8    1
     5     8     5    1
     6     5     6    1
     7     5     4    1
     8     4     2    1
     9     2     3    2
    10     2     1    1
    11     1    13    1
    12    13    14    1
    13    14    15   ar
    14    15    16   ar
    15    16    17   ar
    16    17    22    1
    17    22    23    1
    18    17    18   ar
    19    18    19    1
    20    18    20   ar
    21    20    14   ar
    22     6     7    1
    23    19    21    1
@<TRIPOS>MOLECULE
*****
 23 23 0 0 0
SMALL
GASTEIGER

@<TRIPOS>ATOM
      1 C          -7.6548  -19.0993   22.3427 C.3     1  UNL1        0.0693
      2 C          -9.0952  -19.3047   21.9779 C.2     1  UNL1        0.1534
      3 O          -9.6383  -18.7186   20.7085 O.2     1  UNL1       -0.2960
      4 C          -9.9925  -20.0962   22.8826 C.3     1  UNL1        0.0937
      5 C         -10.4788  -19.4964   24.1686 C.3     1  UNL1        0.1179
      6 O         -10.1909  -20.1812   25.4717 O.3     1  UNL1       -0.3840
      7 H          -9.6852  -20.9922   25.3060 H       1  UNL1        0.2104
      8 C         -11.2529  -18.2117   24.1514 C.3     1  UNL1        0.0297
      9 C         -12.5968  -18.1547   23.4875 C.3     1  UNL1        0.0025
     10 C         -12.7078  -17.7256   22.0544 C.3     1  UNL1        0.0001
     11 C         -11.9530  -16.1139   20.1617 C.3     1  UNL1        0.0000
     12 C         -12.1420  -16.4058   21.6208 C.3     1  UNL1        0.0000
     13 C          -6.6589  -20.1970   22.1124 C.3     1  UNL1        0.0342
     14 C          -5.2640  -19.8641   21.6725 C.ar    1  UNL1       -0.0185
     15 C          -4.7774  -20.3057   20.3242 C.ar    1  UNL1       -0.0009
     16 C          -3.3825  -19.9728   19.8843 C.ar    1  UNL1        0.0397
     17 C          -2.4743  -19.1983   20.7927 C.ar    1  UNL1        0.1721
     18 C          -2.9610  -18.7567   22.1411 C.ar    1  UNL1        0.1674
     19 O          -2.0528  -17.9822   23.0496 O.3     1  UNL1       -0.5029
     20 C          -4.3559  -19.0896   22.5810 C.ar    1  UNL1        0.0355
     21 H          -1.1815  -17.7742   22.7748 H       1  UNL1        0.2923
     22 O          -1.0794  -18.8654   20.3528 O.3     1  UNL1       -0.4684
     23 C          -0.7653  -17.4958   19.8280 C.3     1  UNL1        0.2526
@<TRIPOS>BOND
     1    11    12    1
     2    12    10    1
     3    10     9    1
     4     9     8    1
     5     8     5    1
     6     5     6    1
     7     5     4    1
     8     4     2    1
     9     2     3    2
    10     2     1    1
    11     1    13    1
    12    13    14    1
    13    14    15   ar
    14    15    16   ar
    15    16    17   ar
    16    17    22    1
    17    22    23    1
    18    17    18   ar
    19    18    19    1
    20    18    20   ar
    21    20    14   ar
    22     6     7    1
    23    19    21    1
@<TRIPOS>MOLECULE
*****
 23 23 0 0 0
SMALL
GASTEIGER

@<TRIPOS>ATOM
      1 C          -7.3926  -17.8820   22.9529 C.3     1  UNL1        0.0693
      2 C          -7.8064  -16.4827   22.6058 C.2     1  UNL1        0.1534
      3 O          -8.7120  -16.2367   21.4356 O.2     1  UNL1       -0.2960
      4 C          -7.3146  -15.3291   23.4290 C.3     1  UNL1        0.0937
      5 C          -5.8578  -15.2173   23.7686 C.3     1  UNL1        0.1179
      6 O          -4.9120  -14.5601   22.8075 O.3     1  UNL1       -0.3840
      7 H          -5.4008  -14.2659   22.0231 H       1  UNL1        0.2104
      8 C          -5.3469  -15.7627   25.0691 C.3     1  UNL1        0.0297
      9 C          -5.6839  -15.0708   26.3567 C.3     1  UNL1        0.0025
     10 C          -6.6538  -15.6981   27.3137 C.3     1  UNL1        0.0001
     11 C          -8.8273  -17.0727   26.9445 C.3     1  UNL1        0.0000
     12 C          -8.1136  -15.7537   26.9732 C.3     1  UNL1        0.0000
     13 C          -6.9375  -18.8191   21.8736 C.3     1  UNL1        0.0342
     14 C          -5.4802  -18.9190   21.5325 C.ar    1  UNL1       -0.0185
     15 C          -5.0526  -19.5769   20.2541 C.ar    1  UNL1       -0.0009
     16 C          -3.5953  -19.6768   19.9130 C.ar    1  UNL1        0.0397
     17 C          -2.5657  -19.1189   20.8503 C.ar    1  UNL1        0.1721
     18 C          -2.9933  -18.4611   22.1286 C.ar    1  UNL1        0.1674
     19 O          -1.9637  -17.9032   23.0660 O.3     1  UNL1       -0.5029
     20 C          -4.4506  -18.3611   22.4698 C.ar    1  UNL1        0.0355
     21 H          -1.0533  -17.9656   22.8529 H       1  UNL1        0.2923
     22 O          -1.1084  -19.2189   20.5092 O.3     1  UNL1       -0.4684
     23 C          -0.4278  -18.0929   19.7890 C.3     1  UNL1        0.2526
@<TRIPOS>BOND
     1    11    12    1
     2    12    10    1
     3    10     9    1
     4     9     8    1
     5     8     5    1
     6     5     6    1
     7     5     4    1
     8     4     2    1
     9     2     3    2
    10     2     1    1
    11     1    13    1
    12    13    14    1
    13    14    15   ar
    14    15    16   ar
    15    16    17   ar
    16    17    22    1
    17    22    23    1
    18    17    18   ar
    19    18    19    1
    20    18    20   ar
    21    20    14   ar
    22     6     7    1
    23    19    21    1
@<TRIPOS>MOLECULE
*****
 23 23 0 0 0
SMALL
GASTEIGER

@<TRIPOS>ATOM
      1 C          -7.0318  -19.9377   21.9947 C.3     1  UNL1        0.0693
      2 C          -7.6333  -18.6127   21.6306 C.2     1  UNL1        0.1534
      3 O          -8.2962  -18.4310   20.2974 O.2     1  UNL1       -0.2960
      4 C          -7.5720  -17.4694   22.5998 C.3     1  UNL1        0.0937
      5 C          -8.7199  -16.5092   22.7005 C.3     1  UNL1        0.1179
      6 O          -8.9925  -15.5462   21.5831 O.3     1  UNL1       -0.3840
      7 H          -8.3390  -15.6758   20.8780 H       1  UNL1        0.2104
      8 C          -9.5952  -16.5118   23.9185 C.3     1  UNL1        0.0297
      9 C          -9.7164  -17.7528   24.7524 C.3     1  UNL1        0.0025
     10 C         -10.7861  -18.7594   24.4479 C.3     1  UNL1        0.0001
     11 C         -10.9727  -20.1129   22.2381 C.3     1  UNL1        0.0000
     12 C         -10.4587  -19.9808   23.6411 C.3     1  UNL1        0.0000
     13 C          -5.8521  -20.4612   21.2303 C.3     1  UNL1        0.0342
     14 C          -4.6486  -19.5910   21.0199 C.ar    1  UNL1       -0.0185
     15 C          -4.2627  -19.1669   19.6339 C.ar    1  UNL1       -0.0009
     16 C          -3.0592  -18.2968   19.4235 C.ar    1  UNL1        0.0397
     17 C          -2.2415  -17.8507   20.5992 C.ar    1  UNL1        0.1721
     18 C          -2.6273  -18.2747   21.9852 C.ar    1  UNL1        0.1674
     19 O          -1.8096  -17.8287   23.1610 O.3     1  UNL1       -0.5029
     20 C          -3.8308  -19.1449   22.1956 C.ar    1  UNL1        0.0355
     21 H          -1.0577  -17.2851   23.0296 H       1  UNL1        0.2923
     22 O          -1.0379  -16.9805   20.3888 O.3     1  UNL1       -0.4684
     23 C           0.2729  -17.5954   19.9969 C.3     1  UNL1        0.2526
@<TRIPOS>BOND
     1    11    12    1
     2    12    10    1
     3    10     9    1
     4     9     8    1
     5     8     5    1
     6     5     6    1
     7     5     4    1
     8     4     2    1
     9     2     3    2
    10     2     1    1
    11     1    13    1
    12    13    14    1
    13    14    15   ar
    14    15    16   ar
    15    16    17   ar
    16    17    22    1
    17    22    23    1
    18    17    18   ar
    19    18    19    1
    20    18    20   ar
    21    20    14   ar
    22     6     7    1
    23    19    21    1
@<TRIPOS>MOLECULE
*****
 23 23 0 0 0
SMALL
GASTEIGER

@<TRIPOS>ATOM
      1 C          -7.9421  -19.4702   21.2182 C.3     1  UNL1        0.0693
      2 C          -9.3282  -18.9714   21.5010 C.2     1  UNL1        0.1534
      3 O          -9.8637  -17.7831   20.7587 O.2     1  UNL1       -0.2960
      4 C         -10.1788  -19.6610   22.5262 C.3     1  UNL1        0.0937
      5 C         -10.3497  -19.0566   23.8884 C.3     1  UNL1        0.1179
      6 O         -10.6245  -19.9378   25.0708 O.3     1  UNL1       -0.3840
      7 H         -10.6601  -20.8634   24.7829 H       1  UNL1        0.2104
      8 C         -10.2457  -17.5711   24.0682 C.3     1  UNL1        0.0297
      9 C          -8.9623  -16.9618   24.5495 C.3     1  UNL1        0.0025
     10 C          -8.2398  -15.9625   23.6955 C.3     1  UNL1        0.0001
     11 C          -6.0491  -15.3739   24.9620 C.3     1  UNL1        0.0000
     12 C          -6.7423  -15.8862   23.7344 C.3     1  UNL1        0.0000
     13 C          -6.8503  -19.2626   22.2255 C.3     1  UNL1        0.0342
     14 C          -5.4169  -19.2396   21.7840 C.ar    1  UNL1       -0.0185
     15 C          -5.0200  -19.8880   20.4909 C.ar    1  UNL1       -0.0009
     16 C          -3.5866  -19.8650   20.0494 C.ar    1  UNL1        0.0397
     17 C          -2.5502  -19.1936   20.9009 C.ar    1  UNL1        0.1721
     18 C          -2.9472  -18.5452   22.1939 C.ar    1  UNL1        0.1674
     19 O          -1.9108  -17.8737   23.0454 O.3     1  UNL1       -0.5029
     20 C          -4.3805  -18.5682   22.6354 C.ar    1  UNL1        0.0355
     21 H          -1.0154  -17.8593   22.7696 H       1  UNL1        0.2923
     22 O          -1.1169  -19.1705   20.4593 O.3     1  UNL1       -0.4684
     23 C          -0.5647  -17.9599   19.7669 C.3     1  UNL1        0.2526
@<TRIPOS>BOND
     1    11    12    1
     2    12    10    1
     3    10     9    1
     4     9     8    1
     5     8     5    1
     6     5     6    1
     7     5     4    1
     8     4     2    1
     9     2     3    2
    10     2     1    1
    11     1    13    1
    12    13    14    1
    13    14    15   ar
    14    15    16   ar
    15    16    17   ar
    16    17    22    1
    17    22    23    1
    18    17    18   ar
    19    18    19    1
    20    18    20   ar
    21    20    14   ar
    22     6     7    1
    23    19    21    1
@<TRIPOS>MOLECULE
*****
 23 23 0 0 0
SMALL
GASTEIGER

@<TRIPOS>ATOM
      1 C          -8.6914  -19.1259   21.2383 C.3     1  UNL1        0.0693
      2 C          -9.3876  -19.7374   22.4178 C.2     1  UNL1        0.1534
      3 O          -8.5968  -20.4814   23.4527 O.2     1  UNL1       -0.2960
      4 C         -10.8748  -19.6049   22.5624 C.3     1  UNL1        0.0937
      5 C         -11.4671  -19.2003   23.8798 C.3     1  UNL1        0.1179
      6 O         -10.9442  -19.7979   25.1524 O.3     1  UNL1       -0.3840
      7 H         -10.2305  -20.4219   24.9473 H       1  UNL1        0.2104
      8 C         -12.5822  -18.1981   23.9246 C.3     1  UNL1        0.0297
      9 C         -12.9219  -17.3989   22.7015 C.3     1  UNL1        0.0025
     10 C         -12.1984  -16.1155   22.4193 C.3     1  UNL1        0.0001
     11 C         -11.4029  -16.5266   19.9805 C.3     1  UNL1        0.0000
     12 C         -11.1152  -16.0775   21.3824 C.3     1  UNL1        0.0000
     13 C          -7.5063  -19.8134   20.6276 C.3     1  UNL1        0.0342
     14 C          -6.1206  -19.3159   20.9144 C.ar    1  UNL1       -0.0185
     15 C          -5.7667  -18.8333   22.2898 C.ar    1  UNL1       -0.0009
     16 C          -4.3810  -18.3358   22.5766 C.ar    1  UNL1        0.0397
     17 C          -3.3492  -18.3208   21.4880 C.ar    1  UNL1        0.1721
     18 C          -3.7031  -18.8034   20.1126 C.ar    1  UNL1        0.1674
     19 O          -2.6713  -18.7885   19.0239 O.3     1  UNL1       -0.5029
     20 C          -5.0888  -19.3009   19.8258 C.ar    1  UNL1        0.0355
     21 H          -1.8056  -18.4777   19.2031 H       1  UNL1        0.2923
     22 O          -1.9635  -17.8233   21.7748 O.3     1  UNL1       -0.4684
     23 C          -1.5975  -16.4023   21.4641 C.3     1  UNL1        0.2526
@<TRIPOS>BOND
     1    11    12    1
     2    12    10    1
     3    10     9    1
     4     9     8    1
     5     8     5    1
     6     5     6    1
     7     5     4    1
     8     4     2    1
     9     2     3    2
    10     2     1    1
    11     1    13    1
    12    13    14    1
    13    14    15   ar
    14    15    16   ar
    15    16    17   ar
    16    17    22    1
    17    22    23    1
    18    17    18   ar
    19    18    19    1
    20    18    20   ar
    21    20    14   ar
    22     6     7    1
    23    19    21    1
@<TRIPOS>MOLECULE
*****
 23 23 0 0 0
SMALL
GASTEIGER

@<TRIPOS>ATOM
      1 C          -7.8682  -15.4637   25.1916 C.3     1  UNL1        0.0693
      2 C          -6.6513  -15.4220   26.0676 C.2     1  UNL1        0.1534
      3 O          -6.8007  -15.2644   27.5518 O.2     1  UNL1       -0.2960
      4 C          -5.2850  -15.5381   25.4594 C.3     1  UNL1        0.0937
      5 C          -5.1378  -15.7760   23.9857 C.3     1  UNL1        0.1179
      6 O          -5.1497  -14.6166   23.0340 O.3     1  UNL1       -0.3840
      7 H          -5.2600  -13.7911   23.5313 H       1  UNL1        0.2104
      8 C          -4.9788  -17.1732   23.4638 C.3     1  UNL1        0.0297
      9 C          -3.6424  -17.8511   23.5302 C.3     1  UNL1        0.0025
     10 C          -2.8069  -17.9848   22.2915 C.3     1  UNL1        0.0001
     11 C          -3.4468  -19.9568   20.7257 C.3     1  UNL1        0.0000
     12 C          -2.5140  -19.3436   21.7276 C.3     1  UNL1        0.0000
     13 C          -8.8601  -16.5793   25.3381 C.3     1  UNL1        0.0342
     14 C          -9.3937  -17.2733   24.1201 C.ar    1  UNL1       -0.0185
     15 C          -9.6978  -18.7414   24.1662 C.ar    1  UNL1       -0.0009
     16 C         -10.2314  -19.4354   22.9481 C.ar    1  UNL1        0.0397
     17 C         -10.4610  -18.6613   21.6840 C.ar    1  UNL1        0.1721
     18 C         -10.1569  -17.1932   21.6379 C.ar    1  UNL1        0.1674
     19 O         -10.3864  -16.4190   20.3738 O.3     1  UNL1       -0.5029
     20 C          -9.6232  -16.4992   22.8560 C.ar    1  UNL1        0.0355
     21 H         -10.7197  -16.8525   19.6129 H       1  UNL1        0.2923
     22 O         -10.9946  -19.3553   20.4660 O.3     1  UNL1       -0.4684
     23 C         -10.0672  -19.7243   19.3463 C.3     1  UNL1        0.2526
@<TRIPOS>BOND
     1    11    12    1
     2    12    10    1
     3    10     9    1
     4     9     8    1
     5     8     5    1
     6     5     6    1
     7     5     4    1
     8     4     2    1
     9     2     3    2
    10     2     1    1
    11     1    13    1
    12    13    14    1
    13    14    15   ar
    14    15    16   ar
    15    16    17   ar
    16    17    22    1
    17    22    23    1
    18    17    18   ar
    19    18    19    1
    20    18    20   ar
    21    20    14   ar
    22     6     7    1
    23    19    21    1
