@<TRIPOS>MOLECULE
*****
 30 33 0 0 0
SMALL
GASTEIGER

@<TRIPOS>ATOM
      1 C           2.7737    3.5701   23.0413 C.3     1  UNL1        0.0281
      2 C           2.9333    2.0785   23.0422 C.3     1  UNL1        0.1170
      3 C           3.3409    1.3670   21.7862 C.ar    1  UNL1        0.0907
      4 N           3.6516    1.8656   20.4061 N.ar    1  UNL1       -0.2267
      5 C           4.0032    0.6822   19.5541 C.ar    1  UNL1        0.1822
      6 N           3.9098   -0.5477   20.4077 N.ar    1  UNL1       -0.2918
      7 C           3.5005   -0.1245   21.7872 C.ar    1  UNL1        0.0596
      8 C           3.2524   -0.9044   23.0443 C.3     1  UNL1        0.0669
      9 C           2.8448   -0.1929   24.3003 C.3     1  UNL1        0.1003
     10 N           2.6852    1.2985   24.2993 N.am    1  UNL1       -0.2720
     11 C           2.2775    2.0100   25.5554 C.2     1  UNL1        0.2501
     12 O           2.1180    3.5015   25.5544 O.2     1  UNL1       -0.2699
     13 C           4.1786   -1.9540   19.9602 C.ar    1  UNL1        0.0653
     14 C           3.0510   -2.8138   19.4712 C.ar    1  UNL1        0.0199
     15 C           3.3197   -4.2202   19.0237 C.ar    1  UNL1        0.0311
     16 C           4.7160   -4.7665   19.0653 C.ar    1  UNL1        0.1402
     17 F           4.9847   -6.1728   18.6178 F       1  UNL1       -0.2042
     18 C           5.8436   -3.9066   19.5544 C.ar    1  UNL1        0.0311
     19 C           5.5749   -2.5004   20.0018 C.ar    1  UNL1        0.0199
     20 C           2.0295    1.2301   26.8124 C.ar    1  UNL1        0.0641
     21 C           3.1807    0.6217   27.5570 C.ar    1  UNL1        0.0054
     22 C           2.9326   -0.1583   28.8141 C.ar    1  UNL1        0.0001
     23 C           1.5334   -0.3299   29.3264 C.ar    1  UNL1        0.0047
     24 C           0.3821    0.2785   28.5817 C.ar    1  UNL1        0.0821
     25 C           0.6301    1.0585   27.3247 C.ar    1  UNL1        0.0659
     26 CL         -0.5211    1.6669   26.5801 Cl      1  UNL1       -0.0822
     27 C          -1.0172    0.1070   29.0941 C.3     1  UNL1        0.4194
     28 F          -2.4165   -0.0646   29.6065 F       1  UNL1       -0.1658
     29 F          -1.2406   -1.0046   28.1119 F       1  UNL1       -0.1658
     30 F          -0.7939    1.2185   30.0763 F       1  UNL1       -0.1658
@<TRIPOS>BOND
     1     2     1    1
     2     2     3    1
     3     3     4   ar
     4     4     5   ar
     5     5     6   ar
     6     6    13    1
     7    13    14   ar
     8    14    15   ar
     9    15    16   ar
    10    16    17    1
    11    16    18   ar
    12    18    19   ar
    13     6     7   ar
    14     7     8    1
    15     8     9    1
    16     9    10    1
    17    10    11   am
    18    11    12    2
    19    11    20    1
    20    20    21   ar
    21    21    22   ar
    22    22    23   ar
    23    23    24   ar
    24    24    27    1
    25    27    28    1
    26    27    29    1
    27    27    30    1
    28    24    25   ar
    29    25    26    1
    30    10     2    1
    31    25    20   ar
    32     7     3   ar
    33    19    13   ar
@<TRIPOS>MOLECULE
*****
 30 33 0 0 0
SMALL
GASTEIGER

@<TRIPOS>ATOM
      1 C           4.5033    3.6681   18.1680 C.3     1  UNL1        0.0281
      2 C           3.1611    3.0699   18.4691 C.3     1  UNL1        0.1170
      3 C           1.9101    3.8191   18.1171 C.ar    1  UNL1        0.0907
      4 N           1.6881    5.1551   17.4723 N.ar    1  UNL1       -0.2267
      5 C           0.2087    5.3826   17.3749 C.ar    1  UNL1        0.1822
      6 N          -0.4837    4.1872   17.9594 N.ar    1  UNL1       -0.2918
      7 C           0.5679    3.2209   18.4182 C.ar    1  UNL1        0.0596
      8 C           0.4766    1.8735   19.0711 C.3     1  UNL1        0.0669
      9 C           1.7276    1.1244   19.4231 C.3     1  UNL1        0.1003
     10 N           3.0697    1.7226   19.1220 N.am    1  UNL1       -0.2720
     11 C           4.3208    0.9734   19.4740 C.2     1  UNL1        0.2501
     12 O           5.6630    1.5716   19.1729 O.2     1  UNL1       -0.2699
     13 C          -1.9671    3.9923   18.0664 C.ar    1  UNL1        0.0653
     14 C          -2.8024    3.8962   16.8243 C.ar    1  UNL1        0.0199
     15 C          -4.2859    3.7013   16.9312 C.ar    1  UNL1        0.0311
     16 C          -4.9340    3.6027   18.2803 C.ar    1  UNL1        0.1402
     17 F          -6.4174    3.4078   18.3873 F       1  UNL1       -0.2042
     18 C          -4.0986    3.6988   19.5225 C.ar    1  UNL1        0.0311
     19 C          -2.6153    3.8937   19.4156 C.ar    1  UNL1        0.0199
     20 C           4.2295   -0.3740   20.1269 C.ar    1  UNL1        0.0641
     21 C           3.9720   -0.4771   21.6011 C.ar    1  UNL1        0.0054
     22 C           3.8808   -1.8245   22.2540 C.ar    1  UNL1        0.0001
     23 C           4.0471   -3.0686   21.4329 C.ar    1  UNL1        0.0047
     24 C           4.3046   -2.9655   19.9586 C.ar    1  UNL1        0.0821
     25 C           4.3958   -1.6181   19.3057 C.ar    1  UNL1        0.0659
     26 CL          4.6533   -1.5150   17.8316 Cl      1  UNL1       -0.0822
     27 C           4.4708   -4.2097   19.1375 C.3     1  UNL1        0.4194
     28 F           4.6371   -5.4539   18.3163 F       1  UNL1       -0.1658
     29 F           2.9984   -4.2175   18.8513 F       1  UNL1       -0.1658
     30 F           5.9433   -4.2018   19.4237 F       1  UNL1       -0.1658
@<TRIPOS>BOND
     1     2     1    1
     2     2     3    1
     3     3     4   ar
     4     4     5   ar
     5     5     6   ar
     6     6    13    1
     7    13    14   ar
     8    14    15   ar
     9    15    16   ar
    10    16    17    1
    11    16    18   ar
    12    18    19   ar
    13     6     7   ar
    14     7     8    1
    15     8     9    1
    16     9    10    1
    17    10    11   am
    18    11    12    2
    19    11    20    1
    20    20    21   ar
    21    21    22   ar
    22    22    23   ar
    23    23    24   ar
    24    24    27    1
    25    27    28    1
    26    27    29    1
    27    27    30    1
    28    24    25   ar
    29    25    26    1
    30    10     2    1
    31    25    20   ar
    32     7     3   ar
    33    19    13   ar
@<TRIPOS>MOLECULE
*****
 30 33 0 0 0
SMALL
GASTEIGER

@<TRIPOS>ATOM
      1 C           8.6144   -6.8135   22.9339 C.3     1  UNL1        0.0281
      2 C           8.0490   -5.8367   23.9220 C.3     1  UNL1        0.1170
      3 C           8.1060   -6.1373   25.3905 C.ar    1  UNL1        0.0907
      4 N           8.6539   -7.3057   26.1552 N.ar    1  UNL1       -0.2267
      5 C           8.4270   -7.0509   27.6159 C.ar    1  UNL1        0.1822
      6 N           7.7390   -5.7252   27.7540 N.ar    1  UNL1       -0.2918
      7 C           7.5406   -5.1606   26.3785 C.ar    1  UNL1        0.0596
      8 C           6.9182   -3.8832   25.8981 C.3     1  UNL1        0.0669
      9 C           6.8611   -3.5826   24.4297 C.3     1  UNL1        0.1003
     10 N           7.4265   -4.5593   23.4417 N.am    1  UNL1       -0.2720
     11 C           7.3695   -4.2586   21.9731 C.2     1  UNL1        0.2501
     12 O           7.9349   -5.2354   20.9851 O.2     1  UNL1       -0.2699
     13 C           7.3225   -5.0778   29.0414 C.ar    1  UNL1        0.0653
     14 C           7.2886   -5.8807   30.3079 C.ar    1  UNL1        0.0199
     15 C           6.8721   -5.2333   31.5954 C.ar    1  UNL1        0.0311
     16 C           6.4895   -3.7831   31.6162 C.ar    1  UNL1        0.1402
     17 F           6.0730   -3.1357   32.9036 F       1  UNL1       -0.2042
     18 C           6.5234   -2.9803   30.3496 C.ar    1  UNL1        0.0311
     19 C           6.9399   -3.6276   29.0622 C.ar    1  UNL1        0.0199
     20 C           6.7470   -2.9812   21.4927 C.ar    1  UNL1        0.0641
     21 C           7.5946   -1.7579   21.3058 C.ar    1  UNL1        0.0054
     22 C           6.9720   -0.4804   20.8254 C.ar    1  UNL1        0.0001
     23 C           5.5021   -0.4265   20.5319 C.ar    1  UNL1        0.0047
     24 C           4.6545   -1.6500   20.7188 C.ar    1  UNL1        0.0821
     25 C           5.2770   -2.9273   21.1992 C.ar    1  UNL1        0.0659
     26 CL          4.4294   -4.1507   21.3861 Cl      1  UNL1       -0.0822
     27 C           3.1845   -1.5960   20.4252 C.3     1  UNL1        0.4194
     28 F           1.7145   -1.5420   20.1317 F       1  UNL1       -0.1658
     29 F           3.4576   -1.9483   18.9930 F       1  UNL1       -0.1658
     30 F           2.9114   -1.2436   21.8574 F       1  UNL1       -0.1658
@<TRIPOS>BOND
     1     2     1    1
     2     2     3    1
     3     3     4   ar
     4     4     5   ar
     5     5     6   ar
     6     6    13    1
     7    13    14   ar
     8    14    15   ar
     9    15    16   ar
    10    16    17    1
    11    16    18   ar
    12    18    19   ar
    13     6     7   ar
    14     7     8    1
    15     8     9    1
    16     9    10    1
    17    10    11   am
    18    11    12    2
    19    11    20    1
    20    20    21   ar
    21    21    22   ar
    22    22    23   ar
    23    23    24   ar
    24    24    27    1
    25    27    28    1
    26    27    29    1
    27    27    30    1
    28    24    25   ar
    29    25    26    1
    30    10     2    1
    31    25    20   ar
    32     7     3   ar
    33    19    13   ar
@<TRIPOS>MOLECULE
*****
 30 33 0 0 0
SMALL
GASTEIGER

@<TRIPOS>ATOM
      1 C           2.7428    5.4715   18.2323 C.3     1  UNL1        0.0281
      2 C           2.3258    4.0316   18.2863 C.3     1  UNL1        0.1170
      3 C           3.3602    2.9564   18.4407 C.ar    1  UNL1        0.0907
      4 N           4.8542    3.0113   18.5639 N.ar    1  UNL1       -0.2267
      5 C           5.3604    1.6053   18.6941 C.ar    1  UNL1        0.1822
      6 N           4.1794    0.6815   18.6513 N.ar    1  UNL1       -0.2918
      7 C           2.9432    1.5166   18.4947 C.ar    1  UNL1        0.0596
      8 C           1.4917    1.1519   18.3943 C.3     1  UNL1        0.0669
      9 C           0.4572    2.2271   18.2399 C.3     1  UNL1        0.1003
     10 N           0.8742    3.6669   18.1859 N.am    1  UNL1       -0.2720
     11 C          -0.1603    4.7421   18.0314 C.2     1  UNL1        0.2501
     12 O           0.2568    6.1820   17.9774 O.2     1  UNL1       -0.2699
     13 C           4.2263   -0.8146   18.7482 C.ar    1  UNL1        0.0653
     14 C           3.1886   -1.5474   19.5457 C.ar    1  UNL1        0.0199
     15 C           3.2354   -3.0436   19.6425 C.ar    1  UNL1        0.0311
     16 C           4.3200   -3.8069   18.9419 C.ar    1  UNL1        0.1402
     17 F           4.3670   -5.3030   19.0387 F       1  UNL1       -0.2042
     18 C           5.3578   -3.0740   18.1444 C.ar    1  UNL1        0.0311
     19 C           5.3110   -1.5779   18.0475 C.ar    1  UNL1        0.0199
     20 C          -1.6118    4.3775   17.9310 C.ar    1  UNL1        0.0641
     21 C          -2.1886    3.9513   16.6136 C.ar    1  UNL1        0.0054
     22 C          -3.6402    3.5866   16.5132 C.ar    1  UNL1        0.0001
     23 C          -4.5149    3.6481   17.7302 C.ar    1  UNL1        0.0047
     24 C          -3.9380    4.0744   19.0477 C.ar    1  UNL1        0.0821
     25 C          -2.4865    4.4390   19.1481 C.ar    1  UNL1        0.0659
     26 CL         -1.9097    4.8652   20.4655 Cl      1  UNL1       -0.0822
     27 C          -4.8127    4.1359   20.2647 C.3     1  UNL1        0.4194
     28 F          -5.6874    4.1974   21.4817 F       1  UNL1       -0.1658
     29 F          -4.4450    2.7209   20.6005 F       1  UNL1       -0.1658
     30 F          -5.1804    5.5508   19.9289 F       1  UNL1       -0.1658
@<TRIPOS>BOND
     1     2     1    1
     2     2     3    1
     3     3     4   ar
     4     4     5   ar
     5     5     6   ar
     6     6    13    1
     7    13    14   ar
     8    14    15   ar
     9    15    16   ar
    10    16    17    1
    11    16    18   ar
    12    18    19   ar
    13     6     7   ar
    14     7     8    1
    15     8     9    1
    16     9    10    1
    17    10    11   am
    18    11    12    2
    19    11    20    1
    20    20    21   ar
    21    21    22   ar
    22    22    23   ar
    23    23    24   ar
    24    24    27    1
    25    27    28    1
    26    27    29    1
    27    27    30    1
    28    24    25   ar
    29    25    26    1
    30    10     2    1
    31    25    20   ar
    32     7     3   ar
    33    19    13   ar
@<TRIPOS>MOLECULE
*****
 30 33 0 0 0
SMALL
GASTEIGER

@<TRIPOS>ATOM
      1 C           2.8700    3.2467   18.2939 C.3     1  UNL1        0.0281
      2 C           1.9817    2.7025   19.3732 C.3     1  UNL1        0.1170
      3 C           0.7660    3.4695   19.8018 C.ar    1  UNL1        0.0907
      4 N           0.1930    4.7788   19.3463 N.ar    1  UNL1       -0.2267
      5 C          -1.0492    5.0437   20.1441 C.ar    1  UNL1        0.1822
      6 N          -1.2441    3.8982   21.0927 N.ar    1  UNL1       -0.2918
      7 C          -0.1222    2.9252   20.8811 C.ar    1  UNL1        0.0596
      8 C           0.2053    1.6140   21.5319 C.3     1  UNL1        0.0669
      9 C           1.4211    0.8471   21.1033 C.3     1  UNL1        0.1003
     10 N           2.3092    1.3912   20.0240 N.am    1  UNL1       -0.2720
     11 C           3.5250    0.6242   19.5954 C.2     1  UNL1        0.2501
     12 O           4.4132    1.1685   18.5160 O.2     1  UNL1       -0.2699
     13 C          -2.3642    3.7514   22.0796 C.ar    1  UNL1        0.0653
     14 C          -2.0877    3.8619   23.5497 C.ar    1  UNL1        0.0199
     15 C          -3.2078    3.7152   24.5366 C.ar    1  UNL1        0.0311
     16 C          -4.6042    3.4579   24.0534 C.ar    1  UNL1        0.1402
     17 F          -5.7243    3.3111   25.0402 F       1  UNL1       -0.2042
     18 C          -4.8807    3.3474   22.5831 C.ar    1  UNL1        0.0311
     19 C          -3.7607    3.4941   21.5963 C.ar    1  UNL1        0.0199
     20 C           3.8526   -0.6870   20.2461 C.ar    1  UNL1        0.0641
     21 C           3.9992   -0.7686   21.7367 C.ar    1  UNL1        0.0054
     22 C           4.3268   -2.0799   22.3873 C.ar    1  UNL1        0.0001
     23 C           4.5077   -3.3094   21.5475 C.ar    1  UNL1        0.0047
     24 C           4.3611   -3.2278   20.0569 C.ar    1  UNL1        0.0821
     25 C           4.0335   -1.9166   19.4061 C.ar    1  UNL1        0.0659
     26 CL          3.8869   -1.8350   17.9156 Cl      1  UNL1       -0.0822
     27 C           4.5420   -4.4574   19.2170 C.3     1  UNL1        0.4194
     28 F           4.7229   -5.6870   18.3772 F       1  UNL1       -0.1658
     29 F           3.0990   -4.8110   19.4238 F       1  UNL1       -0.1658
     30 F           5.9850   -4.1038   19.0102 F       1  UNL1       -0.1658
@<TRIPOS>BOND
     1     2     1    1
     2     2     3    1
     3     3     4   ar
     4     4     5   ar
     5     5     6   ar
     6     6    13    1
     7    13    14   ar
     8    14    15   ar
     9    15    16   ar
    10    16    17    1
    11    16    18   ar
    12    18    19   ar
    13     6     7   ar
    14     7     8    1
    15     8     9    1
    16     9    10    1
    17    10    11   am
    18    11    12    2
    19    11    20    1
    20    20    21   ar
    21    21    22   ar
    22    22    23   ar
    23    23    24   ar
    24    24    27    1
    25    27    28    1
    26    27    29    1
    27    27    30    1
    28    24    25   ar
    29    25    26    1
    30    10     2    1
    31    25    20   ar
    32     7     3   ar
    33    19    13   ar
@<TRIPOS>MOLECULE
*****
 30 33 0 0 0
SMALL
GASTEIGER

@<TRIPOS>ATOM
      1 C           2.7271    2.4139   23.4791 C.3     1  UNL1        0.0281
      2 C           1.7527    2.2106   22.3568 C.3     1  UNL1        0.1170
      3 C           0.3950    2.8453   22.4182 C.ar    1  UNL1        0.0907
      4 N          -0.2599    3.7168   23.4485 N.ar    1  UNL1       -0.2267
      5 C          -1.6390    4.0521   22.9631 C.ar    1  UNL1        0.1822
      6 N          -1.8365    3.3879   21.6327 N.ar    1  UNL1       -0.2918
      7 C          -0.5794    2.6420   21.2959 C.ar    1  UNL1        0.0596
      8 C          -0.1960    1.8041   20.1124 C.3     1  UNL1        0.0669
      9 C           1.1617    1.1694   20.0511 C.3     1  UNL1        0.1003
     10 N           2.1360    1.3726   21.1732 N.am    1  UNL1       -0.2720
     11 C           3.4938    0.7379   21.1119 C.2     1  UNL1        0.2501
     12 O           4.4681    0.9412   22.2341 O.2     1  UNL1       -0.2699
     13 C          -3.0737    3.4573   20.7875 C.ar    1  UNL1        0.0653
     14 C          -2.9752    3.8568   19.3451 C.ar    1  UNL1        0.0199
     15 C          -4.2125    3.9263   18.4998 C.ar    1  UNL1        0.0311
     16 C          -5.5482    3.5962   19.0971 C.ar    1  UNL1        0.1402
     17 F          -6.7855    3.6657   18.2519 F       1  UNL1       -0.2042
     18 C          -5.6467    3.1967   20.5396 C.ar    1  UNL1        0.0311
     19 C          -4.4095    3.1272   21.3848 C.ar    1  UNL1        0.0199
     20 C           3.8772   -0.1001   19.9284 C.ar    1  UNL1        0.0641
     21 C           4.1869    0.5545   18.6147 C.ar    1  UNL1        0.0054
     22 C           4.5703   -0.2836   17.4312 C.ar    1  UNL1        0.0001
     23 C           4.6440   -1.7761   17.5613 C.ar    1  UNL1        0.0047
     24 C           4.3342   -2.4307   18.8750 C.ar    1  UNL1        0.0821
     25 C           3.9508   -1.5927   20.0585 C.ar    1  UNL1        0.0659
     26 CL          3.6411   -2.2472   21.3722 Cl      1  UNL1       -0.0822
     27 C           4.4079   -3.9232   19.0051 C.3     1  UNL1        0.4194
     28 F           4.4816   -5.4157   19.1352 F       1  UNL1       -0.1658
     29 F           2.9217   -4.0124   18.8229 F       1  UNL1       -0.1658
     30 F           5.8941   -3.8340   19.1873 F       1  UNL1       -0.1658
@<TRIPOS>BOND
     1     2     1    1
     2     2     3    1
     3     3     4   ar
     4     4     5   ar
     5     5     6   ar
     6     6    13    1
     7    13    14   ar
     8    14    15   ar
     9    15    16   ar
    10    16    17    1
    11    16    18   ar
    12    18    19   ar
    13     6     7   ar
    14     7     8    1
    15     8     9    1
    16     9    10    1
    17    10    11   am
    18    11    12    2
    19    11    20    1
    20    20    21   ar
    21    21    22   ar
    22    22    23   ar
    23    23    24   ar
    24    24    27    1
    25    27    28    1
    26    27    29    1
    27    27    30    1
    28    24    25   ar
    29    25    26    1
    30    10     2    1
    31    25    20   ar
    32     7     3   ar
    33    19    13   ar
@<TRIPOS>MOLECULE
*****
 30 33 0 0 0
SMALL
GASTEIGER

@<TRIPOS>ATOM
      1 C           1.9995    0.3942   24.1922 C.3     1  UNL1        0.0281
      2 C           3.1597   -0.5458   24.3350 C.3     1  UNL1        0.1170
      3 C           3.7012   -0.8676   25.6963 C.ar    1  UNL1        0.0907
      4 N           3.3002   -0.4144   27.0688 N.ar    1  UNL1       -0.2267
      5 C           4.2126   -1.0743   28.0598 C.ar    1  UNL1        0.1822
      6 N           5.1775   -1.9353   27.2998 N.ar    1  UNL1       -0.2918
      7 C           4.8614   -1.8076   25.8391 C.ar    1  UNL1        0.0596
      8 C           5.4801   -2.4258   24.6205 C.3     1  UNL1        0.0669
      9 C           4.9386   -2.1040   23.2592 C.3     1  UNL1        0.1003
     10 N           3.7785   -1.1641   23.1164 N.am    1  UNL1       -0.2720
     11 C           3.2370   -0.8423   21.7550 C.2     1  UNL1        0.2501
     12 O           2.0769    0.0977   21.6122 O.2     1  UNL1       -0.2699
     13 C           6.2671   -2.7764   27.8959 C.ar    1  UNL1        0.0653
     14 C           7.4037   -2.1242   28.6256 C.ar    1  UNL1        0.0199
     15 C           8.4934   -2.9653   29.2218 C.ar    1  UNL1        0.0311
     16 C           8.4463   -4.4585   29.0882 C.ar    1  UNL1        0.1402
     17 F           9.5359   -5.2996   29.6843 F       1  UNL1       -0.2042
     18 C           7.3096   -5.1107   28.3584 C.ar    1  UNL1        0.0311
     19 C           6.2200   -4.2697   27.7623 C.ar    1  UNL1        0.0199
     20 C           3.8558   -1.4605   20.5364 C.ar    1  UNL1        0.0641
     21 C           3.5591   -2.8888   20.1872 C.ar    1  UNL1        0.0054
     22 C           4.1779   -3.5070   18.9685 C.ar    1  UNL1        0.0001
     23 C           5.0932   -2.6969   18.0992 C.ar    1  UNL1        0.0047
     24 C           5.3899   -1.2685   18.4484 C.ar    1  UNL1        0.0821
     25 C           4.7711   -0.6503   19.6670 C.ar    1  UNL1        0.0659
     26 CL          5.0678    0.7780   20.0162 Cl      1  UNL1       -0.0822
     27 C           6.3052   -0.4584   17.5790 C.3     1  UNL1        0.4194
     28 F           7.2206    0.3517   16.7096 F       1  UNL1       -0.1658
     29 F           5.1309   -0.0094   16.7610 F       1  UNL1       -0.1658
     30 F           7.4796   -0.9075   18.3971 F       1  UNL1       -0.1658
@<TRIPOS>BOND
     1     2     1    1
     2     2     3    1
     3     3     4   ar
     4     4     5   ar
     5     5     6   ar
     6     6    13    1
     7    13    14   ar
     8    14    15   ar
     9    15    16   ar
    10    16    17    1
    11    16    18   ar
    12    18    19   ar
    13     6     7   ar
    14     7     8    1
    15     8     9    1
    16     9    10    1
    17    10    11   am
    18    11    12    2
    19    11    20    1
    20    20    21   ar
    21    21    22   ar
    22    22    23   ar
    23    23    24   ar
    24    24    27    1
    25    27    28    1
    26    27    29    1
    27    27    30    1
    28    24    25   ar
    29    25    26    1
    30    10     2    1
    31    25    20   ar
    32     7     3   ar
    33    19    13   ar
@<TRIPOS>MOLECULE
*****
 30 33 0 0 0
SMALL
GASTEIGER

@<TRIPOS>ATOM
      1 C           6.4787    1.1194   27.1688 C.3     1  UNL1        0.0281
      2 C           5.6165    0.3829   26.1868 C.3     1  UNL1        0.1170
      3 C           6.2417   -0.3141   25.0149 C.ar    1  UNL1        0.0907
      4 N           7.6682   -0.4475   24.5706 N.ar    1  UNL1       -0.2267
      5 C           7.6876   -1.2665   23.3141 C.ar    1  UNL1        0.1822
      6 N           6.2732   -1.6392   22.9818 N.ar    1  UNL1       -0.2918
      7 C           5.3795   -1.0506   24.0330 C.ar    1  UNL1        0.0596
      8 C           3.8921   -1.0901   24.2229 C.3     1  UNL1        0.0669
      9 C           3.2669   -0.3931   25.3948 C.3     1  UNL1        0.1003
     10 N           4.1291    0.3433   26.3767 N.am    1  UNL1       -0.2720
     11 C           3.5038    1.0404   27.5486 C.2     1  UNL1        0.2501
     12 O           4.3660    1.7769   28.5306 O.2     1  UNL1       -0.2699
     13 C           5.8301   -2.4570   21.8049 C.ar    1  UNL1        0.0653
     14 C           6.4285   -2.2096   20.4519 C.ar    1  UNL1        0.0199
     15 C           5.9855   -3.0273   19.2749 C.ar    1  UNL1        0.0311
     16 C           4.9442   -4.0924   19.4511 C.ar    1  UNL1        0.1402
     17 F           4.5012   -4.9102   18.2743 F       1  UNL1       -0.2042
     18 C           4.3459   -4.3399   20.8043 C.ar    1  UNL1        0.0311
     19 C           4.7888   -3.5222   21.9811 C.ar    1  UNL1        0.0199
     20 C           2.0164    1.0009   27.7386 C.ar    1  UNL1        0.0641
     21 C           1.3994   -0.0524   28.6103 C.ar    1  UNL1        0.0054
     22 C          -0.0881   -0.0918   28.8002 C.ar    1  UNL1        0.0001
     23 C          -0.9584    0.9218   28.1184 C.ar    1  UNL1        0.0047
     24 C          -0.3413    1.9751   27.2466 C.ar    1  UNL1        0.0821
     25 C           1.1461    2.0146   27.0567 C.ar    1  UNL1        0.0659
     26 CL          1.7631    3.0679   26.1850 Cl      1  UNL1       -0.0822
     27 C          -1.2117    2.9888   26.5648 C.3     1  UNL1        0.4194
     28 F          -2.0820    4.0026   25.8830 F       1  UNL1       -0.1658
     29 F          -1.0021    3.9374   27.7077 F       1  UNL1       -0.1658
     30 F          -1.4212    2.0402   25.4219 F       1  UNL1       -0.1658
@<TRIPOS>BOND
     1     2     1    1
     2     2     3    1
     3     3     4   ar
     4     4     5   ar
     5     5     6   ar
     6     6    13    1
     7    13    14   ar
     8    14    15   ar
     9    15    16   ar
    10    16    17    1
    11    16    18   ar
    12    18    19   ar
    13     6     7   ar
    14     7     8    1
    15     8     9    1
    16     9    10    1
    17    10    11   am
    18    11    12    2
    19    11    20    1
    20    20    21   ar
    21    21    22   ar
    22    22    23   ar
    23    23    24   ar
    24    24    27    1
    25    27    28    1
    26    27    29    1
    27    27    30    1
    28    24    25   ar
    29    25    26    1
    30    10     2    1
    31    25    20   ar
    32     7     3   ar
    33    19    13   ar
@<TRIPOS>MOLECULE
*****
 30 33 0 0 0
SMALL
GASTEIGER

@<TRIPOS>ATOM
      1 C           1.3241    6.2470   20.6806 C.3     1  UNL1        0.0281
      2 C           1.0869    4.7699   20.5699 C.3     1  UNL1        0.1170
      3 C           2.1940    3.8642   20.1185 C.ar    1  UNL1        0.0907
      4 N           3.6135    4.1370   19.7177 N.ar    1  UNL1       -0.2267
      5 C           4.2536    2.8286   19.3594 C.ar    1  UNL1        0.1822
      6 N           3.2296    1.7472   19.5387 N.ar    1  UNL1       -0.2918
      7 C           1.9568    2.3872   20.0079 C.ar    1  UNL1        0.0596
      8 C           0.6123    1.8160   20.3486 C.3     1  UNL1        0.0669
      9 C          -0.4948    2.7217   20.8000 C.3     1  UNL1        0.1003
     10 N          -0.2576    4.1986   20.9107 N.am    1  UNL1       -0.2720
     11 C          -1.3649    5.1044   21.3621 C.2     1  UNL1        0.2501
     12 O          -1.1276    6.5814   21.4727 O.2     1  UNL1       -0.2699
     13 C           3.4414    0.2828   19.2921 C.ar    1  UNL1        0.0653
     14 C           3.9420   -0.1885   17.9590 C.ar    1  UNL1        0.0199
     15 C           4.1539   -1.6530   17.7124 C.ar    1  UNL1        0.0311
     16 C           3.8651   -2.6459   18.7989 C.ar    1  UNL1        0.1402
     17 F           4.0769   -4.1102   18.5523 F       1  UNL1       -0.2042
     18 C           3.3645   -2.1745   20.1321 C.ar    1  UNL1        0.0311
     19 C           3.1526   -0.7102   20.3787 C.ar    1  UNL1        0.0199
     20 C          -2.7093    4.5332   21.7029 C.ar    1  UNL1        0.0641
     21 C          -2.9476    3.9322   23.0564 C.ar    1  UNL1        0.0054
     22 C          -4.2922    3.3609   23.3971 C.ar    1  UNL1        0.0001
     23 C          -5.3982    3.3907   22.3844 C.ar    1  UNL1        0.0047
     24 C          -5.1598    3.9917   21.0308 C.ar    1  UNL1        0.0821
     25 C          -3.8154    4.5630   20.6900 C.ar    1  UNL1        0.0659
     26 CL         -3.5771    5.1640   19.3365 Cl      1  UNL1       -0.0822
     27 C          -6.2660    4.0215   20.0181 C.3     1  UNL1        0.4194
     28 F          -7.3721    4.0512   19.0053 F       1  UNL1       -0.1658
     29 F          -5.6801    2.8170   19.3428 F       1  UNL1       -0.1658
     30 F          -6.8518    5.2260   20.6933 F       1  UNL1       -0.1658
@<TRIPOS>BOND
     1     2     1    1
     2     2     3    1
     3     3     4   ar
     4     4     5   ar
     5     5     6   ar
     6     6    13    1
     7    13    14   ar
     8    14    15   ar
     9    15    16   ar
    10    16    17    1
    11    16    18   ar
    12    18    19   ar
    13     6     7   ar
    14     7     8    1
    15     8     9    1
    16     9    10    1
    17    10    11   am
    18    11    12    2
    19    11    20    1
    20    20    21   ar
    21    21    22   ar
    22    22    23   ar
    23    23    24   ar
    24    24    27    1
    25    27    28    1
    26    27    29    1
    27    27    30    1
    28    24    25   ar
    29    25    26    1
    30    10     2    1
    31    25    20   ar
    32     7     3   ar
    33    19    13   ar
