@<TRIPOS>MOLECULE
*****
 19 22 0 0 0
SMALL
GASTEIGER

@<TRIPOS>ATOM
      1 O          -8.8788  -19.0531   19.3374 O.2     1  UNL1       -0.2258
      2 C          -7.6557  -19.1610   20.1990 C.2     1  UNL1        0.4090
      3 O          -6.2344  -19.1262   19.7207 O.3     1  UNL1       -0.4384
      4 C          -5.3394  -19.2664   20.9162 C.3     1  UNL1        0.1706
      5 C          -4.6039  -19.1343   19.6156 C.3     1  UNL1        0.1145
      6 N          -3.1041  -19.1502   19.5971 N.3     1  UNL1       -0.2697
      7 C          -2.3398  -19.2982   20.8793 C.3     1  UNL1        0.0723
      8 C          -3.0753  -19.4303   22.1798 C.3     1  UNL1        0.0209
      9 C          -4.5751  -19.4144   22.1983 C.3     1  UNL1        0.0427
     10 C          -4.6395  -19.2738   20.9076 C.3     1  UNL1        0.0209
     11 C          -4.2472  -19.2034   20.2139 C.3     1  UNL1        0.0723
     12 C          -6.2075  -19.3879   22.1334 C.3     1  UNL1        0.1433
     13 N          -7.6391  -19.3228   21.6901 N.am    1  UNL1       -0.2159
     14 C          -8.8426  -19.4049   22.5816 C.ar    1  UNL1        0.0878
     15 C          -9.0830  -20.4345   23.6457 C.ar    1  UNL1        0.0231
     16 C         -10.4061  -20.1379   24.2872 C.ar    1  UNL1        0.0198
     17 C         -10.9834  -18.9251   23.6196 C.ar    1  UNL1        0.0881
     18 CL        -12.2964  -18.2787   23.9483 Cl      1  UNL1       -0.0751
     19 S         -10.0171  -18.4721   22.5654 S.2     1  UNL1       -0.0604
@<TRIPOS>BOND
     1     1     2    2
     2     2     3    1
     3     3     4    1
     4     4     5    1
     5     5     6    1
     6     6     7    1
     7     7     8    1
     8     8     9    1
     9     9    10    1
    10    10    11    1
    11     4    12    1
    12    12    13    1
    13    13    14    1
    14    14    15   ar
    15    15    16   ar
    16    16    17   ar
    17    17    18    1
    18    17    19   ar
    19    13     2   am
    20    19    14   ar
    21     9     4    1
    22    11     6    1
@<TRIPOS>MOLECULE
*****
 19 22 0 0 0
SMALL
GASTEIGER

@<TRIPOS>ATOM
      1 O          -8.1283  -16.1902   23.8490 O.2     1  UNL1       -0.2258
      2 C          -7.7632  -17.3241   22.9374 C.2     1  UNL1        0.4090
      3 O          -6.3731  -17.7999   22.6354 O.3     1  UNL1       -0.4384
      4 C          -6.4747  -18.9511   21.6792 C.3     1  UNL1        0.1706
      5 C          -5.0679  -18.5983   22.0619 C.3     1  UNL1        0.1145
      6 N          -3.9184  -19.3771   21.4943 N.3     1  UNL1       -0.2697
      7 C          -4.1757  -20.5088   20.5441 C.3     1  UNL1        0.0723
      8 C          -5.5825  -20.8617   20.1614 C.3     1  UNL1        0.0209
      9 C          -6.7319  -20.0828   20.7290 C.3     1  UNL1        0.0427
     10 C          -5.9382  -19.3146   21.4144 C.3     1  UNL1        0.0209
     11 C          -5.1880  -19.1264   21.6184 C.3     1  UNL1        0.0723
     12 C          -7.9276  -19.1868   21.3903 C.3     1  UNL1        0.1433
     13 N          -8.7239  -18.1812   22.1679 N.am    1  UNL1       -0.2159
     14 C         -10.2186  -18.0549   22.1747 C.ar    1  UNL1        0.0878
     15 C         -11.0896  -17.8273   20.9749 C.ar    1  UNL1        0.0231
     16 C         -12.5140  -17.7658   21.4411 C.ar    1  UNL1        0.0198
     17 C         -12.5233  -17.9555   22.9290 C.ar    1  UNL1        0.0881
     18 CL        -13.7379  -17.9649   23.8091 Cl      1  UNL1       -0.0751
     19 S         -11.1046  -18.1342   23.3824 S.2     1  UNL1       -0.0604
@<TRIPOS>BOND
     1     1     2    2
     2     2     3    1
     3     3     4    1
     4     4     5    1
     5     5     6    1
     6     6     7    1
     7     7     8    1
     8     8     9    1
     9     9    10    1
    10    10    11    1
    11     4    12    1
    12    12    13    1
    13    13    14    1
    14    14    15   ar
    15    15    16   ar
    16    16    17   ar
    17    17    18    1
    18    17    19   ar
    19    13     2   am
    20    19    14   ar
    21     9     4    1
    22    11     6    1
@<TRIPOS>MOLECULE
*****
 19 22 0 0 0
SMALL
GASTEIGER

@<TRIPOS>ATOM
      1 O          -7.5804  -15.9755   23.9703 O.2     1  UNL1       -0.2258
      2 C          -6.7845  -17.0363   23.2694 C.2     1  UNL1        0.4090
      3 O          -5.2881  -17.1149   23.2007 O.3     1  UNL1       -0.4384
      4 C          -4.9240  -18.3319   22.4030 C.3     1  UNL1        0.1706
      5 C          -3.7428  -17.5511   22.8982 C.3     1  UNL1        0.1145
      6 N          -2.3516  -18.0134   22.5806 N.3     1  UNL1       -0.2697
      7 C          -2.1416  -19.2564   21.7677 C.3     1  UNL1        0.0723
      8 C          -3.3227  -20.0372   21.2725 C.3     1  UNL1        0.0209
      9 C          -4.7139  -19.5749   21.5902 C.3     1  UNL1        0.0427
     10 C          -4.2747  -18.5476   22.2548 C.3     1  UNL1        0.0209
     11 C          -3.6448  -18.1312   22.5189 C.3     1  UNL1        0.0723
     12 C          -6.1953  -19.0055   21.9788 C.3     1  UNL1        0.1433
     13 N          -7.3452  -18.2048   22.5142 N.am    1  UNL1       -0.2159
     14 C          -8.8002  -18.5177   22.3273 C.ar    1  UNL1        0.0878
     15 C          -9.4922  -19.7794   22.7506 C.ar    1  UNL1        0.0231
     16 C         -10.9384  -19.6653   22.3692 C.ar    1  UNL1        0.0198
     17 C         -11.1402  -18.3331   21.7101 C.ar    1  UNL1        0.0881
     18 CL        -12.4360  -17.8031   21.1714 Cl      1  UNL1       -0.0751
     19 S          -9.8187  -17.6238   21.6842 S.2     1  UNL1       -0.0604
@<TRIPOS>BOND
     1     1     2    2
     2     2     3    1
     3     3     4    1
     4     4     5    1
     5     5     6    1
     6     6     7    1
     7     7     8    1
     8     8     9    1
     9     9    10    1
    10    10    11    1
    11     4    12    1
    12    12    13    1
    13    13    14    1
    14    14    15   ar
    15    15    16   ar
    16    16    17   ar
    17    17    18    1
    18    17    19   ar
    19    13     2   am
    20    19    14   ar
    21     9     4    1
    22    11     6    1
@<TRIPOS>MOLECULE
*****
 19 22 0 0 0
SMALL
GASTEIGER

@<TRIPOS>ATOM
      1 O          -8.3393  -19.2693   18.7448 O.2     1  UNL1       -0.2258
      2 C          -8.5918  -19.2743   20.2234 C.2     1  UNL1        0.4090
      3 O          -9.9121  -19.0330   20.8931 O.3     1  UNL1       -0.4384
      4 C          -9.7047  -19.1311   22.3755 C.3     1  UNL1        0.1706
      5 C         -11.1189  -18.8304   21.9759 C.3     1  UNL1        0.1145
      6 N         -12.1746  -18.6570   23.0273 N.3     1  UNL1       -0.2697
      7 C         -11.8162  -18.7844   24.4782 C.3     1  UNL1        0.0723
      8 C         -10.4020  -19.0852   24.8778 C.3     1  UNL1        0.0209
      9 C          -9.3463  -19.2586   23.8264 C.3     1  UNL1        0.0427
     10 C         -10.1974  -19.0502   22.8661 C.3     1  UNL1        0.0209
     11 C         -10.9516  -18.8898   22.6530 C.3     1  UNL1        0.0723
     12 C          -8.2562  -19.4331   22.6218 C.3     1  UNL1        0.1433
     13 N          -7.5684  -19.5216   21.2918 N.am    1  UNL1       -0.2159
     14 C          -6.1128  -19.8071   21.0692 C.ar    1  UNL1        0.0878
     15 C          -5.5469  -20.7852   20.0827 C.ar    1  UNL1        0.0231
     16 C          -4.0518  -20.7474   20.1978 C.ar    1  UNL1        0.0198
     17 C          -3.6937  -19.7460   21.2556 C.ar    1  UNL1        0.0881
     18 CL         -2.3055  -19.3884   21.6973 Cl      1  UNL1       -0.0751
     19 S          -4.9673  -19.1649   21.7942 S.2     1  UNL1       -0.0604
@<TRIPOS>BOND
     1     1     2    2
     2     2     3    1
     3     3     4    1
     4     4     5    1
     5     5     6    1
     6     6     7    1
     7     7     8    1
     8     8     9    1
     9     9    10    1
    10    10    11    1
    11     4    12    1
    12    12    13    1
    13    13    14    1
    14    14    15   ar
    15    15    16   ar
    16    16    17   ar
    17    17    18    1
    18    17    19   ar
    19    13     2   am
    20    19    14   ar
    21     9     4    1
    22    11     6    1
@<TRIPOS>MOLECULE
*****
 19 22 0 0 0
SMALL
GASTEIGER

@<TRIPOS>ATOM
      1 O          -7.7440  -14.9185   21.2677 O.2     1  UNL1       -0.2258
      2 C          -8.5127  -15.9627   22.0218 C.2     1  UNL1        0.4090
      3 O         -10.0033  -16.0174   22.1804 O.3     1  UNL1       -0.4384
      4 C         -10.3377  -17.2240   23.0064 C.3     1  UNL1        0.1706
      5 C         -11.5342  -16.4275   22.5776 C.3     1  UNL1        0.1145
      6 N         -12.9108  -16.8661   22.9809 N.3     1  UNL1       -0.2697
      7 C         -13.0909  -18.1010   23.8130 C.3     1  UNL1        0.0723
      8 C         -11.8943  -18.8975   24.2417 C.3     1  UNL1        0.0209
      9 C         -10.5177  -18.4590   23.8384 C.3     1  UNL1        0.0427
     10 C         -10.9801  -17.4286   23.1946 C.3     1  UNL1        0.0209
     11 C         -11.6182  -17.0039   22.9659 C.3     1  UNL1        0.0723
     12 C          -9.0537  -17.9151   23.3582 C.3     1  UNL1        0.1433
     13 N          -7.9258  -17.1356   22.7497 N.am    1  UNL1       -0.2159
     14 C          -6.4672  -17.4703   22.8513 C.ar    1  UNL1        0.0878
     15 C          -5.4351  -16.6924   23.6127 C.ar    1  UNL1        0.0231
     16 C          -4.1145  -17.3829   23.4414 C.ar    1  UNL1        0.0198
     17 C          -4.3305  -18.5875   22.5741 C.ar    1  UNL1        0.0881
     18 CL         -3.2774  -19.5664   22.1465 Cl      1  UNL1       -0.0751
     19 S          -5.7845  -18.6416   22.2094 S.2     1  UNL1       -0.0604
@<TRIPOS>BOND
     1     1     2    2
     2     2     3    1
     3     3     4    1
     4     4     5    1
     5     5     6    1
     6     6     7    1
     7     7     8    1
     8     8     9    1
     9     9    10    1
    10    10    11    1
    11     4    12    1
    12    12    13    1
    13    13    14    1
    14    14    15   ar
    15    15    16   ar
    16    16    17   ar
    17    17    18    1
    18    17    19   ar
    19    13     2   am
    20    19    14   ar
    21     9     4    1
    22    11     6    1
@<TRIPOS>MOLECULE
*****
 19 22 0 0 0
SMALL
GASTEIGER

@<TRIPOS>ATOM
      1 O          -6.2564  -16.2743   23.3579 O.2     1  UNL1       -0.2258
      2 C          -7.4248  -16.9964   22.7551 C.2     1  UNL1        0.4090
      3 O          -8.8693  -16.6256   22.9168 O.3     1  UNL1       -0.4384
      4 C          -9.6911  -17.6161   22.1464 C.3     1  UNL1        0.1706
      5 C         -10.5004  -16.5631   22.8438 C.3     1  UNL1        0.1145
      6 N         -11.9961  -16.5695   22.7310 N.3     1  UNL1       -0.2697
      7 C         -12.6826  -17.6289   21.9209 C.3     1  UNL1        0.0723
      8 C         -11.8734  -18.6819   21.2236 C.3     1  UNL1        0.0209
      9 C         -10.3777  -18.6755   21.3363 C.3     1  UNL1        0.0427
     10 C         -10.3892  -17.6191   22.0938 C.3     1  UNL1        0.0209
     11 C         -10.8207  -17.0575   22.4657 C.3     1  UNL1        0.0723
     12 C          -8.7546  -18.5990   21.5086 C.3     1  UNL1        0.1433
     13 N          -7.3540  -18.2160   21.8848 N.am    1  UNL1       -0.2159
     14 C          -6.1023  -18.9277   21.4644 C.ar    1  UNL1        0.0878
     15 C          -5.9745  -19.8818   20.3140 C.ar    1  UNL1        0.0231
     16 C          -4.5519  -20.3540   20.2592 C.ar    1  UNL1        0.0198
     17 C          -3.8004  -19.6918   21.3757 C.ar    1  UNL1        0.0881
     18 CL         -2.3460  -19.8784   21.6919 Cl      1  UNL1       -0.0751
     19 S          -4.7585  -18.8103   22.1206 S.2     1  UNL1       -0.0604
@<TRIPOS>BOND
     1     1     2    2
     2     2     3    1
     3     3     4    1
     4     4     5    1
     5     5     6    1
     6     6     7    1
     7     7     8    1
     8     8     9    1
     9     9    10    1
    10    10    11    1
    11     4    12    1
    12    12    13    1
    13    13    14    1
    14    14    15   ar
    15    15    16   ar
    16    16    17   ar
    17    17    18    1
    18    17    19   ar
    19    13     2   am
    20    19    14   ar
    21     9     4    1
    22    11     6    1
@<TRIPOS>MOLECULE
*****
 19 22 0 0 0
SMALL
GASTEIGER

@<TRIPOS>ATOM
      1 O          -7.4261  -17.1933   21.2971 O.2     1  UNL1       -0.2258
      2 C          -7.8237  -16.7011   22.6571 C.2     1  UNL1        0.4090
      3 O          -6.8890  -16.3642   23.7808 O.3     1  UNL1       -0.4384
      4 C          -7.7134  -15.9143   24.9504 C.3     1  UNL1        0.1706
      5 C          -6.2355  -15.9072   25.2069 C.3     1  UNL1        0.1145
      6 N          -5.7083  -15.4744   26.5429 N.3     1  UNL1       -0.2697
      7 C          -6.6588  -15.0487   27.6223 C.3     1  UNL1        0.0723
      8 C          -8.1367  -15.0559   27.3658 C.3     1  UNL1        0.0209
      9 C          -8.6640  -15.4887   26.0298 C.3     1  UNL1        0.0427
     10 C          -7.4673  -15.7124   25.5739 C.3     1  UNL1        0.0209
     11 C          -6.6791  -15.7085   25.7107 C.3     1  UNL1        0.0723
     12 C          -9.1576  -15.9732   24.5496 C.3     1  UNL1        0.1433
     13 N          -9.2258  -16.4595   23.1322 N.am    1  UNL1       -0.2159
     14 C         -10.4765  -16.6676   22.3307 C.ar    1  UNL1        0.0878
     15 C         -11.5458  -17.6813   22.6123 C.ar    1  UNL1        0.0231
     16 C         -12.6077  -17.5388   21.5626 C.ar    1  UNL1        0.0198
     17 C         -12.1948  -16.4370   20.6322 C.ar    1  UNL1        0.0881
     18 CL        -12.9640  -15.9578   19.4369 Cl      1  UNL1       -0.0751
     19 S         -10.8777  -15.8986   21.1069 S.2     1  UNL1       -0.0604
@<TRIPOS>BOND
     1     1     2    2
     2     2     3    1
     3     3     4    1
     4     4     5    1
     5     5     6    1
     6     6     7    1
     7     7     8    1
     8     8     9    1
     9     9    10    1
    10    10    11    1
    11     4    12    1
    12    12    13    1
    13    13    14    1
    14    14    15   ar
    15    15    16   ar
    16    16    17   ar
    17    17    18    1
    18    17    19   ar
    19    13     2   am
    20    19    14   ar
    21     9     4    1
    22    11     6    1
@<TRIPOS>MOLECULE
*****
 19 22 0 0 0
SMALL
GASTEIGER

@<TRIPOS>ATOM
      1 O          -9.8217  -19.1240   25.6923 O.2     1  UNL1       -0.2258
      2 C          -9.9433  -18.1918   24.5235 C.2     1  UNL1        0.4090
      3 O         -10.8366  -18.3816   23.3336 O.3     1  UNL1       -0.4384
      4 C         -10.6384  -17.2133   22.4140 C.3     1  UNL1        0.1706
      5 C         -11.6360  -18.2176   21.9180 C.3     1  UNL1        0.1145
      6 N         -12.3315  -17.9995   20.6070 N.3     1  UNL1       -0.2697
      7 C         -12.0294  -16.7770   19.7920 C.3     1  UNL1        0.0723
      8 C         -11.0318  -15.7727   20.2880 C.3     1  UNL1        0.0209
      9 C         -10.3363  -15.9908   21.5990 C.3     1  UNL1        0.0427
     10 C         -10.9630  -17.1115   21.8022 C.3     1  UNL1        0.0209
     11 C         -11.4950  -17.6472   21.5376 C.3     1  UNL1        0.0723
     12 C          -9.6225  -16.3014   23.0356 C.3     1  UNL1        0.1433
     13 N          -9.1929  -16.9061   24.3393 N.am    1  UNL1       -0.2159
     14 C          -8.1892  -16.3268   25.2917 C.ar    1  UNL1        0.0878
     15 C          -8.3289  -16.2542   26.7834 C.ar    1  UNL1        0.0231
     16 C          -7.0956  -15.6010   27.3332 C.ar    1  UNL1        0.0198
     17 C          -6.1937  -15.2699   26.1813 C.ar    1  UNL1        0.0881
     18 CL         -4.8515  -14.6067   26.2746 Cl      1  UNL1       -0.0751
     19 S          -6.8696  -15.7185   24.9195 S.2     1  UNL1       -0.0604
@<TRIPOS>BOND
     1     1     2    2
     2     2     3    1
     3     3     4    1
     4     4     5    1
     5     5     6    1
     6     6     7    1
     7     7     8    1
     8     8     9    1
     9     9    10    1
    10    10    11    1
    11     4    12    1
    12    12    13    1
    13    13    14    1
    14    14    15   ar
    15    15    16   ar
    16    16    17   ar
    17    17    18    1
    18    17    19   ar
    19    13     2   am
    20    19    14   ar
    21     9     4    1
    22    11     6    1
@<TRIPOS>MOLECULE
*****
 19 22 0 0 0
SMALL
GASTEIGER

@<TRIPOS>ATOM
      1 O         -11.6026  -17.7877   23.8653 O.2     1  UNL1       -0.2258
      2 C         -10.1686  -17.3545   23.7891 C.2     1  UNL1        0.4090
      3 O          -9.4072  -16.6335   24.8617 O.3     1  UNL1       -0.4384
      4 C          -8.0122  -16.3996   24.3625 C.3     1  UNL1        0.1706
      5 C          -8.2623  -15.8715   25.7440 C.3     1  UNL1        0.1145
      6 N          -7.1614  -15.1822   26.4942 N.3     1  UNL1       -0.2697
      7 C          -5.8103  -15.0209   25.8628 C.3     1  UNL1        0.0723
      8 C          -5.5602  -15.5489   24.4813 C.3     1  UNL1        0.0209
      9 C          -6.6611  -16.2382   23.7312 C.3     1  UNL1        0.0427
     10 C          -7.4984  -16.0779   24.7126 C.3     1  UNL1        0.0209
     11 C          -7.6318  -15.7963   25.4494 C.3     1  UNL1        0.0723
     12 C          -7.9114  -16.9760   22.9813 C.3     1  UNL1        0.1433
     13 N          -9.2441  -17.5662   22.6270 N.am    1  UNL1       -0.2159
     14 C          -9.5914  -18.2484   21.3370 C.ar    1  UNL1        0.0878
     15 C         -10.8643  -18.0748   20.5626 C.ar    1  UNL1        0.0231
     16 C         -10.7863  -18.9429   19.3419 C.ar    1  UNL1        0.0198
     17 C          -9.4653  -19.6531   19.3618 C.ar    1  UNL1        0.0881
     18 CL         -8.9697  -20.6224   18.3299 Cl      1  UNL1       -0.0751
     19 S          -8.7267  -19.2238   20.5948 S.2     1  UNL1       -0.0604
@<TRIPOS>BOND
     1     1     2    2
     2     2     3    1
     3     3     4    1
     4     4     5    1
     5     5     6    1
     6     6     7    1
     7     7     8    1
     8     8     9    1
     9     9    10    1
    10    10    11    1
    11     4    12    1
    12    12    13    1
    13    13    14    1
    14    14    15   ar
    15    15    16   ar
    16    16    17   ar
    17    17    18    1
    18    17    19   ar
    19    13     2   am
    20    19    14   ar
    21     9     4    1
    22    11     6    1
