@<TRIPOS>MOLECULE
*****
 31 34 0 0 0
SMALL
GASTEIGER

@<TRIPOS>ATOM
      1 C          -8.5458  -18.1934   22.6347 C.3     1  UNL1        0.2238
      2 N          -8.9429  -19.0545   21.4725 N.pl3   1  UNL1       -0.2150
      3 C          -7.6941  -19.4556   20.7447 C.2     1  UNL1        0.3732
      4 N          -7.6261  -20.3184   19.5196 N.2     1  UNL1       -0.1329
      5 N          -6.5252  -18.8424   21.4572 N.am    1  UNL1       -0.1486
      6 C          -7.0515  -18.0623   22.6253 C.2     1  UNL1        0.3256
      7 O          -6.2282  -17.2872   23.6108 O.2     1  UNL1       -0.2524
      8 H          -9.8619  -19.3113   21.2300 H       1  UNL1        0.2462
      9 H          -8.4532  -20.6761   19.1229 H       1  UNL1        0.3058
     10 C          -8.2799  -15.5780   26.2870 C.ar    1  UNL1        0.1387
     11 C          -8.6284  -17.0301   26.4281 C.ar    1  UNL1        0.0367
     12 C          -8.7170  -17.9019   25.2107 C.ar    1  UNL1        0.0026
     13 C          -8.4572  -17.3216   23.8521 C.ar    1  UNL1        0.0221
     14 C          -8.1087  -15.8695   23.7110 C.ar    1  UNL1        0.0026
     15 C          -8.0201  -14.9977   24.9284 C.ar    1  UNL1        0.0367
     16 C          -6.8503  -14.3134   28.0496 C.3     1  UNL1        0.2525
     17 O          -8.1913  -14.7062   27.5044 O.3     1  UNL1       -0.4714
     18 C         -10.0215  -18.1423   22.8987 C.ar    1  UNL1        0.0221
     19 C         -10.6627  -19.1760   23.7763 C.ar    1  UNL1        0.0026
     20 C         -12.1383  -19.1249   24.0402 C.ar    1  UNL1        0.0367
     21 C         -12.9728  -18.0400   23.4267 C.ar    1  UNL1        0.1387
     22 C         -12.3317  -17.0062   22.5491 C.ar    1  UNL1        0.0367
     23 C         -10.8560  -17.0573   22.2852 C.ar    1  UNL1        0.0026
     24 O         -14.4486  -17.9888   23.6907 O.3     1  UNL1       -0.4714
     25 C         -14.9938  -18.4795   24.9991 C.3     1  UNL1        0.2525
     26 C          -5.0831  -18.9843   21.0696 C.3     1  UNL1        0.1410
     27 C          -4.0752  -19.4387   22.0833 C.3     1  UNL1        0.0377
     28 C          -2.6332  -19.5806   21.6958 C.3     1  UNL1        0.0033
     29 C          -2.1989  -19.2683   20.2944 C.3     1  UNL1        0.0002
     30 C          -3.2067  -18.8139   19.2806 C.3     1  UNL1        0.0033
     31 C          -4.6489  -18.6719   19.6682 C.3     1  UNL1        0.0377
@<TRIPOS>BOND
     1    16    17    1
     2    17    10    1
     3    10    11   ar
     4    11    12   ar
     5    12    13   ar
     6    13     1    1
     7     1    18    1
     8    18    19   ar
     9    19    20   ar
    10    20    21   ar
    11    21    24    1
    12    24    25    1
    13    21    22   ar
    14    22    23   ar
    15     1     2    1
    16     2     3    1
    17     3     4    2
    18     3     5    1
    19     5    26    1
    20    26    27    1
    21    27    28    1
    22    28    29    1
    23    29    30    1
    24    30    31    1
    25     5     6   am
    26     6     7    2
    27    13    14   ar
    28    14    15   ar
    29    15    10   ar
    30     6     1    1
    31    23    18   ar
    32    31    26    1
    33     2     8    1
    34     4     9    1
@<TRIPOS>MOLECULE
*****
 31 34 0 0 0
SMALL
GASTEIGER

@<TRIPOS>ATOM
      1 C           6.3360   -2.8678   31.3799 C.3     1  UNL1        0.2238
      2 N           6.4697   -4.0096   32.3433 N.pl3   1  UNL1       -0.2150
      3 C           6.8478   -5.2332   31.5623 C.2     1  UNL1        0.3732
      4 N           7.0844   -6.6021   32.1281 N.2     1  UNL1       -0.1329
      5 N           6.9476   -4.8475   30.1162 N.am    1  UNL1       -0.1486
      6 C           6.6313   -3.3856   30.0034 C.2     1  UNL1        0.3256
      7 O           6.6135   -2.5826   28.7366 O.2     1  UNL1       -0.2524
      8 H           6.3334   -3.9640   33.3173 H       1  UNL1        0.2462
      9 H           6.9942   -6.7570   33.0961 H       1  UNL1        0.3058
     10 C           5.7226    1.0540   29.2602 C.ar    1  UNL1        0.1387
     11 C           7.1000    0.6378   29.6837 C.ar    1  UNL1        0.0367
     12 C           7.3045   -0.6694   30.3903 C.ar    1  UNL1        0.0026
     13 C           6.1315   -1.5605   30.6733 C.ar    1  UNL1        0.0221
     14 C           4.7541   -1.1443   30.2497 C.ar    1  UNL1        0.0026
     15 C           4.5497    0.1630   29.5432 C.ar    1  UNL1        0.0367
     16 C           4.1662    2.7164   28.0096 C.3     1  UNL1        0.2525
     17 O           5.5182    2.3613   28.5536 O.3     1  UNL1       -0.4714
     18 C           5.9979   -2.0766   32.6086 C.ar    1  UNL1        0.0221
     19 C           7.0340   -1.1966   33.2427 C.ar    1  UNL1        0.0026
     20 C           6.6959   -0.4055   34.4714 C.ar    1  UNL1        0.0367
     21 C           5.3217   -0.4943   35.0660 C.ar    1  UNL1        0.1387
     22 C           4.2855   -1.3743   34.4320 C.ar    1  UNL1        0.0367
     23 C           4.6236   -2.1654   33.2032 C.ar    1  UNL1        0.0026
     24 O           4.9836    0.2968   36.2947 O.3     1  UNL1       -0.4714
     25 C           4.0127    1.4371   36.2090 C.3     1  UNL1        0.2525
     26 C           7.3017   -5.7631   28.9820 C.3     1  UNL1        0.1410
     27 C           8.4480   -6.7205   29.1208 C.3     1  UNL1        0.0377
     28 C           8.8020   -7.6361   27.9867 C.3     1  UNL1        0.0033
     29 C           8.0098   -7.5943   26.7136 C.3     1  UNL1        0.0002
     30 C           6.8635   -6.6368   26.5748 C.3     1  UNL1        0.0033
     31 C           6.5094   -5.7212   27.7090 C.3     1  UNL1        0.0377
@<TRIPOS>BOND
     1    16    17    1
     2    17    10    1
     3    10    11   ar
     4    11    12   ar
     5    12    13   ar
     6    13     1    1
     7     1    18    1
     8    18    19   ar
     9    19    20   ar
    10    20    21   ar
    11    21    24    1
    12    24    25    1
    13    21    22   ar
    14    22    23   ar
    15     1     2    1
    16     2     3    1
    17     3     4    2
    18     3     5    1
    19     5    26    1
    20    26    27    1
    21    27    28    1
    22    28    29    1
    23    29    30    1
    24    30    31    1
    25     5     6   am
    26     6     7    2
    27    13    14   ar
    28    14    15   ar
    29    15    10   ar
    30     6     1    1
    31    23    18   ar
    32    31    26    1
    33     2     8    1
    34     4     9    1
@<TRIPOS>MOLECULE
*****
 31 34 0 0 0
SMALL
GASTEIGER

@<TRIPOS>ATOM
      1 C           7.2964   -4.1011   22.6855 C.3     1  UNL1        0.2238
      2 N           8.1599   -5.0944   21.9660 N.pl3   1  UNL1       -0.2150
      3 C           8.6436   -6.1000   22.9686 C.2     1  UNL1        0.3732
      4 N           9.5353   -7.2717   22.6823 N.2     1  UNL1       -0.1329
      5 N           8.0789   -5.7281   24.3075 N.am    1  UNL1       -0.1486
      6 C           7.2463   -4.4928   24.1326 C.2     1  UNL1        0.3256
      7 O           6.4955   -3.7751   25.2148 O.2     1  UNL1       -0.2524
      8 H           8.3720   -5.0876   21.0047 H       1  UNL1        0.2462
      9 H           9.8564   -7.4336   21.7658 H       1  UNL1        0.3058
     10 C           4.6201   -0.7281   23.9933 C.ar    1  UNL1        0.1387
     11 C           4.0270   -2.0536   23.6176 C.ar    1  UNL1        0.0367
     12 C           4.9191   -3.1779   23.1816 C.ar    1  UNL1        0.0026
     13 C           6.4043   -2.9768   23.1214 C.ar    1  UNL1        0.0221
     14 C           6.9974   -1.6513   23.4972 C.ar    1  UNL1        0.0026
     15 C           6.1053   -0.5270   23.9332 C.ar    1  UNL1        0.0367
     16 C           2.2759    0.3904   24.0534 C.3     1  UNL1        0.2525
     17 O           3.7280    0.3962   24.4293 O.3     1  UNL1       -0.4714
     18 C           7.1599   -3.4744   21.3295 C.ar    1  UNL1        0.0221
     19 C           8.2535   -2.5978   20.7949 C.ar    1  UNL1        0.0026
     20 C           8.1170   -1.9712   19.4390 C.ar    1  UNL1        0.0367
     21 C           6.8871   -2.2211   18.6176 C.ar    1  UNL1        0.1387
     22 C           5.7935   -3.0976   19.1521 C.ar    1  UNL1        0.0367
     23 C           5.9300   -3.7243   20.5081 C.ar    1  UNL1        0.0026
     24 O           6.7506   -1.5943   17.2617 O.3     1  UNL1       -0.4714
     25 C           6.4222   -0.1358   17.1391 C.3     1  UNL1        0.2525
     26 C           8.3069   -6.4627   25.5953 C.3     1  UNL1        0.1410
     27 C           9.1230   -5.8318   26.6843 C.3     1  UNL1        0.0377
     28 C           9.3511   -6.5663   27.9721 C.3     1  UNL1        0.0033
     29 C           8.7629   -7.9318   28.1710 C.3     1  UNL1        0.0002
     30 C           7.9467   -8.5627   27.0821 C.3     1  UNL1        0.0033
     31 C           7.7187   -7.8282   25.7942 C.3     1  UNL1        0.0377
@<TRIPOS>BOND
     1    16    17    1
     2    17    10    1
     3    10    11   ar
     4    11    12   ar
     5    12    13   ar
     6    13     1    1
     7     1    18    1
     8    18    19   ar
     9    19    20   ar
    10    20    21   ar
    11    21    24    1
    12    24    25    1
    13    21    22   ar
    14    22    23   ar
    15     1     2    1
    16     2     3    1
    17     3     4    2
    18     3     5    1
    19     5    26    1
    20    26    27    1
    21    27    28    1
    22    28    29    1
    23    29    30    1
    24    30    31    1
    25     5     6   am
    26     6     7    2
    27    13    14   ar
    28    14    15   ar
    29    15    10   ar
    30     6     1    1
    31    23    18   ar
    32    31    26    1
    33     2     8    1
    34     4     9    1
@<TRIPOS>MOLECULE
*****
 31 34 0 0 0
SMALL
GASTEIGER

@<TRIPOS>ATOM
      1 C           7.2099   -4.0264   29.0137 C.3     1  UNL1        0.2238
      2 N           7.1953   -5.2247   29.9159 N.pl3   1  UNL1       -0.2150
      3 C           6.7737   -4.7712   31.2821 C.2     1  UNL1        0.3732
      4 N           6.6244   -5.6431   32.4935 N.2     1  UNL1       -0.1329
      5 N           6.5278   -3.2926   31.2243 N.am    1  UNL1       -0.1486
      6 C           6.7973   -2.8323   29.8224 C.2     1  UNL1        0.3256
      7 O           6.6756   -1.4251   29.3177 O.2     1  UNL1       -0.2524
      8 H           7.4226   -6.1469   29.6568 H       1  UNL1        0.2462
      9 H           6.8099   -6.6080   32.4314 H       1  UNL1        0.3058
     10 C           7.5261   -1.0504   25.6532 C.ar    1  UNL1        0.1387
     11 C           6.2481   -1.8055   25.8685 C.ar    1  UNL1        0.0367
     12 C           6.1427   -2.7976   26.9887 C.ar    1  UNL1        0.0026
     13 C           7.3153   -3.0344   27.8935 C.ar    1  UNL1        0.0221
     14 C           8.5933   -2.2793   27.6782 C.ar    1  UNL1        0.0026
     15 C           8.6987   -1.2873   26.5580 C.ar    1  UNL1        0.0367
     16 C           7.2243   -0.4501   23.1435 C.3     1  UNL1        0.2525
     17 O           7.6316   -0.0584   24.5330 O.3     1  UNL1       -0.4714
     18 C           7.6445   -5.0132   27.9709 C.ar    1  UNL1        0.0221
     19 C           9.1014   -5.1760   27.6533 C.ar    1  UNL1        0.0026
     20 C           9.5360   -6.1626   26.6105 C.ar    1  UNL1        0.0367
     21 C           8.5137   -6.9865   25.8852 C.ar    1  UNL1        0.1387
     22 C           7.0568   -6.8237   26.2027 C.ar    1  UNL1        0.0367
     23 C           6.6222   -5.8370   27.2456 C.ar    1  UNL1        0.0026
     24 O           8.9483   -7.9732   24.8423 O.3     1  UNL1       -0.4714
     25 C           9.4306   -7.4895   23.5069 C.3     1  UNL1        0.2525
     26 C           6.0893   -2.4265   32.3678 C.3     1  UNL1        0.1410
     27 C           7.0322   -1.4132   32.9457 C.3     1  UNL1        0.0377
     28 C           6.5938   -0.5470   34.0891 C.3     1  UNL1        0.0033
     29 C           5.2123   -0.6941   34.6547 C.3     1  UNL1        0.0002
     30 C           4.2693   -1.7074   34.0768 C.3     1  UNL1        0.0033
     31 C           4.7078   -2.5736   32.9333 C.3     1  UNL1        0.0377
@<TRIPOS>BOND
     1    16    17    1
     2    17    10    1
     3    10    11   ar
     4    11    12   ar
     5    12    13   ar
     6    13     1    1
     7     1    18    1
     8    18    19   ar
     9    19    20   ar
    10    20    21   ar
    11    21    24    1
    12    24    25    1
    13    21    22   ar
    14    22    23   ar
    15     1     2    1
    16     2     3    1
    17     3     4    2
    18     3     5    1
    19     5    26    1
    20    26    27    1
    21    27    28    1
    22    28    29    1
    23    29    30    1
    24    30    31    1
    25     5     6   am
    26     6     7    2
    27    13    14   ar
    28    14    15   ar
    29    15    10   ar
    30     6     1    1
    31    23    18   ar
    32    31    26    1
    33     2     8    1
    34     4     9    1
@<TRIPOS>MOLECULE
*****
 31 34 0 0 0
SMALL
GASTEIGER

@<TRIPOS>ATOM
      1 C          -6.4354  -18.7409   21.7644 C.3     1  UNL1        0.2238
      2 N          -6.0946  -17.9223   22.9743 N.pl3   1  UNL1       -0.2150
      3 C          -4.6524  -17.5225   22.8722 C.2     1  UNL1        0.3732
      4 N          -3.8939  -16.6963   23.8683 N.2     1  UNL1       -0.1329
      5 N          -4.1019  -18.0940   21.5993 N.am    1  UNL1       -0.1486
      6 C          -5.2038  -18.8470   20.9146 C.2     1  UNL1        0.3256
      7 O          -5.0936  -19.5778   19.6094 O.2     1  UNL1       -0.2524
      8 H          -6.7095  -17.6885   23.7068 H       1  UNL1        0.2462
      9 H          -4.3450  -16.3648   24.6781 H       1  UNL1        0.3058
     10 C          -8.3121  -21.2393   18.5262 C.ar    1  UNL1        0.1387
     11 C          -8.8214  -19.8542   18.7951 C.ar    1  UNL1        0.0367
     12 C          -8.1958  -19.0215   19.8745 C.ar    1  UNL1        0.0026
     13 C          -7.0609  -19.5737   20.6850 C.ar    1  UNL1        0.0221
     14 C          -6.5517  -20.9587   20.4162 C.ar    1  UNL1        0.0026
     15 C          -7.1773  -21.7915   19.3368 C.ar    1  UNL1        0.0367
     16 C          -9.3847  -21.4290   16.1676 C.3     1  UNL1        0.2525
     17 O          -8.9377  -22.0720   17.4468 O.3     1  UNL1       -0.4714
     18 C          -7.7977  -18.8089   22.3886 C.ar    1  UNL1        0.0221
     19 C          -8.6306  -17.5672   22.5083 C.ar    1  UNL1        0.0026
     20 C          -9.9928  -17.6352   23.1324 C.ar    1  UNL1        0.0367
     21 C         -10.5222  -18.9449   23.6368 C.ar    1  UNL1        0.1387
     22 C          -9.6893  -20.1866   23.5171 C.ar    1  UNL1        0.0367
     23 C          -8.3270  -20.1186   22.8930 C.ar    1  UNL1        0.0026
     24 O         -11.8845  -19.0129   24.2609 O.3     1  UNL1       -0.4714
     25 C         -12.9917  -18.1444   23.7413 C.3     1  UNL1        0.2525
     26 C          -2.6963  -17.9396   21.0989 C.3     1  UNL1        0.1410
     27 C          -2.0545  -16.5841   21.0719 C.3     1  UNL1        0.0377
     28 C          -0.6490  -16.4296   20.5715 C.3     1  UNL1        0.0033
     29 C           0.1150  -17.6306   20.0982 C.3     1  UNL1        0.0002
     30 C          -0.5268  -18.9861   20.1253 C.3     1  UNL1        0.0033
     31 C          -1.9325  -19.1406   20.6256 C.3     1  UNL1        0.0377
@<TRIPOS>BOND
     1    16    17    1
     2    17    10    1
     3    10    11   ar
     4    11    12   ar
     5    12    13   ar
     6    13     1    1
     7     1    18    1
     8    18    19   ar
     9    19    20   ar
    10    20    21   ar
    11    21    24    1
    12    24    25    1
    13    21    22   ar
    14    22    23   ar
    15     1     2    1
    16     2     3    1
    17     3     4    2
    18     3     5    1
    19     5    26    1
    20    26    27    1
    21    27    28    1
    22    28    29    1
    23    29    30    1
    24    30    31    1
    25     5     6   am
    26     6     7    2
    27    13    14   ar
    28    14    15   ar
    29    15    10   ar
    30     6     1    1
    31    23    18   ar
    32    31    26    1
    33     2     8    1
    34     4     9    1
@<TRIPOS>MOLECULE
*****
 31 34 0 0 0
SMALL
GASTEIGER

@<TRIPOS>ATOM
      1 C           4.2686    0.8206   34.0371 C.3     1  UNL1        0.2238
      2 N           3.1331    0.6093   33.0800 N.pl3   1  UNL1       -0.2150
      3 C           2.1383    1.7121   33.2905 C.2     1  UNL1        0.3732
      4 N           0.8491    1.8908   32.5447 N.2     1  UNL1       -0.1329
      5 N           2.6590    2.6049   34.3776 N.am    1  UNL1       -0.1486
      6 C           3.9756    2.0539   34.8390 C.2     1  UNL1        0.3256
      7 O           4.8463    2.6344   35.9137 O.2     1  UNL1       -0.2524
      8 H           3.0546   -0.1243   32.4282 H       1  UNL1        0.2462
      9 H           0.5926    1.2484   31.8442 H       1  UNL1        0.3058
     10 C           8.0230    0.6745   36.5136 C.ar    1  UNL1        0.1387
     11 C           7.9675    1.5340   35.2856 C.ar    1  UNL1        0.0367
     12 C           6.7161    1.5828   34.4601 C.ar    1  UNL1        0.0026
     13 C           5.5201    0.7719   34.8626 C.ar    1  UNL1        0.0221
     14 C           5.5755   -0.0877   36.0906 C.ar    1  UNL1        0.0026
     15 C           6.8270   -0.1364   36.9161 C.ar    1  UNL1        0.0367
     16 C           9.1984    0.7967   38.8273 C.3     1  UNL1        0.2525
     17 O           9.2745    0.6258   37.3391 O.3     1  UNL1       -0.4714
     18 C           4.8233   -0.4229   33.4078 C.ar    1  UNL1        0.0221
     19 C           4.2724   -1.7654   33.7873 C.ar    1  UNL1        0.0026
     20 C           4.8270   -3.0089   33.1580 C.ar    1  UNL1        0.0367
     21 C           5.9326   -2.9098   32.1491 C.ar    1  UNL1        0.1387
     22 C           6.4835   -1.5674   31.7695 C.ar    1  UNL1        0.0367
     23 C           5.9288   -0.3238   32.3988 C.ar    1  UNL1        0.0026
     24 O           6.4872   -4.1533   31.5197 O.3     1  UNL1       -0.4714
     25 C           6.7995   -4.1763   30.0527 C.3     1  UNL1        0.2525
     26 C           1.9819    3.8330   34.9098 C.3     1  UNL1        0.1410
     27 C           1.7433    3.9789   36.3835 C.3     1  UNL1        0.0377
     28 C           1.0662    5.2069   36.9158 C.3     1  UNL1        0.0033
     29 C           0.6277    6.2893   35.9743 C.3     1  UNL1        0.0002
     30 C           0.8663    6.1435   34.5006 C.3     1  UNL1        0.0033
     31 C           1.5434    4.9153   33.9683 C.3     1  UNL1        0.0377
@<TRIPOS>BOND
     1    16    17    1
     2    17    10    1
     3    10    11   ar
     4    11    12   ar
     5    12    13   ar
     6    13     1    1
     7     1    18    1
     8    18    19   ar
     9    19    20   ar
    10    20    21   ar
    11    21    24    1
    12    24    25    1
    13    21    22   ar
    14    22    23   ar
    15     1     2    1
    16     2     3    1
    17     3     4    2
    18     3     5    1
    19     5    26    1
    20    26    27    1
    21    27    28    1
    22    28    29    1
    23    29    30    1
    24    30    31    1
    25     5     6   am
    26     6     7    2
    27    13    14   ar
    28    14    15   ar
    29    15    10   ar
    30     6     1    1
    31    23    18   ar
    32    31    26    1
    33     2     8    1
    34     4     9    1
@<TRIPOS>MOLECULE
*****
 31 34 0 0 0
SMALL
GASTEIGER

@<TRIPOS>ATOM
      1 C          -2.3098    3.8369   23.3774 C.3     1  UNL1        0.2238
      2 N          -1.0882    3.5897   24.2119 N.pl3   1  UNL1       -0.2150
      3 C          -0.0853    2.8664   23.3626 C.2     1  UNL1        0.3732
      4 N           1.2798    2.4211   23.7965 N.2     1  UNL1       -0.1329
      5 N          -0.6872    2.6666   22.0032 N.am    1  UNL1       -0.1486
      6 C          -2.0620    3.2664   22.0124 C.2     1  UNL1        0.3256
      7 O          -3.0207    3.2913   20.8590 O.2     1  UNL1       -0.2524
      8 H          -0.9660    3.8555   25.1519 H       1  UNL1        0.2462
      9 H           1.5869    2.5992   24.7147 H       1  UNL1        0.3058
     10 C          -6.3049    4.9865   21.6547 C.ar    1  UNL1        0.1387
     11 C          -6.1391    3.6673   22.3489 C.ar    1  UNL1        0.0367
     12 C          -4.8074    3.2840   22.9231 C.ar    1  UNL1        0.0026
     13 C          -3.6415    4.2201   22.8031 C.ar    1  UNL1        0.0221
     14 C          -3.8073    5.5394   22.1090 C.ar    1  UNL1        0.0026
     15 C          -5.1390    5.9226   21.5348 C.ar    1  UNL1        0.0367
     16 C          -7.7139    6.0022   19.7226 C.3     1  UNL1        0.2525
     17 O          -7.6366    5.3698   21.0805 O.3     1  UNL1       -0.4714
     18 C          -2.8360    4.4875   24.6223 C.ar    1  UNL1        0.0221
     19 C          -2.5513    5.9357   24.8895 C.ar    1  UNL1        0.0026
     20 C          -3.0774    6.5863   26.1344 C.ar    1  UNL1        0.0367
     21 C          -3.8884    5.7886   27.1121 C.ar    1  UNL1        0.1387
     22 C          -4.1732    4.3404   26.8450 C.ar    1  UNL1        0.0367
     23 C          -3.6470    3.6898   25.6000 C.ar    1  UNL1        0.0026
     24 O          -4.4146    6.4392   28.3571 O.3     1  UNL1       -0.4714
     25 C          -3.6017    7.4883   29.0561 C.3     1  UNL1        0.2525
     26 C          -0.0297    1.9865   20.8392 C.3     1  UNL1        0.1410
     27 C           0.2619    0.5162   20.8965 C.3     1  UNL1        0.0377
     28 C           0.9195   -0.1640   19.7326 C.3     1  UNL1        0.0033
     29 C           1.2854    0.6261   18.5111 C.3     1  UNL1        0.0002
     30 C           0.9938    2.0963   18.4537 C.3     1  UNL1        0.0033
     31 C           0.3362    2.7766   19.6178 C.3     1  UNL1        0.0377
@<TRIPOS>BOND
     1    16    17    1
     2    17    10    1
     3    10    11   ar
     4    11    12   ar
     5    12    13   ar
     6    13     1    1
     7     1    18    1
     8    18    19   ar
     9    19    20   ar
    10    20    21   ar
    11    21    24    1
    12    24    25    1
    13    21    22   ar
    14    22    23   ar
    15     1     2    1
    16     2     3    1
    17     3     4    2
    18     3     5    1
    19     5    26    1
    20    26    27    1
    21    27    28    1
    22    28    29    1
    23    29    30    1
    24    30    31    1
    25     5     6   am
    26     6     7    2
    27    13    14   ar
    28    14    15   ar
    29    15    10   ar
    30     6     1    1
    31    23    18   ar
    32    31    26    1
    33     2     8    1
    34     4     9    1
@<TRIPOS>MOLECULE
*****
 31 34 0 0 0
SMALL
GASTEIGER

@<TRIPOS>ATOM
      1 C           3.8272   -0.8813   22.6046 C.3     1  UNL1        0.2238
      2 N           3.0942   -0.8295   23.9122 N.pl3   1  UNL1       -0.2150
      3 C           3.9434   -1.5069   24.9467 C.2     1  UNL1        0.3732
      4 N           3.5957   -1.6829   26.3952 N.2     1  UNL1       -0.1329
      5 N           5.2011   -1.9772   24.2784 N.am    1  UNL1       -0.1486
      6 C           5.1293   -1.5906   22.8309 C.2     1  UNL1        0.3256
      7 O           6.1760   -1.8652   21.7920 O.2     1  UNL1       -0.2524
      8 H           2.2108   -0.4224   24.0647 H       1  UNL1        0.2462
      9 H           2.7415   -1.3375   26.7420 H       1  UNL1        0.3058
     10 C           5.2726   -0.5786   18.3538 C.ar    1  UNL1        0.1387
     11 C           5.4772    0.5680   19.2990 C.ar    1  UNL1        0.0367
     12 C           4.9953    0.4671   20.7159 C.ar    1  UNL1        0.0026
     13 C           4.3090   -0.7804   21.1876 C.ar    1  UNL1        0.0221
     14 C           4.1045   -1.9270   20.2425 C.ar    1  UNL1        0.0026
     15 C           4.5863   -1.8261   18.8255 C.ar    1  UNL1        0.0367
     16 C           6.4629    0.7600   16.4720 C.3     1  UNL1        0.2525
     17 O           5.7545   -0.4777   16.9369 O.3     1  UNL1       -0.4714
     18 C           2.6257   -0.1509   22.0820 C.ar    1  UNL1        0.0221
     19 C           1.7973   -0.7561   20.9878 C.ar    1  UNL1        0.0026
     20 C           0.5959   -0.0257   20.4653 C.ar    1  UNL1        0.0367
     21 C           0.2229    1.3100   21.0370 C.ar    1  UNL1        0.1387
     22 C           1.0513    1.9152   22.1312 C.ar    1  UNL1        0.0367
     23 C           2.2527    1.1848   22.6538 C.ar    1  UNL1        0.0026
     24 O          -0.9785    2.0404   20.5145 O.3     1  UNL1       -0.4714
     25 C          -1.2286    3.4619   20.9234 C.3     1  UNL1        0.2525
     26 C           6.3321   -2.7062   24.9412 C.3     1  UNL1        0.1410
     27 C           7.2234   -1.9863   25.9094 C.3     1  UNL1        0.0377
     28 C           8.3544   -2.7152   26.5723 C.3     1  UNL1        0.0033
     29 C           8.5942   -4.1642   26.2671 C.3     1  UNL1        0.0002
     30 C           7.7029   -4.8841   25.2989 C.3     1  UNL1        0.0033
     31 C           6.5718   -4.1552   24.6360 C.3     1  UNL1        0.0377
@<TRIPOS>BOND
     1    16    17    1
     2    17    10    1
     3    10    11   ar
     4    11    12   ar
     5    12    13   ar
     6    13     1    1
     7     1    18    1
     8    18    19   ar
     9    19    20   ar
    10    20    21   ar
    11    21    24    1
    12    24    25    1
    13    21    22   ar
    14    22    23   ar
    15     1     2    1
    16     2     3    1
    17     3     4    2
    18     3     5    1
    19     5    26    1
    20    26    27    1
    21    27    28    1
    22    28    29    1
    23    29    30    1
    24    30    31    1
    25     5     6   am
    26     6     7    2
    27    13    14   ar
    28    14    15   ar
    29    15    10   ar
    30     6     1    1
    31    23    18   ar
    32    31    26    1
    33     2     8    1
    34     4     9    1
@<TRIPOS>MOLECULE
*****
 31 34 0 0 0
SMALL
GASTEIGER

@<TRIPOS>ATOM
      1 C           3.4136   -0.1062   19.3373 C.3     1  UNL1        0.2238
      2 N           2.3514   -0.8723   20.0685 N.pl3   1  UNL1       -0.2150
      3 C           1.1041   -0.0391   20.0804 C.2     1  UNL1        0.3732
      4 N          -0.2048   -0.4201   20.7063 N.2     1  UNL1       -0.1329
      5 N           1.3956    1.2421   19.3567 N.am    1  UNL1       -0.1486
      6 C           2.8229    1.2006   18.8975 C.2     1  UNL1        0.3256
      7 O           3.5346    2.2769   18.1326 O.2     1  UNL1       -0.2524
      8 H           2.4546   -1.7653   20.4700 H       1  UNL1        0.2462
      9 H          -0.2986   -1.2879   21.1617 H       1  UNL1        0.3058
     10 C           7.1335    1.4404   17.3322 C.ar    1  UNL1        0.1387
     11 C           6.8524    1.7900   18.7635 C.ar    1  UNL1        0.0367
     12 C           5.6124    1.2745   19.4319 C.ar    1  UNL1        0.0026
     13 C           4.6536    0.4094   18.6690 C.ar    1  UNL1        0.0221
     14 C           4.9347    0.0597   17.2377 C.ar    1  UNL1        0.0026
     15 C           6.1747    0.5752   16.5693 C.ar    1  UNL1        0.0367
     16 C           9.3456    2.7992   17.4344 C.3     1  UNL1        0.2525
     17 O           8.3735    1.9559   16.6638 O.3     1  UNL1       -0.4714
     18 C           4.2636   -1.3051   19.6375 C.ar    1  UNL1        0.0221
     19 C           5.2407   -1.2661   20.7749 C.ar    1  UNL1        0.0026
     20 C           6.0905   -2.4650   21.0750 C.ar    1  UNL1        0.0367
     21 C           5.9634   -3.7031   20.2377 C.ar    1  UNL1        0.1387
     22 C           4.9863   -3.7422   19.1003 C.ar    1  UNL1        0.0367
     23 C           4.1364   -2.5432   18.8002 C.ar    1  UNL1        0.0026
     24 O           6.8133   -4.9020   20.5378 O.3     1  UNL1       -0.4714
     25 C           8.1852   -4.7228   21.1176 C.3     1  UNL1        0.2525
     26 C           0.4293    2.3671   19.1318 C.3     1  UNL1        0.1410
     27 C           0.1568    2.8547   17.7397 C.3     1  UNL1        0.0377
     28 C          -0.8094    3.9797   17.5147 C.3     1  UNL1        0.0033
     29 C          -1.5033    4.6172   18.6819 C.3     1  UNL1        0.0002
     30 C          -1.2308    4.1296   20.0740 C.3     1  UNL1        0.0033
     31 C          -0.2645    3.0045   20.2990 C.3     1  UNL1        0.0377
@<TRIPOS>BOND
     1    16    17    1
     2    17    10    1
     3    10    11   ar
     4    11    12   ar
     5    12    13   ar
     6    13     1    1
     7     1    18    1
     8    18    19   ar
     9    19    20   ar
    10    20    21   ar
    11    21    24    1
    12    24    25    1
    13    21    22   ar
    14    22    23   ar
    15     1     2    1
    16     2     3    1
    17     3     4    2
    18     3     5    1
    19     5    26    1
    20    26    27    1
    21    27    28    1
    22    28    29    1
    23    29    30    1
    24    30    31    1
    25     5     6   am
    26     6     7    2
    27    13    14   ar
    28    14    15   ar
    29    15    10   ar
    30     6     1    1
    31    23    18   ar
    32    31    26    1
    33     2     8    1
    34     4     9    1
