@<TRIPOS>MOLECULE
*****
 41 45 0 0 0
SMALL
GASTEIGER

@<TRIPOS>ATOM
      1 C          -1.7913    4.1434   18.1344 C.ar    1  UNL1        0.2400
      2 N          -0.4655    3.7798   17.5345 N.ar    1  UNL1       -0.2090
      3 C           0.4349    2.8080   18.2381 C.ar    1  UNL1        0.1021
      4 C           0.0094    2.1998   19.5415 C.ar    1  UNL1        0.0208
      5 C          -1.3165    2.5634   20.1414 C.ar    1  UNL1        0.0221
      6 C          -2.2168    3.5351   19.4379 C.ar    1  UNL1        0.1178
      7 C           0.9097    1.2279   20.2451 C.ar    1  UNL1        0.0047
      8 C           1.5733    0.1262   19.4732 C.ar    1  UNL1        0.0385
      9 C           2.4736   -0.8455   20.1768 C.ar    1  UNL1        0.1561
     10 C           2.7103   -0.7156   21.6523 C.ar    1  UNL1        0.1191
     11 N           3.6107   -1.6874   22.3559 N.ar    1  UNL1       -0.2109
     12 C           3.8474   -1.5574   23.8314 C.ar    1  UNL1        0.2134
     13 N           4.7477   -2.5292   24.5350 N.pl3   1  UNL1       -0.3275
     14 N           3.1838   -0.4556   24.6033 N.ar    1  UNL1       -0.2184
     15 C           2.2835    0.5161   23.8997 C.ar    1  UNL1        0.0637
     16 C           1.6199    1.6179   24.6716 C.3     1  UNL1        0.0522
     17 C           2.0468    0.3862   22.4242 C.ar    1  UNL1        0.0344
     18 C           1.1465    1.3579   21.7206 C.ar    1  UNL1        0.0029
     19 H           5.1833   -3.2523   24.0284 H       1  UNL1        0.1452
     20 H           4.9031   -2.4439   25.5034 H       1  UNL1        0.1452
     21 O           3.1372   -1.9473   19.4049 O.3     1  UNL1       -0.4750
     22 C           4.4014   -1.6746   18.6450 C.3     1  UNL1        0.1979
     23 C           4.9228   -0.3226   18.2573 C.3     1  UNL1        0.0782
     24 C           6.2097   -0.5184   17.5120 C.3     1  UNL1        0.1461
     25 O           6.4837   -1.9913   17.4390 O.3     1  UNL1       -0.3498
     26 C           5.3660   -2.7059   18.1393 C.3     1  UNL1        0.1855
     27 C          -3.7984    4.6115   16.5525 C.3     1  UNL1        0.2543
     28 O          -2.6917    5.1152   17.4308 O.3     1  UNL1       -0.4553
     29 N          -3.5427    3.8987   20.0378 N.pl3   1  UNL1       -0.2104
     30 H          -4.3006    4.1299   19.4535 H       1  UNL1        0.1739
     31 S          -3.7139    3.9101   21.5279 S.O2    1  UNL1        0.0759
     32 O          -2.9811    5.2168   21.6021 O.2     1  UNL1       -0.1499
     33 O          -4.4466    2.6034   21.4537 O.2     1  UNL1       -0.1499
     34 C          -3.8850    3.9215   23.0181 C.ar    1  UNL1        0.1526
     35 C          -5.2268    4.2236   23.6166 C.ar    1  UNL1        0.0248
     36 C          -5.3980    4.2350   25.1068 C.ar    1  UNL1        0.0312
     37 C          -4.2274    3.9443   25.9984 C.ar    1  UNL1        0.1425
     38 F          -4.3985    3.9557   27.4886 F       1  UNL1       -0.2041
     39 C          -2.8856    3.6422   25.3999 C.ar    1  UNL1        0.0606
     40 C          -2.7144    3.6307   23.9097 C.ar    1  UNL1        0.1611
     41 F          -1.3725    3.3286   23.3112 F       1  UNL1       -0.2027
@<TRIPOS>BOND
     1    27    28    1
     2    28     1    1
     3     1     2   ar
     4     2     3   ar
     5     3     4   ar
     6     4     7    1
     7     7     8   ar
     8     8     9   ar
     9     9    21    1
    10    22    21    1
    11    22    23    1
    12    23    24    1
    13    24    25    1
    14    25    26    1
    15     9    10   ar
    16    10    11   ar
    17    11    12   ar
    18    12    13    1
    19    12    14   ar
    20    14    15   ar
    21    15    16    1
    22    15    17   ar
    23    17    18   ar
    24     4     5   ar
    25     5     6   ar
    26     6    29    1
    27    29    31    1
    28    31    32    2
    29    31    33    2
    30    31    34    1
    31    34    35   ar
    32    35    36   ar
    33    36    37   ar
    34    37    38    1
    35    37    39   ar
    36    39    40   ar
    37    40    41    1
    38     6     1   ar
    39    40    34   ar
    40    18     7   ar
    41    26    22    1
    42    17    10   ar
    43    13    19    1
    44    13    20    1
    45    29    30    1
@<TRIPOS>MOLECULE
*****
 41 45 0 0 0
SMALL
GASTEIGER

@<TRIPOS>ATOM
      1 C           6.8260   -2.9985   21.2438 C.ar    1  UNL1        0.2400
      2 N           8.0518   -2.7519   22.0724 N.ar    1  UNL1       -0.2090
      3 C           7.9761   -2.8389   23.5680 C.ar    1  UNL1        0.1021
      4 C           6.6747   -3.1725   24.2350 C.ar    1  UNL1        0.0208
      5 C           5.4489   -3.4191   23.4064 C.ar    1  UNL1        0.0221
      6 C           5.5245   -3.3321   21.9109 C.ar    1  UNL1        0.1178
      7 C           6.5990   -3.2595   25.7306 C.ar    1  UNL1        0.0047
      8 C           6.1370   -2.0762   26.5282 C.ar    1  UNL1        0.0385
      9 C           6.0613   -2.1632   28.0238 C.ar    1  UNL1        0.1561
     10 C           6.4477   -3.4335   28.7216 C.ar    1  UNL1        0.1191
     11 N           6.3720   -3.5205   30.2172 N.ar    1  UNL1       -0.2109
     12 C           6.7584   -4.7909   30.9151 C.ar    1  UNL1        0.2134
     13 N           6.6827   -4.8779   32.4106 N.pl3   1  UNL1       -0.3275
     14 N           7.2204   -5.9742   30.1173 N.ar    1  UNL1       -0.2184
     15 C           7.2961   -5.8871   28.6218 C.ar    1  UNL1        0.0637
     16 C           7.7581   -7.0704   27.8241 C.3     1  UNL1        0.0522
     17 C           6.9097   -4.6168   27.9240 C.ar    1  UNL1        0.0344
     18 C           6.9854   -4.5298   26.4284 C.ar    1  UNL1        0.0029
     19 H           6.3795   -4.1013   32.9342 H       1  UNL1        0.1452
     20 H           6.9363   -5.7117   32.8686 H       1  UNL1        0.1452
     21 O           5.5993   -0.9799   28.8215 O.3     1  UNL1       -0.4750
     22 C           4.1428   -0.8113   29.1382 C.3     1  UNL1        0.1979
     23 C           3.0293   -0.7084   28.1384 C.3     1  UNL1        0.0782
     24 C           1.7424   -0.5496   28.8925 C.3     1  UNL1        0.1461
     25 O           2.0606   -0.5543   30.3583 O.3     1  UNL1       -0.3498
     26 C           3.5441   -0.7161   30.5102 C.3     1  UNL1        0.1855
     27 C           7.9724   -2.0864   19.0982 C.3     1  UNL1        0.2543
     28 O           6.9016   -2.9115   19.7483 O.3     1  UNL1       -0.4553
     29 N           4.2987   -3.5787   21.0823 N.pl3   1  UNL1       -0.2104
     30 H           3.9670   -4.4969   20.9550 H       1  UNL1        0.1739
     31 S           3.5781   -2.4264   20.4476 S.O2    1  UNL1        0.0759
     32 O           3.7032   -1.6460   21.7224 O.2     1  UNL1       -0.1499
     33 O           3.4530   -3.2068   19.1728 O.2     1  UNL1       -0.1499
     34 C           2.8575   -1.2740   19.8129 C.ar    1  UNL1        0.1526
     35 C           1.4612   -0.9341   20.2428 C.ar    1  UNL1        0.0248
     36 C           0.7406    0.2183   19.6082 C.ar    1  UNL1        0.0312
     37 C           1.4163    1.0307   18.5436 C.ar    1  UNL1        0.1425
     38 F           0.6957    2.1831   17.9090 F       1  UNL1       -0.2041
     39 C           2.8126    0.6908   18.1137 C.ar    1  UNL1        0.0606
     40 C           3.5332   -0.4615   18.7484 C.ar    1  UNL1        0.1611
     41 F           4.9295   -0.8014   18.3185 F       1  UNL1       -0.2027
@<TRIPOS>BOND
     1    27    28    1
     2    28     1    1
     3     1     2   ar
     4     2     3   ar
     5     3     4   ar
     6     4     7    1
     7     7     8   ar
     8     8     9   ar
     9     9    21    1
    10    22    21    1
    11    22    23    1
    12    23    24    1
    13    24    25    1
    14    25    26    1
    15     9    10   ar
    16    10    11   ar
    17    11    12   ar
    18    12    13    1
    19    12    14   ar
    20    14    15   ar
    21    15    16    1
    22    15    17   ar
    23    17    18   ar
    24     4     5   ar
    25     5     6   ar
    26     6    29    1
    27    29    31    1
    28    31    32    2
    29    31    33    2
    30    31    34    1
    31    34    35   ar
    32    35    36   ar
    33    36    37   ar
    34    37    38    1
    35    37    39   ar
    36    39    40   ar
    37    40    41    1
    38     6     1   ar
    39    40    34   ar
    40    18     7   ar
    41    26    22    1
    42    17    10   ar
    43    13    19    1
    44    13    20    1
    45    29    30    1
@<TRIPOS>MOLECULE
*****
 41 45 0 0 0
SMALL
GASTEIGER

@<TRIPOS>ATOM
      1 C          -1.1464    3.3049   21.3297 C.ar    1  UNL1        0.2400
      2 N          -1.7312    3.4530   22.7031 N.ar    1  UNL1       -0.2090
      3 C          -1.0275    2.8569   23.8861 C.ar    1  UNL1        0.1021
      4 C           0.2608    2.1126   23.6958 C.ar    1  UNL1        0.0208
      5 C           0.8456    1.9645   22.3224 C.ar    1  UNL1        0.0221
      6 C           0.1420    2.5606   21.1394 C.ar    1  UNL1        0.1178
      7 C           0.9645    1.5165   24.8789 C.ar    1  UNL1        0.0047
      8 C           2.4091    1.1266   24.7741 C.ar    1  UNL1        0.0385
      9 C           3.1127    0.5305   25.9571 C.ar    1  UNL1        0.1561
     10 C           2.3716    0.3243   27.2449 C.ar    1  UNL1        0.1191
     11 N           3.0753   -0.2718   28.4280 N.ar    1  UNL1       -0.2109
     12 C           2.3343   -0.4780   29.7158 C.ar    1  UNL1        0.2134
     13 N           3.0378   -1.0741   30.8988 N.pl3   1  UNL1       -0.3275
     14 N           0.8896   -0.0880   29.8205 N.ar    1  UNL1       -0.2184
     15 C           0.1860    0.5081   28.6375 C.ar    1  UNL1        0.0637
     16 C          -1.2586    0.8981   28.7422 C.3     1  UNL1        0.0522
     17 C           0.9270    0.7143   27.3497 C.ar    1  UNL1        0.0344
     18 C           0.2235    1.3104   26.1667 C.ar    1  UNL1        0.0029
     19 H           3.9860   -1.3300   30.8301 H       1  UNL1        0.1452
     20 H           2.5515   -1.2094   31.7440 H       1  UNL1        0.1452
     21 O           4.5573    0.1405   25.8524 O.3     1  UNL1       -0.4750
     22 C           4.9401   -1.1469   25.1846 C.3     1  UNL1        0.1979
     23 C           4.3609   -1.6853   23.9100 C.3     1  UNL1        0.0782
     24 C           5.0321   -2.9931   23.6118 C.3     1  UNL1        0.1461
     25 O           6.0262   -3.2632   24.7022 O.3     1  UNL1       -0.3498
     26 C           5.9693   -2.1222   25.6742 C.3     1  UNL1        0.1855
     27 C          -3.2977    3.5939   19.9021 C.3     1  UNL1        0.2543
     28 O          -1.8500    3.9009   20.1467 O.3     1  UNL1       -0.4553
     29 N           0.7268    2.4125   19.7661 N.pl3   1  UNL1       -0.2104
     30 H           0.5320    3.0841   19.0731 H       1  UNL1        0.1739
     31 S           1.6082    1.2411   19.4486 S.O2    1  UNL1        0.0759
     32 O           0.3966    0.3692   19.3016 O.2     1  UNL1       -0.1499
     33 O           2.8199    2.1130   19.5956 O.2     1  UNL1       -0.1499
     34 C           2.4897    0.0696   19.1310 C.ar    1  UNL1        0.1526
     35 C           3.1519   -0.0286   17.7887 C.ar    1  UNL1        0.0248
     36 C           4.0333   -1.2000   17.4711 C.ar    1  UNL1        0.0312
     37 C           4.2525   -2.2732   18.4959 C.ar    1  UNL1        0.1425
     38 F           5.1340   -3.4446   18.1784 F       1  UNL1       -0.2041
     39 C           3.5904   -2.1749   19.8383 C.ar    1  UNL1        0.0606
     40 C           2.7090   -1.0035   20.1558 C.ar    1  UNL1        0.1611
     41 F           2.0468   -0.9053   21.4982 F       1  UNL1       -0.2027
@<TRIPOS>BOND
     1    27    28    1
     2    28     1    1
     3     1     2   ar
     4     2     3   ar
     5     3     4   ar
     6     4     7    1
     7     7     8   ar
     8     8     9   ar
     9     9    21    1
    10    22    21    1
    11    22    23    1
    12    23    24    1
    13    24    25    1
    14    25    26    1
    15     9    10   ar
    16    10    11   ar
    17    11    12   ar
    18    12    13    1
    19    12    14   ar
    20    14    15   ar
    21    15    16    1
    22    15    17   ar
    23    17    18   ar
    24     4     5   ar
    25     5     6   ar
    26     6    29    1
    27    29    31    1
    28    31    32    2
    29    31    33    2
    30    31    34    1
    31    34    35   ar
    32    35    36   ar
    33    36    37   ar
    34    37    38    1
    35    37    39   ar
    36    39    40   ar
    37    40    41    1
    38     6     1   ar
    39    40    34   ar
    40    18     7   ar
    41    26    22    1
    42    17    10   ar
    43    13    19    1
    44    13    20    1
    45    29    30    1
@<TRIPOS>MOLECULE
*****
 41 45 0 0 0
SMALL
GASTEIGER

@<TRIPOS>ATOM
      1 C           1.2273    0.5242   29.2643 C.ar    1  UNL1        0.2400
      2 N          -0.2153    0.9331   29.2210 N.ar    1  UNL1       -0.2090
      3 C          -0.7930    1.5131   27.9640 C.ar    1  UNL1        0.1021
      4 C           0.0718    1.6841   26.7504 C.ar    1  UNL1        0.0208
      5 C           1.5143    1.2752   26.7938 C.ar    1  UNL1        0.0221
      6 C           2.0921    0.6953   28.0507 C.ar    1  UNL1        0.1178
      7 C          -0.5059    2.2641   25.4934 C.ar    1  UNL1        0.0047
      8 C           0.2748    2.2083   24.2139 C.ar    1  UNL1        0.0385
      9 C          -0.3030    2.7882   22.9570 C.ar    1  UNL1        0.1561
     10 C          -1.6614    3.4239   22.9796 C.ar    1  UNL1        0.1191
     11 N          -2.2391    4.0039   21.7226 N.ar    1  UNL1       -0.2109
     12 C          -3.5976    4.6396   21.7453 C.ar    1  UNL1        0.2134
     13 N          -4.1753    5.2195   20.4884 N.pl3   1  UNL1       -0.3275
     14 N          -4.3783    4.6954   23.0250 N.ar    1  UNL1       -0.2184
     15 C          -3.8006    4.1154   24.2819 C.ar    1  UNL1        0.0637
     16 C          -4.5812    4.1712   25.5614 C.3     1  UNL1        0.0522
     17 C          -2.4421    3.4797   24.2592 C.ar    1  UNL1        0.0344
     18 C          -1.8644    2.8998   25.5161 C.ar    1  UNL1        0.0029
     19 H          -3.6629    5.1829   19.6486 H       1  UNL1        0.1452
     20 H          -5.0669    5.6368   20.5033 H       1  UNL1        0.1452
     21 O           0.4777    2.7324   21.6773 O.3     1  UNL1       -0.4750
     22 C           1.0587    1.4311   21.2093 C.3     1  UNL1        0.1979
     23 C           0.3154    0.3380   20.5004 C.3     1  UNL1        0.0782
     24 C           1.2822   -0.7743   20.2210 C.3     1  UNL1        0.1461
     25 O           2.6231   -0.3686   20.7572 O.3     1  UNL1       -0.3498
     26 C           2.4849    0.9944   21.3680 C.3     1  UNL1        0.1855
     27 C           2.4089    0.8475   31.5554 C.3     1  UNL1        0.2543
     28 O           1.8050   -0.0557   30.5212 O.3     1  UNL1       -0.4553
     29 N           3.5346    0.2864   28.0940 N.pl3   1  UNL1       -0.2104
     30 H           4.1136    0.6008   28.8256 H       1  UNL1        0.1739
     31 S           4.0951   -0.6013   27.0227 S.O2    1  UNL1        0.0759
     32 O           4.9026    0.5467   26.4938 O.2     1  UNL1       -0.1499
     33 O           3.2875   -1.7494   27.5516 O.2     1  UNL1       -0.1499
     34 C           4.6555   -1.4891   25.9513 C.ar    1  UNL1        0.1526
     35 C           5.8731   -2.3206   26.2272 C.ar    1  UNL1        0.0248
     36 C           6.4336   -3.2084   25.1559 C.ar    1  UNL1        0.0312
     37 C           5.7765   -3.2646   23.8087 C.ar    1  UNL1        0.1425
     38 F           6.3370   -4.1523   22.7373 F       1  UNL1       -0.2041
     39 C           4.5590   -2.4330   23.5328 C.ar    1  UNL1        0.0606
     40 C           3.9985   -1.5453   24.6041 C.ar    1  UNL1        0.1611
     41 F           2.7810   -0.7137   24.3281 F       1  UNL1       -0.2027
@<TRIPOS>BOND
     1    27    28    1
     2    28     1    1
     3     1     2   ar
     4     2     3   ar
     5     3     4   ar
     6     4     7    1
     7     7     8   ar
     8     8     9   ar
     9     9    21    1
    10    22    21    1
    11    22    23    1
    12    23    24    1
    13    24    25    1
    14    25    26    1
    15     9    10   ar
    16    10    11   ar
    17    11    12   ar
    18    12    13    1
    19    12    14   ar
    20    14    15   ar
    21    15    16    1
    22    15    17   ar
    23    17    18   ar
    24     4     5   ar
    25     5     6   ar
    26     6    29    1
    27    29    31    1
    28    31    32    2
    29    31    33    2
    30    31    34    1
    31    34    35   ar
    32    35    36   ar
    33    36    37   ar
    34    37    38    1
    35    37    39   ar
    36    39    40   ar
    37    40    41    1
    38     6     1   ar
    39    40    34   ar
    40    18     7   ar
    41    26    22    1
    42    17    10   ar
    43    13    19    1
    44    13    20    1
    45    29    30    1
@<TRIPOS>MOLECULE
*****
 41 45 0 0 0
SMALL
GASTEIGER

@<TRIPOS>ATOM
      1 C           6.6951   -3.6804   25.3686 C.ar    1  UNL1        0.2400
      2 N           6.2983   -3.0577   26.6742 N.ar    1  UNL1       -0.2090
      3 C           5.2213   -2.0142   26.7108 C.ar    1  UNL1        0.1021
      4 C           4.5413   -1.5934   25.4418 C.ar    1  UNL1        0.0208
      5 C           4.9381   -2.2162   24.1362 C.ar    1  UNL1        0.0221
      6 C           6.0150   -3.2596   24.0995 C.ar    1  UNL1        0.1178
      7 C           3.4643   -0.5499   25.4784 C.ar    1  UNL1        0.0047
      8 C           3.0488    0.0535   26.7873 C.ar    1  UNL1        0.0385
      9 C           1.9719    1.0970   26.8238 C.ar    1  UNL1        0.1561
     10 C           1.3104    1.5370   25.5515 C.ar    1  UNL1        0.1191
     11 N           0.2335    2.5805   25.5881 N.ar    1  UNL1       -0.2109
     12 C          -0.4280    3.0206   24.3157 C.ar    1  UNL1        0.2134
     13 N          -1.5049    4.0640   24.3523 N.pl3   1  UNL1       -0.3275
     14 N          -0.0124    2.4171   23.0068 N.ar    1  UNL1       -0.2184
     15 C           1.0645    1.3736   22.9703 C.ar    1  UNL1        0.0637
     16 C           1.4800    0.7702   21.6614 C.3     1  UNL1        0.0522
     17 C           1.7259    0.9336   24.2426 C.ar    1  UNL1        0.0344
     18 C           2.8028   -0.1099   24.2061 C.ar    1  UNL1        0.0029
     19 H          -1.7776    4.4601   25.2113 H       1  UNL1        0.1452
     20 H          -1.9390    4.3528   23.5172 H       1  UNL1        0.1452
     21 O           1.5563    1.7004   28.1328 O.3     1  UNL1       -0.4750
     22 C           0.3347    1.1917   28.8390 C.3     1  UNL1        0.1979
     23 C          -0.6862    0.2522   28.2688 C.3     1  UNL1        0.0782
     24 C          -1.7324    0.0129   29.3168 C.3     1  UNL1        0.1461
     25 O          -1.3581    0.8045   30.5347 O.3     1  UNL1       -0.3498
     26 C          -0.0805    1.5330   30.2393 C.3     1  UNL1        0.1855
     27 C           8.7460   -4.8367   26.4672 C.3     1  UNL1        0.2543
     28 O           7.7721   -4.7239   25.3320 O.3     1  UNL1       -0.4553
     29 N           6.4119   -3.8823   22.7939 N.pl3   1  UNL1       -0.2104
     30 H           6.9985   -4.6729   22.7837 H       1  UNL1        0.1739
     31 S           5.9151   -3.3005   21.5037 S.O2    1  UNL1        0.0759
     32 O           6.9796   -2.2458   21.5694 O.2     1  UNL1       -0.1499
     33 O           4.8505   -4.3551   21.4380 O.2     1  UNL1       -0.1499
     34 C           5.4182   -2.7186   20.2135 C.ar    1  UNL1        0.1526
     35 C           6.2666   -2.7981   18.9790 C.ar    1  UNL1        0.0248
     36 C           5.7698   -2.2163   17.6888 C.ar    1  UNL1        0.0312
     37 C           4.4247   -1.5548   17.6331 C.ar    1  UNL1        0.1425
     38 F           3.9279   -0.9729   16.3429 F       1  UNL1       -0.2041
     39 C           3.5764   -1.4753   18.8676 C.ar    1  UNL1        0.0606
     40 C           4.0731   -2.0571   20.1578 C.ar    1  UNL1        0.1611
     41 F           3.2248   -1.9775   21.3923 F       1  UNL1       -0.2027
@<TRIPOS>BOND
     1    27    28    1
     2    28     1    1
     3     1     2   ar
     4     2     3   ar
     5     3     4   ar
     6     4     7    1
     7     7     8   ar
     8     8     9   ar
     9     9    21    1
    10    22    21    1
    11    22    23    1
    12    23    24    1
    13    24    25    1
    14    25    26    1
    15     9    10   ar
    16    10    11   ar
    17    11    12   ar
    18    12    13    1
    19    12    14   ar
    20    14    15   ar
    21    15    16    1
    22    15    17   ar
    23    17    18   ar
    24     4     5   ar
    25     5     6   ar
    26     6    29    1
    27    29    31    1
    28    31    32    2
    29    31    33    2
    30    31    34    1
    31    34    35   ar
    32    35    36   ar
    33    36    37   ar
    34    37    38    1
    35    37    39   ar
    36    39    40   ar
    37    40    41    1
    38     6     1   ar
    39    40    34   ar
    40    18     7   ar
    41    26    22    1
    42    17    10   ar
    43    13    19    1
    44    13    20    1
    45    29    30    1
@<TRIPOS>MOLECULE
*****
 41 45 0 0 0
SMALL
GASTEIGER

@<TRIPOS>ATOM
      1 C          -5.3834    4.5723   25.1047 C.ar    1  UNL1        0.2400
      2 N          -4.6933    4.5721   26.4365 N.ar    1  UNL1       -0.2090
      3 C          -3.3512    3.9189   26.5857 C.ar    1  UNL1        0.1021
      4 C          -2.6992    3.2660   25.4030 C.ar    1  UNL1        0.0208
      5 C          -3.3894    3.2662   24.0712 C.ar    1  UNL1        0.0221
      6 C          -4.7314    3.9193   23.9220 C.ar    1  UNL1        0.1178
      7 C          -1.3571    2.6129   25.5521 C.ar    1  UNL1        0.0047
      8 C          -0.4075    2.5767   24.3916 C.ar    1  UNL1        0.0385
      9 C           0.9345    1.9236   24.5408 C.ar    1  UNL1        0.1561
     10 C           1.3270    1.3067   25.8505 C.ar    1  UNL1        0.1191
     11 N           2.6691    0.6535   25.9996 N.ar    1  UNL1       -0.2109
     12 C           3.0616    0.0366   27.3094 C.ar    1  UNL1        0.2134
     13 N           4.4037   -0.6165   27.4585 N.pl3   1  UNL1       -0.3275
     14 N           2.1119    0.0728   28.4699 N.ar    1  UNL1       -0.2184
     15 C           0.7699    0.7260   28.3208 C.ar    1  UNL1        0.0637
     16 C          -0.1797    0.7622   29.4813 C.3     1  UNL1        0.0522
     17 C           0.3774    1.3429   27.0110 C.ar    1  UNL1        0.0344
     18 C          -0.9646    1.9960   26.8619 C.ar    1  UNL1        0.0029
     19 H           5.0269   -0.6403   26.6968 H       1  UNL1        0.1452
     20 H           4.6612   -1.0214   28.3181 H       1  UNL1        0.1452
     21 O           1.8842    1.8874   23.3802 O.3     1  UNL1       -0.4750
     22 C           1.6360    0.9485   22.2370 C.3     1  UNL1        0.1979
     23 C           0.5322    1.0608   21.2275 C.3     1  UNL1        0.0782
     24 C           0.6620   -0.0858   20.2692 C.3     1  UNL1        0.1461
     25 O           1.8459   -0.9069   20.6865 O.3     1  UNL1       -0.3498
     26 C           2.4478   -0.2677   21.9026 C.3     1  UNL1        0.1855
     27 C          -7.2108    6.1886   25.9979 C.3     1  UNL1        0.2543
     28 O          -6.7255    5.2254   24.9555 O.3     1  UNL1       -0.4553
     29 N          -5.4216    3.9195   22.5902 N.pl3   1  UNL1       -0.2104
     30 H          -6.4050    3.9136   22.5454 H       1  UNL1        0.1739
     31 S          -4.6133    3.9288   21.3267 S.O2    1  UNL1        0.0759
     32 O          -4.7145    2.4341   21.2510 O.2     1  UNL1       -0.1499
     33 O          -4.5121    5.4234   21.4023 O.2     1  UNL1       -0.1499
     34 C          -3.8050    3.9379   20.0631 C.ar    1  UNL1        0.1526
     35 C          -4.4952    3.9611   18.7315 C.ar    1  UNL1        0.0248
     36 C          -3.6869    3.9703   17.4679 C.ar    1  UNL1        0.0312
     37 C          -2.1886    3.9563   17.5359 C.ar    1  UNL1        0.1425
     38 F          -1.3803    3.9655   16.2723 F       1  UNL1       -0.2041
     39 C          -1.4984    3.9331   18.8675 C.ar    1  UNL1        0.0606
     40 C          -2.3066    3.9240   20.1311 C.ar    1  UNL1        0.1611
     41 F          -1.6165    3.9008   21.4627 F       1  UNL1       -0.2027
@<TRIPOS>BOND
     1    27    28    1
     2    28     1    1
     3     1     2   ar
     4     2     3   ar
     5     3     4   ar
     6     4     7    1
     7     7     8   ar
     8     8     9   ar
     9     9    21    1
    10    22    21    1
    11    22    23    1
    12    23    24    1
    13    24    25    1
    14    25    26    1
    15     9    10   ar
    16    10    11   ar
    17    11    12   ar
    18    12    13    1
    19    12    14   ar
    20    14    15   ar
    21    15    16    1
    22    15    17   ar
    23    17    18   ar
    24     4     5   ar
    25     5     6   ar
    26     6    29    1
    27    29    31    1
    28    31    32    2
    29    31    33    2
    30    31    34    1
    31    34    35   ar
    32    35    36   ar
    33    36    37   ar
    34    37    38    1
    35    37    39   ar
    36    39    40   ar
    37    40    41    1
    38     6     1   ar
    39    40    34   ar
    40    18     7   ar
    41    26    22    1
    42    17    10   ar
    43    13    19    1
    44    13    20    1
    45    29    30    1
@<TRIPOS>MOLECULE
*****
 41 45 0 0 0
SMALL
GASTEIGER

@<TRIPOS>ATOM
      1 C           7.7458   -4.5631   30.3058 C.ar    1  UNL1        0.2400
      2 N           7.2359   -4.7619   31.7023 N.ar    1  UNL1       -0.2090
      3 C           6.3752   -3.7135   32.3429 C.ar    1  UNL1        0.1021
      4 C           6.0245   -2.4664   31.5868 C.ar    1  UNL1        0.0208
      5 C           6.5344   -2.2676   30.1902 C.ar    1  UNL1        0.0221
      6 C           7.3950   -3.3159   29.5497 C.ar    1  UNL1        0.1178
      7 C           5.1638   -1.4180   32.2274 C.ar    1  UNL1        0.0047
      8 C           4.0183   -0.8200   31.4657 C.ar    1  UNL1        0.0385
      9 C           3.1577    0.2283   32.1063 C.ar    1  UNL1        0.1561
     10 C           3.4426    0.6786   33.5084 C.ar    1  UNL1        0.1191
     11 N           2.5819    1.7270   34.1490 N.ar    1  UNL1       -0.2109
     12 C           2.8667    2.1772   35.5512 C.ar    1  UNL1        0.2134
     13 N           2.0061    3.2255   36.1917 N.pl3   1  UNL1       -0.3275
     14 N           4.0123    1.5791   36.3128 N.ar    1  UNL1       -0.2184
     15 C           4.8729    0.5308   35.6723 C.ar    1  UNL1        0.0637
     16 C           6.0184   -0.0673   36.4339 C.3     1  UNL1        0.0522
     17 C           4.5880    0.0805   34.2701 C.ar    1  UNL1        0.0344
     18 C           5.4486   -0.9678   33.6296 C.ar    1  UNL1        0.0029
     19 H           1.2543    3.6181   35.6918 H       1  UNL1        0.1452
     20 H           2.1931    3.5210   37.1120 H       1  UNL1        0.1452
     21 O           2.0122    0.8265   31.3446 O.3     1  UNL1       -0.4750
     22 C           2.0802    0.9345   29.8500 C.3     1  UNL1        0.1979
     23 C           2.8582    1.9557   29.0744 C.3     1  UNL1        0.0782
     24 C           2.6410    1.6926   27.6137 C.3     1  UNL1        0.1461
     25 O           1.7288    0.5088   27.4866 O.3     1  UNL1       -0.3498
     26 C           1.3821    0.0402   28.8687 C.3     1  UNL1        0.1855
     27 C           7.9801   -6.6882   28.8298 C.3     1  UNL1        0.2543
     28 O           8.6064   -5.6114   29.6652 O.3     1  UNL1       -0.4553
     29 N           7.9049   -3.1171   28.1531 N.pl3   1  UNL1       -0.2104
     30 H           8.8687   -3.1902   27.9659 H       1  UNL1        0.1739
     31 S           6.9465   -2.8069   27.0418 S.O2    1  UNL1        0.0759
     32 O           6.1938   -4.0700   27.3383 O.2     1  UNL1       -0.1499
     33 O           7.6991   -1.5437   26.7453 O.2     1  UNL1       -0.1499
     34 C           5.9879   -2.4967   25.9304 C.ar    1  UNL1        0.1526
     35 C           6.1852   -3.1114   24.5765 C.ar    1  UNL1        0.0248
     36 C           5.2267   -2.8013   23.4651 C.ar    1  UNL1        0.0312
     37 C           4.0710   -1.8764   23.7078 C.ar    1  UNL1        0.1425
     38 F           3.1124   -1.5662   22.5964 F       1  UNL1       -0.2041
     39 C           3.8737   -1.2617   25.0617 C.ar    1  UNL1        0.0606
     40 C           4.8322   -1.5719   26.1731 C.ar    1  UNL1        0.1611
     41 F           4.6349   -0.9572   27.5270 F       1  UNL1       -0.2027
@<TRIPOS>BOND
     1    27    28    1
     2    28     1    1
     3     1     2   ar
     4     2     3   ar
     5     3     4   ar
     6     4     7    1
     7     7     8   ar
     8     8     9   ar
     9     9    21    1
    10    22    21    1
    11    22    23    1
    12    23    24    1
    13    24    25    1
    14    25    26    1
    15     9    10   ar
    16    10    11   ar
    17    11    12   ar
    18    12    13    1
    19    12    14   ar
    20    14    15   ar
    21    15    16    1
    22    15    17   ar
    23    17    18   ar
    24     4     5   ar
    25     5     6   ar
    26     6    29    1
    27    29    31    1
    28    31    32    2
    29    31    33    2
    30    31    34    1
    31    34    35   ar
    32    35    36   ar
    33    36    37   ar
    34    37    38    1
    35    37    39   ar
    36    39    40   ar
    37    40    41    1
    38     6     1   ar
    39    40    34   ar
    40    18     7   ar
    41    26    22    1
    42    17    10   ar
    43    13    19    1
    44    13    20    1
    45    29    30    1
@<TRIPOS>MOLECULE
*****
 41 45 0 0 0
SMALL
GASTEIGER

@<TRIPOS>ATOM
      1 C           2.3218    0.6852   28.2619 C.ar    1  UNL1        0.2400
      2 N           3.2627   -0.3599   27.7400 N.ar    1  UNL1       -0.2090
      3 C           3.4298   -0.5475   26.2612 C.ar    1  UNL1        0.1021
      4 C           2.6560    0.3100   25.3042 C.ar    1  UNL1        0.0208
      5 C           1.7151    1.3552   25.8260 C.ar    1  UNL1        0.0221
      6 C           1.5480    1.5428   27.3048 C.ar    1  UNL1        0.1178
      7 C           2.8231    0.1224   23.8253 C.ar    1  UNL1        0.0047
      8 C           2.3891    1.2019   22.8786 C.ar    1  UNL1        0.0385
      9 C           2.5562    1.0142   21.3999 C.ar    1  UNL1        0.1561
     10 C           3.1573   -0.2529   20.8678 C.ar    1  UNL1        0.1191
     11 N           3.3244   -0.4405   19.3889 N.ar    1  UNL1       -0.2109
     12 C           3.9255   -1.7076   18.8569 C.ar    1  UNL1        0.2134
     13 N           4.0926   -1.8952   17.3781 N.pl3   1  UNL1       -0.3275
     14 N           4.3595   -2.7871   19.8037 N.ar    1  UNL1       -0.2184
     15 C           4.1924   -2.5994   21.2824 C.ar    1  UNL1        0.0637
     16 C           4.6265   -3.6789   22.2291 C.3     1  UNL1        0.0522
     17 C           3.5913   -1.3323   21.8145 C.ar    1  UNL1        0.0344
     18 C           3.4242   -1.1447   23.2933 C.ar    1  UNL1        0.0029
     19 H           3.8077   -1.1867   16.7567 H       1  UNL1        0.1452
     20 H           4.4871   -2.7269   17.0289 H       1  UNL1        0.1452
     21 O           2.1221    2.0937   20.4531 O.3     1  UNL1       -0.4750
     22 C           0.8096    2.7898   20.6602 C.3     1  UNL1        0.1979
     23 C          -0.5484    2.2024   20.4142 C.3     1  UNL1        0.0782
     24 C          -1.5726    3.2451   20.7516 C.3     1  UNL1        0.1461
     25 O          -0.8475    4.4770   21.2061 O.3     1  UNL1       -0.3498
     26 C           0.6248    4.1956   21.1496 C.3     1  UNL1        0.1855
     27 C           2.4977   -0.2436   30.6817 C.3     1  UNL1        0.2543
     28 O           2.1547    0.8729   29.7406 O.3     1  UNL1       -0.4553
     29 N           0.6071    2.5880   27.8266 N.pl3   1  UNL1       -0.2104
     30 H           0.8090    3.0555   28.6692 H       1  UNL1        0.1739
     31 S          -0.6413    2.9209   27.0648 S.O2    1  UNL1        0.0759
     32 O          -1.2496    1.6181   27.4923 O.2     1  UNL1       -0.1499
     33 O          -0.0331    4.2236   26.6372 O.2     1  UNL1       -0.1499
     34 C          -1.8899    3.2537   26.3029 C.ar    1  UNL1        0.1526
     35 C          -3.1225    3.6910   27.0373 C.ar    1  UNL1        0.0248
     36 C          -4.3710    4.0239   26.2755 C.ar    1  UNL1        0.0312
     37 C          -4.3869    3.9193   24.7793 C.ar    1  UNL1        0.1425
     38 F          -5.6355    4.2521   24.0174 F       1  UNL1       -0.2041
     39 C          -3.1543    3.4819   24.0448 C.ar    1  UNL1        0.0606
     40 C          -1.9058    3.1491   24.8066 C.ar    1  UNL1        0.1611
     41 F          -0.6732    2.7118   24.0722 F       1  UNL1       -0.2027
@<TRIPOS>BOND
     1    27    28    1
     2    28     1    1
     3     1     2   ar
     4     2     3   ar
     5     3     4   ar
     6     4     7    1
     7     7     8   ar
     8     8     9   ar
     9     9    21    1
    10    22    21    1
    11    22    23    1
    12    23    24    1
    13    24    25    1
    14    25    26    1
    15     9    10   ar
    16    10    11   ar
    17    11    12   ar
    18    12    13    1
    19    12    14   ar
    20    14    15   ar
    21    15    16    1
    22    15    17   ar
    23    17    18   ar
    24     4     5   ar
    25     5     6   ar
    26     6    29    1
    27    29    31    1
    28    31    32    2
    29    31    33    2
    30    31    34    1
    31    34    35   ar
    32    35    36   ar
    33    36    37   ar
    34    37    38    1
    35    37    39   ar
    36    39    40   ar
    37    40    41    1
    38     6     1   ar
    39    40    34   ar
    40    18     7   ar
    41    26    22    1
    42    17    10   ar
    43    13    19    1
    44    13    20    1
    45    29    30    1
@<TRIPOS>MOLECULE
*****
 41 45 0 0 0
SMALL
GASTEIGER

@<TRIPOS>ATOM
      1 C          -1.2141    3.9708   18.8011 C.ar    1  UNL1        0.2400
      2 N           0.2393    3.7614   18.4948 N.ar    1  UNL1       -0.2090
      3 C           1.0709    2.8748   19.3738 C.ar    1  UNL1        0.1021
      4 C           0.4490    2.1977   20.5591 C.ar    1  UNL1        0.0208
      5 C          -1.0044    2.4072   20.8654 C.ar    1  UNL1        0.0221
      6 C          -1.8359    3.2937   19.9865 C.ar    1  UNL1        0.1178
      7 C           1.2806    1.3111   21.4381 C.ar    1  UNL1        0.0047
      8 C           1.3365    1.5601   22.9162 C.ar    1  UNL1        0.0385
      9 C           2.1680    0.6735   23.7951 C.ar    1  UNL1        0.1561
     10 C           2.9436   -0.4620   23.1959 C.ar    1  UNL1        0.1191
     11 N           3.7752   -1.3486   24.0749 N.ar    1  UNL1       -0.2109
     12 C           4.5507   -2.4841   23.4757 C.ar    1  UNL1        0.2134
     13 N           5.3822   -3.3707   24.3546 N.pl3   1  UNL1       -0.3275
     14 N           4.4948   -2.7331   21.9975 N.ar    1  UNL1       -0.2184
     15 C           3.6632   -1.8465   21.1186 C.ar    1  UNL1        0.0637
     16 C           3.6073   -2.0955   19.6405 C.3     1  UNL1        0.0522
     17 C           2.8877   -0.7110   21.7178 C.ar    1  UNL1        0.0344
     18 C           2.0561    0.1756   20.8389 C.ar    1  UNL1        0.0029
     19 H           5.4190   -3.2073   25.3248 H       1  UNL1        0.1452
     20 H           5.8913   -4.1160   23.9613 H       1  UNL1        0.1452
     21 O           2.2240    0.9225   25.2733 O.3     1  UNL1       -0.4750
     22 C           1.1317    1.7010   25.9446 C.3     1  UNL1        0.1979
     23 C          -0.1308    1.1316   26.5209 C.3     1  UNL1        0.0782
     24 C          -0.9327    2.2643   27.0899 C.3     1  UNL1        0.1461
     25 O          -0.1659    3.5338   26.8654 O.3     1  UNL1       -0.3498
     26 C           1.1099    3.1857   26.1575 C.3     1  UNL1        0.1855
     27 C          -1.4390    5.4869   16.7034 C.3     1  UNL1        0.2543
     28 O          -2.0456    4.8574   17.9222 O.3     1  UNL1       -0.4553
     29 N          -3.2893    3.5031   20.2928 N.pl3   1  UNL1       -0.2104
     30 H          -3.9564    3.4555   19.5703 H       1  UNL1        0.1739
     31 S          -3.7262    3.7851   21.6997 S.O2    1  UNL1        0.0759
     32 O          -4.5436    2.5275   21.6979 O.2     1  UNL1       -0.1499
     33 O          -2.9087    5.0428   21.7015 O.2     1  UNL1       -0.1499
     34 C          -4.1631    4.0671   23.1067 C.ar    1  UNL1        0.1526
     35 C          -5.5126    4.6682   23.3667 C.ar    1  UNL1        0.0248
     36 C          -5.9496    4.9502   24.7737 C.ar    1  UNL1        0.0312
     37 C          -5.0371    4.6311   25.9206 C.ar    1  UNL1        0.1425
     38 F          -5.4740    4.9131   27.3276 F       1  UNL1       -0.2041
     39 C          -3.6876    4.0300   25.6606 C.ar    1  UNL1        0.0606
     40 C          -3.2506    3.7481   24.2536 C.ar    1  UNL1        0.1611
     41 F          -1.9011    3.1470   23.9936 F       1  UNL1       -0.2027
@<TRIPOS>BOND
     1    27    28    1
     2    28     1    1
     3     1     2   ar
     4     2     3   ar
     5     3     4   ar
     6     4     7    1
     7     7     8   ar
     8     8     9   ar
     9     9    21    1
    10    22    21    1
    11    22    23    1
    12    23    24    1
    13    24    25    1
    14    25    26    1
    15     9    10   ar
    16    10    11   ar
    17    11    12   ar
    18    12    13    1
    19    12    14   ar
    20    14    15   ar
    21    15    16    1
    22    15    17   ar
    23    17    18   ar
    24     4     5   ar
    25     5     6   ar
    26     6    29    1
    27    29    31    1
    28    31    32    2
    29    31    33    2
    30    31    34    1
    31    34    35   ar
    32    35    36   ar
    33    36    37   ar
    34    37    38    1
    35    37    39   ar
    36    39    40   ar
    37    40    41    1
    38     6     1   ar
    39    40    34   ar
    40    18     7   ar
    41    26    22    1
    42    17    10   ar
    43    13    19    1
    44    13    20    1
    45    29    30    1
