@<TRIPOS>MOLECULE
*****
 23 26 0 0 0
SMALL
GASTEIGER

@<TRIPOS>ATOM
      1 O          -8.5264  -19.2424   18.8832 O.2     1  UNL1       -0.2448
      2 C          -7.7973  -19.0506   20.1800 C.2     1  UNL1        0.3428
      3 C          -8.4957  -19.3198   21.4800 C.2     1  UNL1        0.0959
      4 C          -7.9526  -20.1265   22.6220 C.2     1  UNL1        0.1049
      5 N          -8.9810  -20.1347   23.7139 N.2     1  UNL1       -0.2476
      6 C         -10.1596  -19.3330   23.2468 C.2     1  UNL1        0.0646
      7 C         -11.4672  -18.9966   23.9002 C.3     1  UNL1        0.0859
      8 C         -12.4749  -18.1565   23.1730 C.2     1  UNL1        0.0687
      9 CL        -13.7824  -17.8200   23.8264 Cl      1  UNL1       -0.0842
     10 C         -12.1749  -17.6528   21.7923 C.2     1  UNL1        0.1470
     11 F         -13.1825  -16.8127   21.0650 F       1  UNL1       -0.2036
     12 C         -10.8672  -17.9893   21.1388 C.2     1  UNL1        0.0316
     13 C          -9.8596  -18.8294   21.8661 C.2     1  UNL1        0.0239
     14 O          -6.3699  -18.5898   20.1768 O.3     1  UNL1       -0.4454
     15 C          -5.2577  -19.5935   20.1013 C.3     1  UNL1        0.2087
     16 C          -3.8419  -19.1641   20.3481 C.3     1  UNL1        0.0445
     17 C          -2.9930  -18.6873   19.2071 C.3     1  UNL1        0.0210
     18 C          -1.5771  -18.2579   19.4539 C.3     1  UNL1        0.0722
     19 N          -1.0102  -18.3053   20.8419 N.3     1  UNL1       -0.2727
     20 C          -1.8591  -18.7821   21.9829 C.3     1  UNL1        0.0722
     21 C          -3.2750  -19.2115   21.7360 C.3     1  UNL1        0.0210
     22 C          -1.7914  -18.5508   20.7557 C.3     1  UNL1        0.0722
     23 C          -3.0716  -18.9390   20.5325 C.3     1  UNL1        0.0210
@<TRIPOS>BOND
     1     1     2    2
     2     2    14    1
     3    14    15    1
     4    15    16    1
     5    16    17    1
     6    17    18    1
     7    18    19    1
     8    19    20    1
     9    20    21    1
    10    19    22    1
    11    22    23    1
    12     2     3    1
    13     3     4    2
    14     4     5    1
    15     5     6    2
    16     6     7    1
    17     7     8    1
    18     8     9    1
    19     8    10    2
    20    10    11    1
    21    10    12    1
    22    12    13    2
    23    21    16    1
    24    13     3    1
    25    23    16    1
    26    13     6    1
@<TRIPOS>MOLECULE
*****
 23 26 0 0 0
SMALL
GASTEIGER

@<TRIPOS>ATOM
      1 O         -12.5783  -16.2261   22.5703 O.2     1  UNL1       -0.2448
      2 C         -11.3457  -16.9452   23.0326 C.2     1  UNL1        0.3428
      3 C          -9.9927  -16.3421   22.7971 C.2     1  UNL1        0.0959
      4 C          -9.4571  -15.8655   21.4795 C.2     1  UNL1        0.1049
      5 N          -8.0711  -15.3385   21.7059 N.2     1  UNL1       -0.2476
      6 C          -7.7501  -15.4893   23.1634 C.2     1  UNL1        0.0646
      7 C          -6.5299  -15.1420   23.9636 C.3     1  UNL1        0.0859
      8 C          -6.4972  -15.4149   25.4382 C.2     1  UNL1        0.0687
      9 CL         -5.2770  -15.0676   26.2384 Cl      1  UNL1       -0.0842
     10 C          -7.6849  -16.0351   26.1126 C.2     1  UNL1        0.1470
     11 F          -7.6523  -16.3080   27.5872 F       1  UNL1       -0.2036
     12 C          -8.9052  -16.3824   25.3124 C.2     1  UNL1        0.0316
     13 C          -8.9378  -16.1095   23.8378 C.2     1  UNL1        0.0239
     14 O         -11.4663  -18.2675   23.7306 O.3     1  UNL1       -0.4454
     15 C         -11.1053  -19.5321   23.0091 C.3     1  UNL1        0.2087
     16 C         -10.1682  -19.4866   21.8388 C.3     1  UNL1        0.0445
     17 C         -10.7134  -19.4769   20.4414 C.3     1  UNL1        0.0210
     18 C          -9.7762  -19.4314   19.2711 C.3     1  UNL1        0.0722
     19 N          -8.2939  -19.3955   19.4981 N.3     1  UNL1       -0.2727
     20 C          -7.7488  -19.4051   20.8955 C.3     1  UNL1        0.0722
     21 C          -8.6859  -19.4507   22.0658 C.3     1  UNL1        0.0210
     22 C          -8.7680  -19.4199   20.1708 C.3     1  UNL1        0.0722
     23 C          -9.6153  -19.4611   21.2291 C.3     1  UNL1        0.0210
@<TRIPOS>BOND
     1     1     2    2
     2     2    14    1
     3    14    15    1
     4    15    16    1
     5    16    17    1
     6    17    18    1
     7    18    19    1
     8    19    20    1
     9    20    21    1
    10    19    22    1
    11    22    23    1
    12     2     3    1
    13     3     4    2
    14     4     5    1
    15     5     6    2
    16     6     7    1
    17     7     8    1
    18     8     9    1
    19     8    10    2
    20    10    11    1
    21    10    12    1
    22    12    13    2
    23    21    16    1
    24    13     3    1
    25    23    16    1
    26    13     6    1
@<TRIPOS>MOLECULE
*****
 23 26 0 0 0
SMALL
GASTEIGER

@<TRIPOS>ATOM
      1 O          -9.1317  -20.0615   23.8118 O.2     1  UNL1       -0.2448
      2 C          -8.5086  -18.8570   23.1708 C.2     1  UNL1        0.3428
      3 C          -7.8409  -18.9801   21.8333 C.2     1  UNL1        0.0959
      4 C          -8.5323  -19.1894   20.5187 C.2     1  UNL1        0.1049
      5 N          -7.4833  -19.2542   19.4485 N.2     1  UNL1       -0.2476
      6 C          -6.1436  -19.0848   20.1016 C.2     1  UNL1        0.0646
      7 C          -4.7510  -19.0630   19.5447 C.3     1  UNL1        0.0859
      8 C          -3.5794  -18.8718   20.4617 C.2     1  UNL1        0.0687
      9 CL         -2.1868  -18.8500   19.9048 Cl      1  UNL1       -0.0842
     10 C          -3.8004  -18.7024   21.9356 C.2     1  UNL1        0.1470
     11 F          -2.6289  -18.5112   22.8526 F       1  UNL1       -0.2036
     12 C          -5.1931  -18.7242   22.4926 C.2     1  UNL1        0.0316
     13 C          -6.3646  -18.9154   21.5756 C.2     1  UNL1        0.0239
     14 O          -8.5532  -17.5293   23.8675 O.3     1  UNL1       -0.4454
     15 C          -9.8333  -16.7486   23.9128 C.3     1  UNL1        0.2087
     16 C         -10.7791  -16.7908   22.7494 C.3     1  UNL1        0.0445
     17 C         -12.0710  -17.5449   22.8599 C.3     1  UNL1        0.0210
     18 C         -13.0168  -17.5870   21.6964 C.3     1  UNL1        0.0722
     19 N         -12.6705  -16.8750   20.4223 N.3     1  UNL1       -0.2727
     20 C         -11.3786  -16.1210   20.3118 C.3     1  UNL1        0.0722
     21 C         -10.4329  -16.0789   21.4753 C.3     1  UNL1        0.0210
     22 C         -12.1207  -16.8235   21.0329 C.3     1  UNL1        0.0722
     23 C         -11.2654  -16.7854   22.0849 C.3     1  UNL1        0.0210
@<TRIPOS>BOND
     1     1     2    2
     2     2    14    1
     3    14    15    1
     4    15    16    1
     5    16    17    1
     6    17    18    1
     7    18    19    1
     8    19    20    1
     9    20    21    1
    10    19    22    1
    11    22    23    1
    12     2     3    1
    13     3     4    2
    14     4     5    1
    15     5     6    2
    16     6     7    1
    17     7     8    1
    18     8     9    1
    19     8    10    2
    20    10    11    1
    21    10    12    1
    22    12    13    2
    23    21    16    1
    24    13     3    1
    25    23    16    1
    26    13     6    1
@<TRIPOS>MOLECULE
*****
 23 26 0 0 0
SMALL
GASTEIGER

@<TRIPOS>ATOM
      1 O          -5.7290  -21.0734   20.4369 O.2     1  UNL1       -0.2448
      2 C          -6.4513  -19.9240   21.0749 C.2     1  UNL1        0.3428
      3 C          -7.8739  -19.6311   20.7001 C.2     1  UNL1        0.0959
      4 C          -8.4390  -19.6389   19.3106 C.2     1  UNL1        0.1049
      5 N          -9.8955  -19.2916   19.4008 N.2     1  UNL1       -0.2476
      6 C         -10.2305  -19.0691   20.8459 C.2     1  UNL1        0.0646
      7 C         -11.5118  -18.7026   21.5343 C.3     1  UNL1        0.0859
      8 C         -11.5436  -18.5460   23.0258 C.2     1  UNL1        0.0687
      9 CL        -12.8249  -18.1795   23.7142 Cl      1  UNL1       -0.0842
     10 C         -10.2942  -18.7558   23.8288 C.2     1  UNL1        0.1470
     11 F         -10.3260  -18.5991   25.3202 F       1  UNL1       -0.2036
     12 C          -9.0129  -19.1223   23.1403 C.2     1  UNL1        0.0316
     13 C          -8.9810  -19.2790   21.6489 C.2     1  UNL1        0.0239
     14 O          -5.7510  -19.0674   22.0878 O.3     1  UNL1       -0.4454
     15 C          -4.3084  -19.3184   22.4135 C.3     1  UNL1        0.2087
     16 C          -3.2355  -18.5298   21.7228 C.3     1  UNL1        0.0445
     17 C          -2.5627  -19.0867   20.5033 C.3     1  UNL1        0.0210
     18 C          -1.4897  -18.2980   19.8128 C.3     1  UNL1        0.0722
     19 N          -1.0896  -16.9526   20.3417 N.3     1  UNL1       -0.2727
     20 C          -1.7624  -16.3958   21.5613 C.3     1  UNL1        0.0722
     21 C          -2.8354  -17.1844   22.2518 C.3     1  UNL1        0.0210
     22 C          -1.6827  -17.3478   20.7540 C.3     1  UNL1        0.0722
     23 C          -2.6529  -18.0608   21.3785 C.3     1  UNL1        0.0210
@<TRIPOS>BOND
     1     1     2    2
     2     2    14    1
     3    14    15    1
     4    15    16    1
     5    16    17    1
     6    17    18    1
     7    18    19    1
     8    19    20    1
     9    20    21    1
    10    19    22    1
    11    22    23    1
    12     2     3    1
    13     3     4    2
    14     4     5    1
    15     5     6    2
    16     6     7    1
    17     7     8    1
    18     8     9    1
    19     8    10    2
    20    10    11    1
    21    10    12    1
    22    12    13    2
    23    21    16    1
    24    13     3    1
    25    23    16    1
    26    13     6    1
@<TRIPOS>MOLECULE
*****
 23 26 0 0 0
SMALL
GASTEIGER

@<TRIPOS>ATOM
      1 O         -10.7865  -16.0152   19.9289 O.2     1  UNL1       -0.2448
      2 C         -10.9969  -17.4649   20.2515 C.2     1  UNL1        0.3428
      3 C          -9.8785  -18.4459   20.0593 C.2     1  UNL1        0.0959
      4 C          -9.8569  -19.5762   19.0735 C.2     1  UNL1        0.1049
      5 N          -8.5505  -20.2977   19.2241 N.2     1  UNL1       -0.2476
      6 C          -7.7647  -19.6133   20.3031 C.2     1  UNL1        0.0646
      7 C          -6.4079  -19.8844   20.8822 C.3     1  UNL1        0.0859
      8 C          -5.8718  -19.0110   21.9776 C.2     1  UNL1        0.0687
      9 CL         -4.5149  -19.2821   22.5567 Cl      1  UNL1       -0.0842
     10 C          -6.6925  -17.8665   22.4938 C.2     1  UNL1        0.1470
     11 F          -6.1565  -16.9931   23.5891 F       1  UNL1       -0.2036
     12 C          -8.0494  -17.5954   21.9146 C.2     1  UNL1        0.0316
     13 C          -8.5855  -18.4688   20.8193 C.2     1  UNL1        0.0239
     14 O         -12.3255  -17.9335   20.7663 O.3     1  UNL1       -0.4454
     15 C         -12.5769  -17.9986   22.2437 C.3     1  UNL1        0.2087
     16 C         -11.5509  -18.6072   23.1530 C.3     1  UNL1        0.0445
     17 C         -10.9239  -17.7804   24.2361 C.3     1  UNL1        0.0210
     18 C          -9.8979  -18.3890   25.1454 C.3     1  UNL1        0.0722
     19 N          -9.4988  -19.8244   24.9715 N.3     1  UNL1       -0.2727
     20 C         -10.1257  -20.6513   23.8883 C.3     1  UNL1        0.0722
     21 C         -11.1518  -20.0426   22.9790 C.3     1  UNL1        0.0210
     22 C         -10.0653  -19.5349   24.4489 C.3     1  UNL1        0.0722
     23 C         -10.9931  -18.9846   23.6267 C.3     1  UNL1        0.0210
@<TRIPOS>BOND
     1     1     2    2
     2     2    14    1
     3    14    15    1
     4    15    16    1
     5    16    17    1
     6    17    18    1
     7    18    19    1
     8    19    20    1
     9    20    21    1
    10    19    22    1
    11    22    23    1
    12     2     3    1
    13     3     4    2
    14     4     5    1
    15     5     6    2
    16     6     7    1
    17     7     8    1
    18     8     9    1
    19     8    10    2
    20    10    11    1
    21    10    12    1
    22    12    13    2
    23    21    16    1
    24    13     3    1
    25    23    16    1
    26    13     6    1
@<TRIPOS>MOLECULE
*****
 23 26 0 0 0
SMALL
GASTEIGER

@<TRIPOS>ATOM
      1 O          -5.9878  -18.6374   20.0668 O.2     1  UNL1       -0.2448
      2 C          -6.0693  -18.7922   21.5566 C.2     1  UNL1        0.3428
      3 C          -7.0431  -17.9669   22.3442 C.2     1  UNL1        0.0959
      4 C          -6.6952  -16.8497   23.2828 C.2     1  UNL1        0.1049
      5 N          -7.9730  -16.3062   23.8502 N.2     1  UNL1       -0.2476
      6 C          -9.1106  -17.0875   23.2624 C.2     1  UNL1        0.0646
      7 C         -10.5954  -16.9969   23.4544 C.3     1  UNL1        0.0859
      8 C         -11.5057  -17.9328   22.7156 C.2     1  UNL1        0.0687
      9 CL        -12.9906  -17.8422   22.9076 Cl      1  UNL1       -0.0842
     10 C         -10.9310  -18.9591   21.7849 C.2     1  UNL1        0.1470
     11 F         -11.8412  -19.8950   21.0461 F       1  UNL1       -0.2036
     12 C          -9.4460  -19.0497   21.5929 C.2     1  UNL1        0.0316
     13 C          -8.5359  -18.1139   22.3316 C.2     1  UNL1        0.0239
     14 O          -5.1769  -19.7724   22.2587 O.3     1  UNL1       -0.4454
     15 C          -3.8699  -19.3165   22.8366 C.3     1  UNL1        0.2087
     16 C          -2.9238  -18.5043   22.0028 C.3     1  UNL1        0.0445
     17 C          -2.7133  -17.0509   22.3081 C.3     1  UNL1        0.0210
     18 C          -1.7672  -16.2388   21.4742 C.3     1  UNL1        0.0722
     19 N          -1.0316  -16.8801   20.3350 N.3     1  UNL1       -0.2727
     20 C          -1.2422  -18.3335   20.0297 C.3     1  UNL1        0.0722
     21 C          -2.1883  -19.1456   20.8636 C.3     1  UNL1        0.0210
     22 C          -1.5398  -17.3656   20.7639 C.3     1  UNL1        0.0722
     23 C          -2.3952  -18.1000   21.5178 C.3     1  UNL1        0.0210
@<TRIPOS>BOND
     1     1     2    2
     2     2    14    1
     3    14    15    1
     4    15    16    1
     5    16    17    1
     6    17    18    1
     7    18    19    1
     8    19    20    1
     9    20    21    1
    10    19    22    1
    11    22    23    1
    12     2     3    1
    13     3     4    2
    14     4     5    1
    15     5     6    2
    16     6     7    1
    17     7     8    1
    18     8     9    1
    19     8    10    2
    20    10    11    1
    21    10    12    1
    22    12    13    2
    23    21    16    1
    24    13     3    1
    25    23    16    1
    26    13     6    1
@<TRIPOS>MOLECULE
*****
 23 26 0 0 0
SMALL
GASTEIGER

@<TRIPOS>ATOM
      1 O         -10.4340  -17.9089   19.8477 O.2     1  UNL1       -0.2448
      2 C          -9.3765  -18.4557   20.7602 C.2     1  UNL1        0.3428
      3 C          -9.6754  -18.6626   22.2155 C.2     1  UNL1        0.0959
      4 C         -10.5016  -19.7713   22.7969 C.2     1  UNL1        0.1049
      5 N         -10.5373  -19.5910   24.2856 N.2     1  UNL1       -0.2476
      6 C          -9.7332  -18.3709   24.6242 C.2     1  UNL1        0.0646
      7 C          -9.4172  -17.7082   25.9322 C.3     1  UNL1        0.0859
      8 C          -8.5685  -16.4717   25.9609 C.2     1  UNL1        0.0687
      9 CL         -8.2525  -15.8091   27.2689 Cl      1  UNL1       -0.0842
     10 C          -8.0357  -15.8979   24.6815 C.2     1  UNL1        0.1470
     11 F          -7.1870  -14.6615   24.7101 F       1  UNL1       -0.2036
     12 C          -8.3517  -16.5607   23.3734 C.2     1  UNL1        0.0316
     13 C          -9.2004  -17.7971   23.3448 C.2     1  UNL1        0.0239
     14 O          -8.0201  -18.7956   20.2174 O.3     1  UNL1       -0.4454
     15 C          -7.2282  -19.9155   20.8247 C.3     1  UNL1        0.2087
     16 C          -5.7774  -19.7176   21.1503 C.3     1  UNL1        0.0445
     17 C          -4.7222  -20.3104   20.2641 C.3     1  UNL1        0.0210
     18 C          -3.2714  -20.1124   20.5898 C.3     1  UNL1        0.0722
     19 N          -2.8758  -19.3217   21.8015 N.3     1  UNL1       -0.2727
     20 C          -3.9310  -18.7290   22.6876 C.3     1  UNL1        0.0722
     21 C          -5.3818  -18.9269   22.3620 C.3     1  UNL1        0.0210
     22 C          -3.6835  -19.4033   21.6638 C.3     1  UNL1        0.0722
     23 C          -4.9953  -19.5823   21.3695 C.3     1  UNL1        0.0210
@<TRIPOS>BOND
     1     1     2    2
     2     2    14    1
     3    14    15    1
     4    15    16    1
     5    16    17    1
     6    17    18    1
     7    18    19    1
     8    19    20    1
     9    20    21    1
    10    19    22    1
    11    22    23    1
    12     2     3    1
    13     3     4    2
    14     4     5    1
    15     5     6    2
    16     6     7    1
    17     7     8    1
    18     8     9    1
    19     8    10    2
    20    10    11    1
    21    10    12    1
    22    12    13    2
    23    21    16    1
    24    13     3    1
    25    23    16    1
    26    13     6    1
@<TRIPOS>MOLECULE
*****
 23 26 0 0 0
SMALL
GASTEIGER

@<TRIPOS>ATOM
      1 O          -9.1919  -20.2643   24.0732 O.2     1  UNL1       -0.2448
      2 C          -9.3114  -19.0917   23.1454 C.2     1  UNL1        0.3428
      3 C          -8.6374  -19.1237   21.8057 C.2     1  UNL1        0.0959
      4 C          -9.3255  -19.1504   20.4731 C.2     1  UNL1        0.1049
      5 N          -8.2704  -19.1778   19.4072 N.2     1  UNL1       -0.2476
      6 C          -6.9303  -19.1680   20.0811 C.2     1  UNL1        0.0646
      7 C          -5.5328  -19.1852   19.5364 C.3     1  UNL1        0.0859
      8 C          -4.3621  -19.1690   20.4741 C.2     1  UNL1        0.0687
      9 CL         -2.9646  -19.1862   19.9295 Cl      1  UNL1       -0.0842
     10 C          -4.5890  -19.1356   21.9565 C.2     1  UNL1        0.1470
     11 F          -3.4183  -19.1193   22.8942 F       1  UNL1       -0.2036
     12 C          -5.9865  -19.1183   22.5011 C.2     1  UNL1        0.0316
     13 C          -7.1572  -19.1346   21.5634 C.2     1  UNL1        0.0239
     14 O         -10.1048  -17.8872   23.5573 O.3     1  UNL1       -0.4454
     15 C          -9.5202  -16.5146   23.4010 C.3     1  UNL1        0.2087
     16 C          -8.3409  -16.1027   24.2313 C.3     1  UNL1        0.0445
     17 C          -8.4805  -15.9705   25.7189 C.3     1  UNL1        0.0210
     18 C          -7.3011  -15.5585   26.5491 C.3     1  UNL1        0.0722
     19 N          -5.9821  -15.2787   25.8917 N.3     1  UNL1       -0.2727
     20 C          -5.8426  -15.4110   24.4041 C.3     1  UNL1        0.0722
     21 C          -7.0220  -15.8229   23.5739 C.3     1  UNL1        0.0210
     22 C          -6.6000  -15.5016   25.3953 C.3     1  UNL1        0.0722
     23 C          -7.6663  -15.8741   24.6445 C.3     1  UNL1        0.0210
@<TRIPOS>BOND
     1     1     2    2
     2     2    14    1
     3    14    15    1
     4    15    16    1
     5    16    17    1
     6    17    18    1
     7    18    19    1
     8    19    20    1
     9    20    21    1
    10    19    22    1
    11    22    23    1
    12     2     3    1
    13     3     4    2
    14     4     5    1
    15     5     6    2
    16     6     7    1
    17     7     8    1
    18     8     9    1
    19     8    10    2
    20    10    11    1
    21    10    12    1
    22    12    13    2
    23    21    16    1
    24    13     3    1
    25    23    16    1
    26    13     6    1
@<TRIPOS>MOLECULE
*****
 23 26 0 0 0
SMALL
GASTEIGER

@<TRIPOS>ATOM
      1 O          -5.6611  -18.5369   19.5902 O.2     1  UNL1       -0.2448
      2 C          -5.9949  -19.1096   20.9358 C.2     1  UNL1        0.3428
      3 C          -7.2754  -18.7272   21.6170 C.2     1  UNL1        0.0959
      4 C          -8.6381  -19.2683   21.3004 C.2     1  UNL1        0.1049
      5 N          -9.6230  -18.6121   22.2221 N.2     1  UNL1       -0.2476
      6 C          -8.8689  -17.6654   23.1083 C.2     1  UNL1        0.0646
      7 C          -9.3159  -16.7479   24.2074 C.3     1  UNL1        0.0859
      8 C          -8.3121  -15.9014   24.9326 C.2     1  UNL1        0.0687
      9 CL         -8.7592  -14.9838   26.0317 Cl      1  UNL1       -0.0842
     10 C          -6.8612  -15.9725   24.5586 C.2     1  UNL1        0.1470
     11 F          -5.8574  -15.1261   25.2837 F       1  UNL1       -0.2036
     12 C          -6.4142  -16.8902   23.4594 C.2     1  UNL1        0.0316
     13 C          -7.4180  -17.7366   22.7343 C.2     1  UNL1        0.0239
     14 O          -5.0481  -20.0647   21.6002 O.3     1  UNL1       -0.4454
     15 C          -3.8836  -19.5408   22.3873 C.3     1  UNL1        0.2087
     16 C          -2.9226  -18.5786   21.7544 C.3     1  UNL1        0.0445
     17 C          -2.8402  -17.1654   22.2504 C.3     1  UNL1        0.0210
     18 C          -1.8792  -16.2032   21.6174 C.3     1  UNL1        0.0722
     19 N          -1.0006  -16.6542   20.4884 N.3     1  UNL1       -0.2727
     20 C          -1.0830  -18.0675   19.9924 C.3     1  UNL1        0.0722
     21 C          -2.0440  -19.0296   20.6254 C.3     1  UNL1        0.0210
     22 C          -1.5117  -17.2175   20.8037 C.3     1  UNL1        0.0722
     23 C          -2.3806  -18.0876   21.3760 C.3     1  UNL1        0.0210
@<TRIPOS>BOND
     1     1     2    2
     2     2    14    1
     3    14    15    1
     4    15    16    1
     5    16    17    1
     6    17    18    1
     7    18    19    1
     8    19    20    1
     9    20    21    1
    10    19    22    1
    11    22    23    1
    12     2     3    1
    13     3     4    2
    14     4     5    1
    15     5     6    2
    16     6     7    1
    17     7     8    1
    18     8     9    1
    19     8    10    2
    20    10    11    1
    21    10    12    1
    22    12    13    2
    23    21    16    1
    24    13     3    1
    25    23    16    1
    26    13     6    1
