@<TRIPOS>MOLECULE
*****
 44 48 0 0 0
SMALL
GASTEIGER

@<TRIPOS>ATOM
      1 N           0.5884    2.0804   24.4842 N.am    1  UNL1       -0.2741
      2 C           1.8718    1.5106   23.9564 C.2     1  UNL1        0.2303
      3 O           2.6531    2.2585   22.9171 O.2     1  UNL1       -0.2745
      4 C           0.9797    4.6028   23.9999 C.3     1  UNL1        0.0297
      5 C           0.0865    3.3981   23.9726 C.3     1  UNL1        0.1325
      6 C          -1.3089    3.5111   23.4336 C.ar    1  UNL1        0.1462
      7 N          -2.4445    3.8423   24.3558 N.ar    1  UNL1       -0.2114
      8 C          -3.8399    3.9552   23.8169 C.ar    1  UNL1        0.1682
      9 N          -4.9756    4.2864   24.7391 N.ar    1  UNL1       -0.2249
     10 C          -6.3708    4.3994   24.2001 C.ar    1  UNL1        0.1006
     11 C          -6.6303    4.1812   22.7390 C.ar    1  UNL1        0.0209
     12 C          -5.4946    3.8501   21.8167 C.ar    1  UNL1        0.0094
     13 C          -4.0994    3.7371   22.3557 C.ar    1  UNL1        0.0923
     14 C          -2.9636    3.4059   21.4335 C.ar    1  UNL1        0.2685
     15 O          -3.2232    3.1878   19.9723 O.2     1  UNL1       -0.2665
     16 N          -1.5684    3.2930   21.9725 N.ar    1  UNL1       -0.2612
     17 C          -0.4326    2.9618   21.0502 C.ar    1  UNL1        0.0680
     18 C          -0.1228    1.5304   20.7259 C.ar    1  UNL1        0.0185
     19 C           1.0129    1.1992   19.8037 C.ar    1  UNL1        0.0129
     20 C           1.8388    2.2994   19.2059 C.ar    1  UNL1        0.0578
     21 CL          2.9746    1.9683   18.2837 Cl      1  UNL1       -0.0822
     22 C           1.5290    3.7308   19.5302 C.ar    1  UNL1        0.0129
     23 C           0.3933    4.0620   20.4524 C.ar    1  UNL1        0.0185
     24 C          -0.1929    1.3326   25.5235 C.3     1  UNL1        0.0938
     25 C           0.0813    1.5654   26.9797 C.3     1  UNL1        0.0234
     26 C          -0.5905    0.7130   28.0151 C.3     1  UNL1        0.0271
     27 C          -0.3162    0.9459   29.4713 C.3     1  UNL1        0.1509
     28 S           0.6298    2.0312   29.8921 S.O2    1  UNL1       -0.0100
     29 O           1.4403    2.9287   30.7796 O.2     1  UNL1       -0.1730
     30 O           0.2395    1.4905   31.2358 O.2     1  UNL1       -0.1730
     31 C           1.3016    2.8836   28.8567 C.3     1  UNL1        0.1509
     32 C           1.0274    2.6507   27.4005 C.3     1  UNL1        0.0271
     33 C           2.3737    0.1929   24.4680 C.3     1  UNL1        0.1116
     34 C           3.1127   -0.7355   23.5506 C.ar    1  UNL1       -0.0130
     35 C           4.0154   -1.7902   24.1187 C.ar    1  UNL1       -0.0015
     36 C           4.7544   -2.7187   23.2012 C.ar    1  UNL1        0.0293
     37 C           4.5906   -2.5925   21.7155 C.ar    1  UNL1        0.1440
     38 F           5.3296   -3.5210   20.7980 F       1  UNL1       -0.2042
     39 C           3.6879   -1.5379   21.1473 C.ar    1  UNL1        0.0985
     40 C           2.9489   -0.6094   22.0648 C.ar    1  UNL1        0.0023
     41 C           3.5242   -1.4117   19.6617 C.3     1  UNL1        0.4207
     42 F           3.3603   -1.2856   18.1759 F       1  UNL1       -0.1658
     43 F           4.9066   -0.8391   19.5579 F       1  UNL1       -0.1658
     44 F           2.1417   -1.9843   19.7654 F       1  UNL1       -0.1658
@<TRIPOS>BOND
     1     5     4    1
     2     5     6    1
     3     6     7   ar
     4     7     8   ar
     5     8     9   ar
     6     9    10   ar
     7    10    11   ar
     8    11    12   ar
     9    12    13   ar
    10    13    14   ar
    11    14    15    2
    12    14    16   ar
    13    16    17    1
    14    17    18   ar
    15    18    19   ar
    16    19    20   ar
    17    20    21    1
    18    20    22   ar
    19    22    23   ar
    20     5     1    1
    21     1    24    1
    22    24    25    1
    23    25    26    1
    24    26    27    1
    25    27    28    1
    26    28    29    2
    27    28    30    2
    28    28    31    1
    29    31    32    1
    30     1     2   am
    31     2     3    2
    32     2    33    1
    33    33    34    1
    34    34    35   ar
    35    35    36   ar
    36    36    37   ar
    37    37    38    1
    38    37    39   ar
    39    39    41    1
    40    41    42    1
    41    41    43    1
    42    41    44    1
    43    39    40   ar
    44    16     6   ar
    45    23    17   ar
    46    32    25    1
    47    40    34   ar
    48    13     8   ar
@<TRIPOS>MOLECULE
*****
 44 48 0 0 0
SMALL
GASTEIGER

@<TRIPOS>ATOM
      1 N           4.1728   -0.7891   23.5410 N.am    1  UNL1       -0.2741
      2 C           3.3504    0.3727   24.0143 C.2     1  UNL1        0.2303
      3 O           3.9410    1.3722   24.9640 O.2     1  UNL1       -0.2745
      4 C           6.5574    0.1837   23.8835 C.3     1  UNL1        0.0297
      5 C           5.5859   -0.9512   24.0174 C.3     1  UNL1        0.1325
      6 C           6.0274   -2.2484   24.6278 C.ar    1  UNL1        0.1462
      7 N           6.6500   -3.3083   23.7683 N.ar    1  UNL1       -0.2114
      8 C           7.0915   -4.6054   24.3787 C.ar    1  UNL1        0.1682
      9 N           7.7142   -5.6653   23.5191 N.ar    1  UNL1       -0.2249
     10 C           8.1557   -6.9624   24.1295 C.ar    1  UNL1        0.1006
     11 C           7.9745   -7.1995   25.5995 C.ar    1  UNL1        0.0209
     12 C           7.3518   -6.1397   26.4591 C.ar    1  UNL1        0.0094
     13 C           6.9104   -4.8426   25.8487 C.ar    1  UNL1        0.0923
     14 C           6.2877   -3.7826   26.7083 C.ar    1  UNL1        0.2685
     15 O           6.1065   -4.0198   28.1783 O.2     1  UNL1       -0.2665
     16 N           5.8462   -2.4856   26.0978 N.ar    1  UNL1       -0.2612
     17 C           5.2235   -1.4256   26.9574 C.ar    1  UNL1        0.0680
     18 C           6.0740   -0.3339   27.5361 C.ar    1  UNL1        0.0185
     19 C           5.4514    0.7260   28.3956 C.ar    1  UNL1        0.0129
     20 C           3.9783    0.6943   28.6765 C.ar    1  UNL1        0.0578
     21 CL          3.3557    1.7543   29.5361 Cl      1  UNL1       -0.0822
     22 C           3.1278   -0.3974   28.0978 C.ar    1  UNL1        0.0129
     23 C           3.7504   -1.4573   27.2383 C.ar    1  UNL1        0.0185
     24 C           3.5822   -1.7887   22.5913 C.3     1  UNL1        0.0938
     25 C           3.9954   -1.7883   21.1493 C.3     1  UNL1        0.0234
     26 C           3.1751   -1.0490   20.1342 C.3     1  UNL1        0.0271
     27 C           3.5883   -1.0486   18.6923 C.3     1  UNL1        0.1509
     28 S           4.8218   -1.7875   18.2654 S.O2    1  UNL1       -0.0100
     29 O           5.9006   -2.3359   17.3790 O.2     1  UNL1       -0.1730
     30 O           4.3761   -1.2386   16.9424 O.2     1  UNL1       -0.1730
     31 C           5.6422   -2.5269   19.2804 C.3     1  UNL1        0.1509
     32 C           5.2289   -2.5273   20.7224 C.3     1  UNL1        0.0271
     33 C           1.9373    0.5348   23.5378 C.3     1  UNL1        0.1116
     34 C           0.9291    1.2304   24.4036 C.ar    1  UNL1       -0.0130
     35 C           0.0226    2.2692   23.8127 C.ar    1  UNL1       -0.0015
     36 C          -0.9857    2.9648   24.6785 C.ar    1  UNL1        0.0293
     37 C          -1.0875    2.6216   26.1351 C.ar    1  UNL1        0.1440
     38 F          -2.0957    3.3172   27.0008 F       1  UNL1       -0.2042
     39 C          -0.1810    1.5827   26.7260 C.ar    1  UNL1        0.0985
     40 C           0.8272    0.8871   25.8603 C.ar    1  UNL1        0.0023
     41 C          -0.2828    1.2395   28.1826 C.3     1  UNL1        0.4207
     42 F          -0.3846    0.8962   29.6393 F       1  UNL1       -0.1658
     43 F          -0.9382   -0.0628   27.8299 F       1  UNL1       -0.1658
     44 F           0.3726    2.5417   28.5353 F       1  UNL1       -0.1658
@<TRIPOS>BOND
     1     5     4    1
     2     5     6    1
     3     6     7   ar
     4     7     8   ar
     5     8     9   ar
     6     9    10   ar
     7    10    11   ar
     8    11    12   ar
     9    12    13   ar
    10    13    14   ar
    11    14    15    2
    12    14    16   ar
    13    16    17    1
    14    17    18   ar
    15    18    19   ar
    16    19    20   ar
    17    20    21    1
    18    20    22   ar
    19    22    23   ar
    20     5     1    1
    21     1    24    1
    22    24    25    1
    23    25    26    1
    24    26    27    1
    25    27    28    1
    26    28    29    2
    27    28    30    2
    28    28    31    1
    29    31    32    1
    30     1     2   am
    31     2     3    2
    32     2    33    1
    33    33    34    1
    34    34    35   ar
    35    35    36   ar
    36    36    37   ar
    37    37    38    1
    38    37    39   ar
    39    39    41    1
    40    41    42    1
    41    41    43    1
    42    41    44    1
    43    39    40   ar
    44    16     6   ar
    45    23    17   ar
    46    32    25    1
    47    40    34   ar
    48    13     8   ar
@<TRIPOS>MOLECULE
*****
 44 48 0 0 0
SMALL
GASTEIGER

@<TRIPOS>ATOM
      1 N           4.9297   -1.1200   25.4904 N.am    1  UNL1       -0.2741
      2 C           4.9469   -0.9740   23.9976 C.2     1  UNL1        0.2303
      3 O           6.2506   -0.8046   23.2755 O.2     1  UNL1       -0.2745
      4 C           7.1478    0.0718   26.1305 C.3     1  UNL1        0.0297
      5 C           6.2164   -1.0967   26.2611 C.3     1  UNL1        0.1325
      6 C           6.5716   -2.2420   27.1624 C.ar    1  UNL1        0.1462
      7 N           6.2716   -2.1625   28.6299 N.ar    1  UNL1       -0.2114
      8 C           6.6268   -3.3078   29.5312 C.ar    1  UNL1        0.1682
      9 N           6.3268   -3.2283   30.9987 N.ar    1  UNL1       -0.2249
     10 C           6.6821   -4.3735   31.8999 C.ar    1  UNL1        0.1006
     11 C           7.3373   -5.5983   31.3336 C.ar    1  UNL1        0.0209
     12 C           7.6373   -5.6777   29.8660 C.ar    1  UNL1        0.0094
     13 C           7.2821   -4.5325   28.9649 C.ar    1  UNL1        0.0923
     14 C           7.5821   -4.6119   27.4973 C.ar    1  UNL1        0.2685
     15 O           8.2373   -5.8367   26.9309 O.2     1  UNL1       -0.2665
     16 N           7.2269   -3.4667   26.5961 N.ar    1  UNL1       -0.2612
     17 C           7.5269   -3.5462   25.1285 C.ar    1  UNL1        0.0680
     18 C           8.8120   -2.9866   24.5943 C.ar    1  UNL1        0.0185
     19 C           9.1120   -3.0660   23.1268 C.ar    1  UNL1        0.0129
     20 C           8.1269   -3.7050   22.1935 C.ar    1  UNL1        0.0578
     21 CL          8.4269   -3.7844   20.7259 Cl      1  UNL1       -0.0822
     22 C           6.8418   -4.2646   22.7276 C.ar    1  UNL1        0.0129
     23 C           6.5418   -4.1851   24.1951 C.ar    1  UNL1        0.0185
     24 C           3.6259   -1.2893   26.2125 C.3     1  UNL1        0.0938
     25 C           3.1769   -0.2554   27.2021 C.3     1  UNL1        0.0234
     26 C           2.5651   -0.6795   28.5044 C.3     1  UNL1        0.0271
     27 C           2.1160    0.3544   29.4940 C.3     1  UNL1        0.1509
     28 S           2.2787    1.8124   29.1814 S.O2    1  UNL1       -0.0100
     29 O           2.2222    3.3029   29.3403 O.2     1  UNL1       -0.1730
     30 O           1.6473    1.9059   30.5389 O.2     1  UNL1       -0.1730
     31 C           2.8905    2.2364   27.8792 C.3     1  UNL1        0.1509
     32 C           3.3396    1.2025   26.8896 C.3     1  UNL1        0.0271
     33 C           3.6602   -0.9972   23.2269 C.3     1  UNL1        0.1116
     34 C           3.6831   -1.1284   21.7329 C.ar    1  UNL1       -0.0130
     35 C           3.3864    0.0628   20.8708 C.ar    1  UNL1       -0.0015
     36 C           3.4093   -0.0684   19.3767 C.ar    1  UNL1        0.0293
     37 C           3.7289   -1.3907   18.7447 C.ar    1  UNL1        0.1440
     38 F           3.7518   -1.5218   17.2507 F       1  UNL1       -0.2042
     39 C           4.0256   -2.5818   19.6068 C.ar    1  UNL1        0.0985
     40 C           4.0027   -2.4507   21.1008 C.ar    1  UNL1        0.0023
     41 C           4.3452   -3.9041   18.9748 C.3     1  UNL1        0.4207
     42 F           4.6648   -5.2264   18.3428 F       1  UNL1       -0.1658
     43 F           2.8970   -4.2883   19.0465 F       1  UNL1       -0.1658
     44 F           5.7933   -3.5198   18.9031 F       1  UNL1       -0.1658
@<TRIPOS>BOND
     1     5     4    1
     2     5     6    1
     3     6     7   ar
     4     7     8   ar
     5     8     9   ar
     6     9    10   ar
     7    10    11   ar
     8    11    12   ar
     9    12    13   ar
    10    13    14   ar
    11    14    15    2
    12    14    16   ar
    13    16    17    1
    14    17    18   ar
    15    18    19   ar
    16    19    20   ar
    17    20    21    1
    18    20    22   ar
    19    22    23   ar
    20     5     1    1
    21     1    24    1
    22    24    25    1
    23    25    26    1
    24    26    27    1
    25    27    28    1
    26    28    29    2
    27    28    30    2
    28    28    31    1
    29    31    32    1
    30     1     2   am
    31     2     3    2
    32     2    33    1
    33    33    34    1
    34    34    35   ar
    35    35    36   ar
    36    36    37   ar
    37    37    38    1
    38    37    39   ar
    39    39    41    1
    40    41    42    1
    41    41    43    1
    42    41    44    1
    43    39    40   ar
    44    16     6   ar
    45    23    17   ar
    46    32    25    1
    47    40    34   ar
    48    13     8   ar
@<TRIPOS>MOLECULE
*****
 44 48 0 0 0
SMALL
GASTEIGER

@<TRIPOS>ATOM
      1 N           0.4288    1.6428   22.2815 N.am    1  UNL1       -0.2741
      2 C           0.1304    1.1550   20.8947 C.2     1  UNL1        0.2303
      3 O          -0.5765    2.0502   19.9206 O.2     1  UNL1       -0.2745
      4 C           1.0225    4.1418   22.6722 C.3     1  UNL1        0.0297
      5 C           0.0204    3.0259   22.6941 C.3     1  UNL1        0.1325
      6 C          -1.3903    3.2931   23.1285 C.ar    1  UNL1        0.1462
      7 N          -2.4554    3.5474   22.1034 N.ar    1  UNL1       -0.2114
      8 C          -3.8660    3.8146   22.5379 C.ar    1  UNL1        0.1682
      9 N          -4.9311    4.0689   21.5128 N.ar    1  UNL1       -0.2249
     10 C          -6.3417    4.3361   21.9473 C.ar    1  UNL1        0.1006
     11 C          -6.6872    4.3489   23.4069 C.ar    1  UNL1        0.0209
     12 C          -5.6221    4.0946   24.4320 C.ar    1  UNL1        0.0094
     13 C          -4.2115    3.8274   23.9975 C.ar    1  UNL1        0.0923
     14 C          -3.1464    3.5731   25.0226 C.ar    1  UNL1        0.2685
     15 O          -3.4919    3.5859   26.4822 O.2     1  UNL1       -0.2665
     16 N          -1.7358    3.3059   24.5881 N.ar    1  UNL1       -0.2612
     17 C          -0.6706    3.0516   25.6133 C.ar    1  UNL1        0.0680
     18 C          -0.4204    1.6566   26.1046 C.ar    1  UNL1        0.0185
     19 C           0.6447    1.4022   27.1297 C.ar    1  UNL1        0.0129
     20 C           1.4595    2.5428   27.6634 C.ar    1  UNL1        0.0578
     21 CL          2.5247    2.2885   28.6886 Cl      1  UNL1       -0.0822
     22 C           1.2093    3.9378   27.1721 C.ar    1  UNL1        0.0129
     23 C           0.1442    4.1922   26.1470 C.ar    1  UNL1        0.0185
     24 C           1.1357    0.7476   23.2555 C.3     1  UNL1        0.0938
     25 C           2.5925    0.4411   23.0716 C.3     1  UNL1        0.0234
     26 C           3.4809    1.4190   22.3614 C.3     1  UNL1        0.0271
     27 C           4.9376    1.1125   22.1775 C.3     1  UNL1        0.1509
     28 S           5.5061   -0.1720   22.7037 S.O2    1  UNL1       -0.0100
     29 O           6.5033   -1.2465   23.0216 O.2     1  UNL1       -0.1730
     30 O           6.7408    0.4328   22.1039 O.2     1  UNL1       -0.1730
     31 C           4.6177   -1.1500   23.4138 C.3     1  UNL1        0.1509
     32 C           3.1609   -0.8434   23.5978 C.3     1  UNL1        0.0271
     33 C           0.5388   -0.2281   20.4821 C.3     1  UNL1        0.1116
     34 C           1.8114   -0.4372   19.7160 C.ar    1  UNL1       -0.0130
     35 C           2.2426    0.5680   18.6895 C.ar    1  UNL1       -0.0015
     36 C           3.5152    0.3589   17.9234 C.ar    1  UNL1        0.0293
     37 C           4.3565   -0.8553   18.1838 C.ar    1  UNL1        0.1440
     38 F           5.6290   -1.0644   17.4176 F       1  UNL1       -0.2042
     39 C           3.9252   -1.8605   19.2102 C.ar    1  UNL1        0.0985
     40 C           2.6527   -1.6515   19.9763 C.ar    1  UNL1        0.0023
     41 C           4.7665   -3.0748   19.4705 C.3     1  UNL1        0.4207
     42 F           5.6077   -4.2891   19.7309 F       1  UNL1       -0.1658
     43 F           5.8178   -2.2110   20.1017 F       1  UNL1       -0.1658
     44 F           3.7151   -3.9385   18.8393 F       1  UNL1       -0.1658
@<TRIPOS>BOND
     1     5     4    1
     2     5     6    1
     3     6     7   ar
     4     7     8   ar
     5     8     9   ar
     6     9    10   ar
     7    10    11   ar
     8    11    12   ar
     9    12    13   ar
    10    13    14   ar
    11    14    15    2
    12    14    16   ar
    13    16    17    1
    14    17    18   ar
    15    18    19   ar
    16    19    20   ar
    17    20    21    1
    18    20    22   ar
    19    22    23   ar
    20     5     1    1
    21     1    24    1
    22    24    25    1
    23    25    26    1
    24    26    27    1
    25    27    28    1
    26    28    29    2
    27    28    30    2
    28    28    31    1
    29    31    32    1
    30     1     2   am
    31     2     3    2
    32     2    33    1
    33    33    34    1
    34    34    35   ar
    35    35    36   ar
    36    36    37   ar
    37    37    38    1
    38    37    39   ar
    39    39    41    1
    40    41    42    1
    41    41    43    1
    42    41    44    1
    43    39    40   ar
    44    16     6   ar
    45    23    17   ar
    46    32    25    1
    47    40    34   ar
    48    13     8   ar
@<TRIPOS>MOLECULE
*****
 44 48 0 0 0
SMALL
GASTEIGER

@<TRIPOS>ATOM
      1 N           0.1993    2.3310   24.3949 N.am    1  UNL1       -0.2741
      2 C          -0.8775    3.3724   24.3167 C.2     1  UNL1        0.2303
      3 O          -0.7139    4.5535   23.4067 O.2     1  UNL1       -0.2745
      4 C           2.2771    3.7107   23.6675 C.3     1  UNL1        0.0297
      5 C           1.4396    2.4707   23.5629 C.3     1  UNL1        0.1325
      6 C           1.8425    1.3704   22.6264 C.ar    1  UNL1        0.1462
      7 N           2.6925    0.2379   23.1212 N.ar    1  UNL1       -0.2114
      8 C           3.0953   -0.8624   22.1847 C.ar    1  UNL1        0.1682
      9 N           3.9453   -1.9949   22.6795 N.ar    1  UNL1       -0.2249
     10 C           4.3481   -3.0951   21.7430 C.ar    1  UNL1        0.1006
     11 C           3.9008   -3.0629   20.3116 C.ar    1  UNL1        0.0209
     12 C           3.0508   -1.9305   19.8167 C.ar    1  UNL1        0.0094
     13 C           2.6480   -0.8302   20.7533 C.ar    1  UNL1        0.0923
     14 C           1.7980    0.3023   20.2584 C.ar    1  UNL1        0.2685
     15 O           1.3507    0.3345   18.8270 O.2     1  UNL1       -0.2665
     16 N           1.3952    1.4026   21.1950 N.ar    1  UNL1       -0.2612
     17 C           0.5451    2.5351   20.7001 C.ar    1  UNL1        0.0680
     18 C           1.1870    3.8152   20.2537 C.ar    1  UNL1        0.0185
     19 C           0.3370    4.9477   19.7589 C.ar    1  UNL1        0.0129
     20 C          -1.1549    4.8001   19.7105 C.ar    1  UNL1        0.0578
     21 CL         -2.0049    5.9327   19.2156 Cl      1  UNL1       -0.0822
     22 C          -1.7968    3.5201   20.1569 C.ar    1  UNL1        0.0129
     23 C          -0.9468    2.3875   20.6517 C.ar    1  UNL1        0.0185
     24 C           0.0358    1.1499   25.3049 C.3     1  UNL1        0.0938
     25 C           0.3449    1.2810   26.7668 C.3     1  UNL1        0.0234
     26 C          -0.6817    0.8904   27.7884 C.3     1  UNL1        0.0271
     27 C          -0.3726    1.0215   29.2504 C.3     1  UNL1        0.1509
     28 S           0.9630    1.5433   29.6907 S.O2    1  UNL1       -0.0100
     29 O           2.0764    1.9823   30.5950 O.2     1  UNL1       -0.1730
     30 O           0.3231    1.3051   31.0264 O.2     1  UNL1       -0.1730
     31 C           1.9895    1.9339   28.6692 C.3     1  UNL1        0.1509
     32 C           1.6804    1.8027   27.2072 C.3     1  UNL1        0.0271
     33 C          -2.1178    3.2327   25.1487 C.3     1  UNL1        0.1116
     34 C          -3.4568    3.5660   24.5606 C.ar    1  UNL1       -0.0130
     35 C          -4.6110    3.8930   25.4611 C.ar    1  UNL1       -0.0015
     36 C          -5.9501    4.2263   24.8730 C.ar    1  UNL1        0.0293
     37 C          -6.1349    4.2327   23.3845 C.ar    1  UNL1        0.1440
     38 F          -7.4739    4.5660   22.7964 F       1  UNL1       -0.2042
     39 C          -4.9807    3.9057   22.4840 C.ar    1  UNL1        0.0985
     40 C          -3.6416    3.5724   23.0720 C.ar    1  UNL1        0.0023
     41 C          -5.1655    3.9121   20.9955 C.3     1  UNL1        0.4207
     42 F          -5.3503    3.9184   19.5068 F       1  UNL1       -0.1658
     43 F          -5.3980    5.3935   21.0307 F       1  UNL1       -0.1658
     44 F          -4.9330    2.4307   20.9602 F       1  UNL1       -0.1658
@<TRIPOS>BOND
     1     5     4    1
     2     5     6    1
     3     6     7   ar
     4     7     8   ar
     5     8     9   ar
     6     9    10   ar
     7    10    11   ar
     8    11    12   ar
     9    12    13   ar
    10    13    14   ar
    11    14    15    2
    12    14    16   ar
    13    16    17    1
    14    17    18   ar
    15    18    19   ar
    16    19    20   ar
    17    20    21    1
    18    20    22   ar
    19    22    23   ar
    20     5     1    1
    21     1    24    1
    22    24    25    1
    23    25    26    1
    24    26    27    1
    25    27    28    1
    26    28    29    2
    27    28    30    2
    28    28    31    1
    29    31    32    1
    30     1     2   am
    31     2     3    2
    32     2    33    1
    33    33    34    1
    34    34    35   ar
    35    35    36   ar
    36    36    37   ar
    37    37    38    1
    38    37    39   ar
    39    39    41    1
    40    41    42    1
    41    41    43    1
    42    41    44    1
    43    39    40   ar
    44    16     6   ar
    45    23    17   ar
    46    32    25    1
    47    40    34   ar
    48    13     8   ar
@<TRIPOS>MOLECULE
*****
 44 48 0 0 0
SMALL
GASTEIGER

@<TRIPOS>ATOM
      1 N           0.4808    1.5190   21.7938 N.am    1  UNL1       -0.2741
      2 C           0.7019    0.8057   20.4928 C.2     1  UNL1        0.2303
      3 O           0.4995    1.5314   19.1958 O.2     1  UNL1       -0.2745
      4 C           1.0914    4.0442   21.7852 C.3     1  UNL1        0.0297
      5 C           0.0572    2.9579   21.7976 C.3     1  UNL1        0.1325
      6 C          -1.4007    3.3105   21.8139 C.ar    1  UNL1        0.1462
      7 N          -2.1938    3.2808   20.5410 N.ar    1  UNL1       -0.2114
      8 C          -3.6517    3.6334   20.5573 C.ar    1  UNL1        0.1682
      9 N          -4.4447    3.6036   19.2844 N.ar    1  UNL1       -0.2249
     10 C          -5.9026    3.9562   19.3007 C.ar    1  UNL1        0.1006
     11 C          -6.5674    4.3385   20.5898 C.ar    1  UNL1        0.0209
     12 C          -5.7744    4.3683   21.8627 C.ar    1  UNL1        0.0094
     13 C          -4.3165    4.0157   21.8464 C.ar    1  UNL1        0.0923
     14 C          -3.5234    4.0454   23.1193 C.ar    1  UNL1        0.2685
     15 O          -4.1882    4.4278   24.4084 O.2     1  UNL1       -0.2665
     16 N          -2.0656    3.6929   23.1030 N.ar    1  UNL1       -0.2612
     17 C          -1.2724    3.7226   24.3759 C.ar    1  UNL1        0.0680
     18 C          -0.4805    4.9440   24.7377 C.ar    1  UNL1        0.0185
     19 C           0.3126    4.9738   26.0105 C.ar    1  UNL1        0.0129
     20 C           0.3137    3.7822   26.9215 C.ar    1  UNL1        0.0578
     21 CL          1.1069    3.8119   28.1944 Cl      1  UNL1       -0.0822
     22 C          -0.4782    2.5608   26.5597 C.ar    1  UNL1        0.0129
     23 C          -1.2713    2.5310   25.2869 C.ar    1  UNL1        0.0185
     24 C           0.6832    0.7933   23.0908 C.3     1  UNL1        0.0938
     25 C           2.0196    0.8315   23.7710 C.3     1  UNL1        0.0234
     26 C           2.8585   -0.4096   23.8465 C.3     1  UNL1        0.0271
     27 C           4.1949   -0.3713   24.5267 C.3     1  UNL1        0.1509
     28 S           4.6923    0.9081   25.1314 S.O2    1  UNL1       -0.0100
     29 O           5.5893    1.8728   25.8489 O.2     1  UNL1       -0.1730
     30 O           5.8428    0.0019   25.4561 O.2     1  UNL1       -0.1730
     31 C           3.8534    2.1492   25.0559 C.3     1  UNL1        0.1509
     32 C           2.5170    2.1109   24.3757 C.3     1  UNL1        0.0271
     33 C           1.1255   -0.6332   20.4889 C.3     1  UNL1        0.1116
     34 C           2.5544   -0.9937   20.2089 C.ar    1  UNL1       -0.0130
     35 C           3.6363    0.0283   20.3962 C.ar    1  UNL1       -0.0015
     36 C           5.0652   -0.3322   20.1162 C.ar    1  UNL1        0.0293
     37 C           5.4121   -1.7146   19.6487 C.ar    1  UNL1        0.1440
     38 F           6.8409   -2.0751   19.3687 F       1  UNL1       -0.2042
     39 C           4.3302   -2.7366   19.4614 C.ar    1  UNL1        0.0985
     40 C           2.9014   -2.3761   19.7414 C.ar    1  UNL1        0.0023
     41 C           4.6771   -4.1190   18.9939 C.3     1  UNL1        0.4207
     42 F           5.0241   -5.5015   18.5264 F       1  UNL1       -0.1658
     43 F           4.0006   -4.6971   20.2015 F       1  UNL1       -0.1658
     44 F           5.3535   -3.5409   17.7864 F       1  UNL1       -0.1658
@<TRIPOS>BOND
     1     5     4    1
     2     5     6    1
     3     6     7   ar
     4     7     8   ar
     5     8     9   ar
     6     9    10   ar
     7    10    11   ar
     8    11    12   ar
     9    12    13   ar
    10    13    14   ar
    11    14    15    2
    12    14    16   ar
    13    16    17    1
    14    17    18   ar
    15    18    19   ar
    16    19    20   ar
    17    20    21    1
    18    20    22   ar
    19    22    23   ar
    20     5     1    1
    21     1    24    1
    22    24    25    1
    23    25    26    1
    24    26    27    1
    25    27    28    1
    26    28    29    2
    27    28    30    2
    28    28    31    1
    29    31    32    1
    30     1     2   am
    31     2     3    2
    32     2    33    1
    33    33    34    1
    34    34    35   ar
    35    35    36   ar
    36    36    37   ar
    37    37    38    1
    38    37    39   ar
    39    39    41    1
    40    41    42    1
    41    41    43    1
    42    41    44    1
    43    39    40   ar
    44    16     6   ar
    45    23    17   ar
    46    32    25    1
    47    40    34   ar
    48    13     8   ar
@<TRIPOS>MOLECULE
*****
 44 48 0 0 0
SMALL
GASTEIGER

@<TRIPOS>ATOM
      1 N           3.1787    0.2051   23.9744 N.am    1  UNL1       -0.2741
      2 C           2.2913    0.8368   22.9431 C.2     1  UNL1        0.2303
      3 O           2.0694    2.3202   22.9518 O.2     1  UNL1       -0.2745
      4 C           4.7136    2.2062   24.5984 C.3     1  UNL1        0.0297
      5 C           3.8442    1.0569   25.0144 C.3     1  UNL1        0.1325
      6 C           3.6403    0.7593   26.4704 C.ar    1  UNL1        0.1462
      7 N           4.6491   -0.0628   27.2163 N.ar    1  UNL1       -0.2114
      8 C           4.4452   -0.3604   28.6724 C.ar    1  UNL1        0.1682
      9 N           5.4541   -1.1824   29.4183 N.ar    1  UNL1       -0.2249
     10 C           5.2501   -1.4800   30.8742 C.ar    1  UNL1        0.1006
     11 C           4.0374   -0.9555   31.5842 C.ar    1  UNL1        0.0209
     12 C           3.0285   -0.1335   30.8383 C.ar    1  UNL1        0.0094
     13 C           3.2325    0.1641   29.3824 C.ar    1  UNL1        0.0923
     14 C           2.2236    0.9862   28.6364 C.ar    1  UNL1        0.2685
     15 O           1.0109    1.5107   29.3464 O.2     1  UNL1       -0.2665
     16 N           2.4276    1.2838   27.1804 N.ar    1  UNL1       -0.2612
     17 C           1.4187    2.1059   26.4344 C.ar    1  UNL1        0.0680
     18 C           1.6309    3.5811   26.2652 C.ar    1  UNL1        0.0185
     19 C           0.6221    4.4032   25.5193 C.ar    1  UNL1        0.0129
     20 C          -0.5988    3.7501   24.9425 C.ar    1  UNL1        0.0578
     21 CL         -1.6077    4.5722   24.1965 Cl      1  UNL1       -0.0822
     22 C          -0.8110    2.2748   25.1117 C.ar    1  UNL1        0.0129
     23 C           0.1978    1.4527   25.8576 C.ar    1  UNL1        0.0185
     24 C           3.4006   -1.2784   23.9657 C.3     1  UNL1        0.0938
     25 C           4.5090   -1.8661   23.1436 C.3     1  UNL1        0.0234
     26 C           5.6210   -0.9899   22.6480 C.3     1  UNL1        0.0271
     27 C           6.7294   -1.5777   21.8259 C.3     1  UNL1        0.1509
     28 S           6.7258   -3.0417   21.4993 S.O2    1  UNL1       -0.0100
     29 O           7.1609   -4.3605   20.9322 O.2     1  UNL1       -0.1730
     30 O           7.9890   -2.6235   20.8067 O.2     1  UNL1       -0.1730
     31 C           5.6138   -3.9179   21.9948 C.3     1  UNL1        0.1509
     32 C           4.5054   -3.3301   22.8170 C.3     1  UNL1        0.0271
     33 C           1.6258   -0.0150   21.9032 C.3     1  UNL1        0.1116
     34 C           2.2651   -0.1928   20.5580 C.ar    1  UNL1       -0.0130
     35 C           2.1736    0.8993   19.5338 C.ar    1  UNL1       -0.0015
     36 C           2.8130    0.7214   18.1885 C.ar    1  UNL1        0.0293
     37 C           3.5437   -0.5486   17.8675 C.ar    1  UNL1        0.1440
     38 F           4.1829   -0.7264   16.5223 F       1  UNL1       -0.2042
     39 C           3.6351   -1.6407   18.8916 C.ar    1  UNL1        0.0985
     40 C           2.9958   -1.4629   20.2368 C.ar    1  UNL1        0.0023
     41 C           4.3658   -2.9107   18.5705 C.3     1  UNL1        0.4207
     42 F           5.0965   -4.1808   18.2494 F       1  UNL1       -0.1658
     43 F           5.6261   -2.1289   18.3461 F       1  UNL1       -0.1658
     44 F           3.1055   -3.6926   18.7949 F       1  UNL1       -0.1658
@<TRIPOS>BOND
     1     5     4    1
     2     5     6    1
     3     6     7   ar
     4     7     8   ar
     5     8     9   ar
     6     9    10   ar
     7    10    11   ar
     8    11    12   ar
     9    12    13   ar
    10    13    14   ar
    11    14    15    2
    12    14    16   ar
    13    16    17    1
    14    17    18   ar
    15    18    19   ar
    16    19    20   ar
    17    20    21    1
    18    20    22   ar
    19    22    23   ar
    20     5     1    1
    21     1    24    1
    22    24    25    1
    23    25    26    1
    24    26    27    1
    25    27    28    1
    26    28    29    2
    27    28    30    2
    28    28    31    1
    29    31    32    1
    30     1     2   am
    31     2     3    2
    32     2    33    1
    33    33    34    1
    34    34    35   ar
    35    35    36   ar
    36    36    37   ar
    37    37    38    1
    38    37    39   ar
    39    39    41    1
    40    41    42    1
    41    41    43    1
    42    41    44    1
    43    39    40   ar
    44    16     6   ar
    45    23    17   ar
    46    32    25    1
    47    40    34   ar
    48    13     8   ar
@<TRIPOS>MOLECULE
*****
 44 48 0 0 0
SMALL
GASTEIGER

@<TRIPOS>ATOM
      1 N           4.3058    0.2978   23.9019 N.am    1  UNL1       -0.2741
      2 C           3.9884    1.6197   24.5360 C.2     1  UNL1        0.2303
      3 O           5.0826    2.4344   25.1596 O.2     1  UNL1       -0.2745
      4 C           6.6982    0.3228   22.8890 C.3     1  UNL1        0.0297
      5 C           5.7174   -0.2093   23.8915 C.3     1  UNL1        0.1325
      6 C           6.1483   -1.2486   24.8837 C.ar    1  UNL1        0.1462
      7 N           6.4521   -0.8543   26.2987 N.ar    1  UNL1       -0.2114
      8 C           6.8830   -1.8935   27.2908 C.ar    1  UNL1        0.1682
      9 N           7.1868   -1.4993   28.7058 N.ar    1  UNL1       -0.2249
     10 C           7.6177   -2.5385   29.6979 C.ar    1  UNL1        0.1006
     11 C           7.7448   -3.9720   29.2750 C.ar    1  UNL1        0.0209
     12 C           7.4410   -4.3663   27.8600 C.ar    1  UNL1        0.0094
     13 C           7.0101   -3.3271   26.8680 C.ar    1  UNL1        0.0923
     14 C           6.7063   -3.7214   25.4529 C.ar    1  UNL1        0.2685
     15 O           6.8334   -5.1549   25.0300 O.2     1  UNL1       -0.2665
     16 N           6.2754   -2.6821   24.4608 N.ar    1  UNL1       -0.2612
     17 C           5.9716   -3.0764   23.0457 C.ar    1  UNL1        0.0680
     18 C           7.0388   -2.9835   21.9957 C.ar    1  UNL1        0.0185
     19 C           6.7350   -3.3777   20.5807 C.ar    1  UNL1        0.0129
     20 C           5.3641   -3.8649   20.2157 C.ar    1  UNL1        0.0578
     21 CL          5.0603   -4.2591   18.8007 Cl      1  UNL1       -0.0822
     22 C           4.2970   -3.9578   21.2658 C.ar    1  UNL1        0.0129
     23 C           4.6007   -3.5635   22.6808 C.ar    1  UNL1        0.0185
     24 C           3.2116   -0.5169   23.2783 C.3     1  UNL1        0.0938
     25 C           2.8199   -0.2784   21.8501 C.3     1  UNL1        0.0234
     26 C           1.4235    0.1571   21.5180 C.3     1  UNL1        0.0271
     27 C           1.0319    0.3955   20.0898 C.3     1  UNL1        0.1509
     28 S           2.0366    0.1985   18.9937 S.O2    1  UNL1       -0.0100
     29 O           2.6277    0.1464   17.6160 O.2     1  UNL1       -0.1730
     30 O           0.8454    0.6159   18.1832 O.2     1  UNL1       -0.1730
     31 C           3.4330   -0.2370   19.3257 C.3     1  UNL1        0.1509
     32 C           3.8247   -0.4755   20.7539 C.3     1  UNL1        0.0271
     33 C           2.5768    2.1268   24.5464 C.3     1  UNL1        0.1116
     34 C           1.6390    1.7124   25.6412 C.ar    1  UNL1       -0.0130
     35 C           0.1713    1.9968   25.5193 C.ar    1  UNL1       -0.0015
     36 C          -0.7665    1.5824   26.6143 C.ar    1  UNL1        0.0293
     37 C          -0.2365    0.8836   27.8311 C.ar    1  UNL1        0.1440
     38 F          -1.1743    0.4692   28.9260 F       1  UNL1       -0.2042
     39 C           1.2312    0.5992   27.9531 C.ar    1  UNL1        0.0985
     40 C           2.1690    1.0136   26.8582 C.ar    1  UNL1        0.0023
     41 C           1.7612   -0.0996   29.1699 C.3     1  UNL1        0.4207
     42 F           2.2912   -0.7984   30.3868 F       1  UNL1       -0.1658
     43 F           2.2802   -1.2105   28.3059 F       1  UNL1       -0.1658
     44 F           1.2421    1.0112   30.0339 F       1  UNL1       -0.1658
@<TRIPOS>BOND
     1     5     4    1
     2     5     6    1
     3     6     7   ar
     4     7     8   ar
     5     8     9   ar
     6     9    10   ar
     7    10    11   ar
     8    11    12   ar
     9    12    13   ar
    10    13    14   ar
    11    14    15    2
    12    14    16   ar
    13    16    17    1
    14    17    18   ar
    15    18    19   ar
    16    19    20   ar
    17    20    21    1
    18    20    22   ar
    19    22    23   ar
    20     5     1    1
    21     1    24    1
    22    24    25    1
    23    25    26    1
    24    26    27    1
    25    27    28    1
    26    28    29    2
    27    28    30    2
    28    28    31    1
    29    31    32    1
    30     1     2   am
    31     2     3    2
    32     2    33    1
    33    33    34    1
    34    34    35   ar
    35    35    36   ar
    36    36    37   ar
    37    37    38    1
    38    37    39   ar
    39    39    41    1
    40    41    42    1
    41    41    43    1
    42    41    44    1
    43    39    40   ar
    44    16     6   ar
    45    23    17   ar
    46    32    25    1
    47    40    34   ar
    48    13     8   ar
@<TRIPOS>MOLECULE
*****
 44 48 0 0 0
SMALL
GASTEIGER

@<TRIPOS>ATOM
      1 N           5.0293    0.2908   33.7308 N.am    1  UNL1       -0.2741
      2 C           5.6118   -0.1262   35.0487 C.2     1  UNL1        0.2303
      3 O           7.0949   -0.2986   35.1923 O.2     1  UNL1       -0.2745
      4 C           6.4040    1.9256   32.2517 C.3     1  UNL1        0.0297
      5 C           5.9299    0.5355   32.5565 C.3     1  UNL1        0.1325
      6 C           6.3565   -0.6100   31.6870 C.ar    1  UNL1        0.1462
      7 N           7.5190   -1.4668   32.0922 N.ar    1  UNL1       -0.2114
      8 C           7.9456   -2.6123   31.2227 C.ar    1  UNL1        0.1682
      9 N           9.1081   -3.4692   31.6280 N.ar    1  UNL1       -0.2249
     10 C           9.5346   -4.6146   30.7585 C.ar    1  UNL1        0.1006
     11 C           8.7986   -4.9031   29.4837 C.ar    1  UNL1        0.0209
     12 C           7.6361   -4.0463   29.0785 C.ar    1  UNL1        0.0094
     13 C           7.2095   -2.9009   29.9480 C.ar    1  UNL1        0.0923
     14 C           6.0470   -2.0440   29.5427 C.ar    1  UNL1        0.2685
     15 O           5.3109   -2.3325   28.2680 O.2     1  UNL1       -0.2665
     16 N           5.6204   -0.8985   30.4122 N.ar    1  UNL1       -0.2612
     17 C           4.4579   -0.0416   30.0070 C.ar    1  UNL1        0.0680
     18 C           4.6970    1.2769   29.3329 C.ar    1  UNL1        0.0185
     19 C           3.5345    2.1338   28.9277 C.ar    1  UNL1        0.0129
     20 C           2.1329    1.6722   29.1965 C.ar    1  UNL1        0.0578
     21 CL          0.9703    2.5291   28.7913 Cl      1  UNL1       -0.0822
     22 C           1.8937    0.3537   29.8706 C.ar    1  UNL1        0.0129
     23 C           3.0562   -0.5032   30.2758 C.ar    1  UNL1        0.0185
     24 C           3.5462    0.4632   33.5873 C.3     1  UNL1        0.0938
     25 C           2.9412    1.8345   33.6474 C.3     1  UNL1        0.0234
     26 C           3.5877    2.9037   34.4772 C.3     1  UNL1        0.0271
     27 C           2.9827    4.2750   34.5373 C.3     1  UNL1        0.1509
     28 S           1.7312    4.5770   33.7676 S.O2    1  UNL1       -0.0100
     29 O           0.5633    5.3427   33.2200 O.2     1  UNL1       -0.1730
     30 O           1.9721    5.9122   34.4072 O.2     1  UNL1       -0.1730
     31 C           1.0846    3.5077   32.9378 C.3     1  UNL1        0.1509
     32 C           1.6896    2.1364   32.8777 C.3     1  UNL1        0.0271
     33 C           4.7112   -0.3709   36.2230 C.3     1  UNL1        0.1116
     34 C           4.3878    0.7495   37.1665 C.ar    1  UNL1       -0.0130
     35 C           5.4870    1.6143   37.7086 C.ar    1  UNL1       -0.0015
     36 C           5.1636    2.7348   38.6521 C.ar    1  UNL1        0.0293
     37 C           3.7410    2.9903   39.0534 C.ar    1  UNL1        0.1440
     38 F           3.4177    4.1107   39.9969 F       1  UNL1       -0.2042
     39 C           2.6419    2.1254   38.5113 C.ar    1  UNL1        0.0985
     40 C           2.9652    1.0050   37.5679 C.ar    1  UNL1        0.0023
     41 C           1.2194    2.3809   38.9127 C.3     1  UNL1        0.4207
     42 F          -0.2032    2.6364   39.3141 F       1  UNL1       -0.1658
     43 F           1.1595    3.5400   37.9625 F       1  UNL1       -0.1658
     44 F           1.2793    1.2219   39.8629 F       1  UNL1       -0.1658
@<TRIPOS>BOND
     1     5     4    1
     2     5     6    1
     3     6     7   ar
     4     7     8   ar
     5     8     9   ar
     6     9    10   ar
     7    10    11   ar
     8    11    12   ar
     9    12    13   ar
    10    13    14   ar
    11    14    15    2
    12    14    16   ar
    13    16    17    1
    14    17    18   ar
    15    18    19   ar
    16    19    20   ar
    17    20    21    1
    18    20    22   ar
    19    22    23   ar
    20     5     1    1
    21     1    24    1
    22    24    25    1
    23    25    26    1
    24    26    27    1
    25    27    28    1
    26    28    29    2
    27    28    30    2
    28    28    31    1
    29    31    32    1
    30     1     2   am
    31     2     3    2
    32     2    33    1
    33    33    34    1
    34    34    35   ar
    35    35    36   ar
    36    36    37   ar
    37    37    38    1
    38    37    39   ar
    39    39    41    1
    40    41    42    1
    41    41    43    1
    42    41    44    1
    43    39    40   ar
    44    16     6   ar
    45    23    17   ar
    46    32    25    1
    47    40    34   ar
    48    13     8   ar
