@<TRIPOS>MOLECULE
*****
 39 42 0 0 0
SMALL
GASTEIGER

@<TRIPOS>ATOM
      1 C          -2.7852    4.6586   22.3621 C.3     1  UNL1        0.1146
      2 C          -2.7791    5.7479   23.3933 C.3     1  UNL1        0.0252
      3 C          -4.1275    5.2740   22.0988 C.3     1  UNL1        0.1183
      4 N          -5.0090    4.7177   21.0201 N.am    1  UNL1       -0.2425
      5 C          -6.3514    5.3331   20.7568 C.3     1  UNL1        0.1183
      6 C          -4.5481    3.5461   20.2048 C.2     1  UNL1        0.4049
      7 O          -5.4297    2.9898   19.1261 O.2     1  UNL1       -0.2262
      8 O          -3.2058    2.9307   20.4680 O.3     1  UNL1       -0.4351
      9 C          -2.3243    3.4870   21.5467 C.3     1  UNL1        0.2040
     10 N           0.0009    3.5831   24.9756 N.am    1  UNL1       -0.2485
     11 C          -1.3436    3.8202   24.3542 C.2     1  UNL1        0.3059
     12 O          -2.5908    3.4560   25.1036 O.2     1  UNL1       -0.2524
     13 N          -1.4407    4.4215   22.9835 N.am    1  UNL1       -0.2867
     14 H           0.8196    3.8221   24.4838 H       1  UNL1        0.1583
     15 H          -0.6220    4.6606   22.4916 H       1  UNL1        0.1510
     16 C           0.0371    1.3918   28.1791 C.ar    1  UNL1        0.0803
     17 S          -0.1854    1.5529   26.7046 S.2     1  UNL1       -0.0488
     18 C           0.0981    2.9818   26.3464 C.ar    1  UNL1        0.1664
     19 N           0.4957    3.7036   27.5997 N.ar    1  UNL1       -0.2282
     20 C           0.4580    2.7210   28.7324 C.ar    1  UNL1        0.0701
     21 C           0.7840    3.0158   30.1666 C.3     1  UNL1        0.0528
     22 C          -1.4237   -0.6349   28.8924 C.3     1  UNL1        0.0779
     23 C          -0.1317    0.1241   28.9629 C.2     1  UNL1        0.1807
     24 O           0.9913   -0.3848   29.8172 O.2     1  UNL1       -0.2908
     25 C          -0.9819    2.8716   21.8100 C.3     1  UNL1        0.1181
     26 N          -0.2446    2.1782   20.7029 N.3     1  UNL1       -0.2696
     27 C          -0.1461    2.8196   19.3505 C.3     1  UNL1        0.0722
     28 C           0.5912    2.1262   18.2435 C.3     1  UNL1        0.0174
     29 C           1.2301    0.7914   18.4889 C.3     1  UNL1        0.0031
     30 C           1.1316    0.1500   19.8412 C.3     1  UNL1        0.0204
     31 C           0.3943    0.8434   20.9483 C.3     1  UNL1        0.0725
     32 C           1.7705   -1.1848   20.0866 C.3     1  UNL1        0.0277
     33 C           3.1746   -1.4404   19.6251 C.ar    1  UNL1       -0.0220
     34 C           3.5233   -2.7441   18.9701 C.ar    1  UNL1       -0.0020
     35 C           4.9275   -2.9997   18.5087 C.ar    1  UNL1        0.0293
     36 C           5.9830   -1.9516   18.7021 C.ar    1  UNL1        0.1401
     37 F           7.3872   -2.2071   18.2407 F       1  UNL1       -0.2042
     38 C           5.6343   -0.6480   19.3571 C.ar    1  UNL1        0.0293
     39 C           4.2301   -0.3924   19.8185 C.ar    1  UNL1       -0.0020
@<TRIPOS>BOND
     1    22    23    1
     2    23    24    2
     3    23    16    1
     4    16    17   ar
     5    17    18   ar
     6    18    10    1
     7    10    11   am
     8    11    12    2
     9    11    13   am
    10    13     1    1
    11     1     2    1
    12     1     3    1
    13     3     4    1
    14     4     5    1
    15     4     6   am
    16     6     7    2
    17     6     8    1
    18     8     9    1
    19     9    25    1
    20    25    26    1
    21    26    27    1
    22    27    28    1
    23    28    29    1
    24    29    30    1
    25    30    32    1
    26    32    33    1
    27    33    34   ar
    28    34    35   ar
    29    35    36   ar
    30    36    37    1
    31    36    38   ar
    32    38    39   ar
    33    30    31    1
    34    18    19   ar
    35    19    20   ar
    36    20    21    1
    37    20    16   ar
    38     9     1    1
    39    31    26    1
    40    39    33   ar
    41    10    14    1
    42    13    15    1
@<TRIPOS>MOLECULE
*****
 39 42 0 0 0
SMALL
GASTEIGER

@<TRIPOS>ATOM
      1 C          -0.6274    3.2446   19.1463 C.3     1  UNL1        0.1146
      2 C           0.4143    3.4297   18.0830 C.3     1  UNL1        0.0252
      3 C          -1.4883    3.7383   18.0215 C.3     1  UNL1        0.1183
      4 N          -2.9661    3.8977   18.2225 N.am    1  UNL1       -0.2425
      5 C          -3.8271    4.3913   17.0977 C.3     1  UNL1        0.1183
      6 C          -3.5831    3.5634   19.5483 C.2     1  UNL1        0.4049
      7 O          -5.0611    3.7228   19.7492 O.2     1  UNL1       -0.2262
      8 O          -2.7223    3.0698   20.6730 O.3     1  UNL1       -0.4351
      9 C          -1.2444    2.9104   20.4721 C.3     1  UNL1        0.2040
     10 N           2.5254    1.1179   20.2808 N.am    1  UNL1       -0.2485
     11 C           1.3027    1.5473   19.5253 C.2     1  UNL1        0.3059
     12 O           0.7876    0.7087   18.3934 O.2     1  UNL1       -0.2524
     13 N           0.5952    2.8153   19.9018 N.am    1  UNL1       -0.2867
     14 H           2.8635    1.6683   21.0238 H       1  UNL1        0.1583
     15 H           0.9334    3.3657   20.6448 H       1  UNL1        0.1510
     16 C           4.9524   -1.7136   19.2050 C.ar    1  UNL1        0.0803
     17 S           4.6694   -0.2683   19.4889 S.2     1  UNL1       -0.0488
     18 C           3.2329   -0.1501   19.9043 C.ar    1  UNL1        0.1664
     19 N           2.6281   -1.5224   19.8772 N.ar    1  UNL1       -0.2282
     20 C           3.6908   -2.4888   19.4450 C.ar    1  UNL1        0.0701
     21 C           3.5216   -3.9703   19.2815 C.3     1  UNL1        0.0528
     22 C           7.2116   -2.8665   19.7677 C.3     1  UNL1        0.0779
     23 C           6.2662   -2.2838   18.7594 C.2     1  UNL1        0.1807
     24 O           6.6348   -2.2714   17.3054 O.2     1  UNL1       -0.2908
     25 C          -0.3834    2.4167   21.5969 C.3     1  UNL1        0.1181
     26 N          -0.3200    3.1830   22.8848 N.3     1  UNL1       -0.2696
     27 C           0.2839    4.5559   22.9118 C.3     1  UNL1        0.0722
     28 C           0.3473    5.3221   24.1997 C.3     1  UNL1        0.0174
     29 C          -0.1932    4.7156   25.4607 C.3     1  UNL1        0.0031
     30 C          -0.7971    3.3428   25.4337 C.3     1  UNL1        0.0204
     31 C          -0.8605    2.5765   24.1458 C.3     1  UNL1        0.0725
     32 C          -1.3377    2.7362   26.6947 C.3     1  UNL1        0.0277
     33 C          -0.4823    1.8109   27.5084 C.ar    1  UNL1       -0.0220
     34 C          -1.1113    0.6774   28.2631 C.ar    1  UNL1       -0.0020
     35 C          -0.2560   -0.2480   29.0768 C.ar    1  UNL1        0.0293
     36 C           1.2284   -0.0398   29.1358 C.ar    1  UNL1        0.1401
     37 F           2.0837   -0.9652   29.9495 F       1  UNL1       -0.2042
     38 C           1.8573    1.0936   28.3810 C.ar    1  UNL1        0.0293
     39 C           1.0020    2.0190   27.5673 C.ar    1  UNL1       -0.0020
@<TRIPOS>BOND
     1    22    23    1
     2    23    24    2
     3    23    16    1
     4    16    17   ar
     5    17    18   ar
     6    18    10    1
     7    10    11   am
     8    11    12    2
     9    11    13   am
    10    13     1    1
    11     1     2    1
    12     1     3    1
    13     3     4    1
    14     4     5    1
    15     4     6   am
    16     6     7    2
    17     6     8    1
    18     8     9    1
    19     9    25    1
    20    25    26    1
    21    26    27    1
    22    27    28    1
    23    28    29    1
    24    29    30    1
    25    30    32    1
    26    32    33    1
    27    33    34   ar
    28    34    35   ar
    29    35    36   ar
    30    36    37    1
    31    36    38   ar
    32    38    39   ar
    33    30    31    1
    34    18    19   ar
    35    19    20   ar
    36    20    21    1
    37    20    16   ar
    38     9     1    1
    39    31    26    1
    40    39    33   ar
    41    10    14    1
    42    13    15    1
@<TRIPOS>MOLECULE
*****
 39 42 0 0 0
SMALL
GASTEIGER

@<TRIPOS>ATOM
      1 C          -3.2514    3.4449   20.1932 C.3     1  UNL1        0.1146
      2 C          -4.7039    3.2507   20.5137 C.3     1  UNL1        0.0252
      3 C          -3.8589    3.7835   18.8642 C.3     1  UNL1        0.1183
      4 N          -2.9781    4.1752   17.7150 N.am    1  UNL1       -0.2425
      5 C          -3.5855    4.5138   16.3859 C.3     1  UNL1        0.1183
      6 C          -1.4898    4.2284   17.8948 C.2     1  UNL1        0.4049
      7 O          -0.6090    4.6201   16.7455 O.2     1  UNL1       -0.2262
      8 O          -0.8824    3.8898   19.2239 O.3     1  UNL1       -0.4351
      9 C          -1.7632    3.4981   20.3731 C.3     1  UNL1        0.2040
     10 N          -3.5611    3.5436   24.1485 N.am    1  UNL1       -0.2485
     11 C          -3.6641    3.9496   22.7082 C.2     1  UNL1        0.3059
     12 O          -4.2828    5.2662   22.3425 O.2     1  UNL1       -0.2524
     13 N          -3.1484    3.0389   21.6335 N.am    1  UNL1       -0.2867
     14 H          -3.1550    2.6795   24.3885 H       1  UNL1        0.1583
     15 H          -2.7423    2.1748   21.8736 H       1  UNL1        0.1510
     16 C          -5.5741    5.6657   26.7000 C.ar    1  UNL1        0.0803
     17 S          -5.5186    4.6823   25.5688 S.2     1  UNL1       -0.0488
     18 C          -4.0768    4.4543   25.2232 C.ar    1  UNL1        0.1664
     19 N          -3.2413    5.2968   26.1408 N.ar    1  UNL1       -0.2282
     20 C          -4.1667    6.0455   27.0536 C.ar    1  UNL1        0.0701
     21 C          -3.7566    7.0055   28.1308 C.3     1  UNL1        0.0528
     22 C          -7.8084    6.9855   26.5743 C.3     1  UNL1        0.0779
     23 C          -6.8185    6.1791   27.3616 C.2     1  UNL1        0.1807
     24 O          -7.0732    5.8862   28.8106 O.2     1  UNL1       -0.2908
     25 C          -1.1558    3.1595   21.7022 C.3     1  UNL1        0.1181
     26 N           0.0717    2.2999   21.7687 N.3     1  UNL1       -0.2696
     27 C           1.1843    2.6528   22.7108 C.3     1  UNL1        0.0722
     28 C           2.4118    1.7932   22.7772 C.3     1  UNL1        0.0174
     29 C           2.5265    0.5806   21.9016 C.3     1  UNL1        0.0031
     30 C           1.4139    0.2278   20.9596 C.3     1  UNL1        0.0204
     31 C           0.1865    1.0874   20.8931 C.3     1  UNL1        0.0725
     32 C           1.5287   -0.9848   20.0840 C.3     1  UNL1        0.0277
     33 C           2.8505   -1.3473   19.4745 C.ar    1  UNL1       -0.0220
     34 C           3.3946   -0.5437   18.3307 C.ar    1  UNL1       -0.0020
     35 C           4.7164   -0.9063   17.7212 C.ar    1  UNL1        0.0293
     36 C           5.4940   -2.0725   18.2555 C.ar    1  UNL1        0.1401
     37 F           6.8158   -2.4350   17.6461 F       1  UNL1       -0.2042
     38 C           4.9498   -2.8760   19.3992 C.ar    1  UNL1        0.0293
     39 C           3.6280   -2.5135   20.0087 C.ar    1  UNL1       -0.0020
@<TRIPOS>BOND
     1    22    23    1
     2    23    24    2
     3    23    16    1
     4    16    17   ar
     5    17    18   ar
     6    18    10    1
     7    10    11   am
     8    11    12    2
     9    11    13   am
    10    13     1    1
    11     1     2    1
    12     1     3    1
    13     3     4    1
    14     4     5    1
    15     4     6   am
    16     6     7    2
    17     6     8    1
    18     8     9    1
    19     9    25    1
    20    25    26    1
    21    26    27    1
    22    27    28    1
    23    28    29    1
    24    29    30    1
    25    30    32    1
    26    32    33    1
    27    33    34   ar
    28    34    35   ar
    29    35    36   ar
    30    36    37    1
    31    36    38   ar
    32    38    39   ar
    33    30    31    1
    34    18    19   ar
    35    19    20   ar
    36    20    21    1
    37    20    16   ar
    38     9     1    1
    39    31    26    1
    40    39    33   ar
    41    10    14    1
    42    13    15    1
@<TRIPOS>MOLECULE
*****
 39 42 0 0 0
SMALL
GASTEIGER

@<TRIPOS>ATOM
      1 C           3.2846    0.3745   26.2134 C.3     1  UNL1        0.1146
      2 C           3.4826    1.3895   25.1270 C.3     1  UNL1        0.0252
      3 C           2.2286    1.3703   26.5918 C.3     1  UNL1        0.1183
      4 N           1.3653    1.1276   27.7942 N.am    1  UNL1       -0.2425
      5 C           0.3093    2.1235   28.1727 C.3     1  UNL1        0.1183
      6 C           1.5580   -0.1109   28.6182 C.2     1  UNL1        0.4049
      7 O           0.6946   -0.3536   29.8206 O.2     1  UNL1       -0.2262
      8 O           2.6139   -1.1067   28.2398 O.3     1  UNL1       -0.4351
      9 C           3.4772   -0.8640   27.0374 C.3     1  UNL1        0.2040
     10 N           5.3038   -1.4331   23.3143 N.am    1  UNL1       -0.2485
     11 C           4.1791   -0.7898   24.0700 C.2     1  UNL1        0.3059
     12 O           2.8243   -0.6675   23.4381 O.2     1  UNL1       -0.2524
     13 N           4.4093   -0.2688   25.4577 N.am    1  UNL1       -0.2867
     14 H           6.1931   -1.5134   23.7290 H       1  UNL1        0.1583
     15 H           5.2985   -0.3491   25.8724 H       1  UNL1        0.1510
     16 C           5.0431   -2.1417   19.5070 C.ar    1  UNL1        0.0803
     17 S           5.4620   -1.2668   20.6510 S.2     1  UNL1       -0.0488
     18 C           5.0736   -1.9541   21.9266 C.ar    1  UNL1        0.1664
     19 N           4.4147   -3.2537   21.5708 N.ar    1  UNL1       -0.2282
     20 C           4.3958   -3.3697   20.0754 C.ar    1  UNL1        0.0701
     21 C           3.8290   -4.5130   19.2868 C.3     1  UNL1        0.0528
     22 C           4.1833   -1.0901   17.2923 C.3     1  UNL1        0.0779
     23 C           5.2373   -1.8414   18.0503 C.2     1  UNL1        0.1807
     24 O           6.4856   -2.2925   17.3514 O.2     1  UNL1       -0.2908
     25 C           4.5333   -1.8599   26.6589 C.3     1  UNL1        0.1181
     26 N           5.6396   -2.1814   27.6194 N.3     1  UNL1       -0.2696
     27 C           5.9958   -1.2100   28.7055 C.3     1  UNL1        0.0722
     28 C           7.1022   -1.5314   29.6660 C.3     1  UNL1        0.0174
     29 C           7.8524   -2.8243   29.5404 C.3     1  UNL1        0.0031
     30 C           7.4962   -3.7957   28.4544 C.3     1  UNL1        0.0204
     31 C           6.3898   -3.4742   27.4939 C.3     1  UNL1        0.0725
     32 C           8.2464   -5.0885   28.3287 C.3     1  UNL1        0.0277
     33 C           8.3827   -5.7495   26.9891 C.ar    1  UNL1       -0.0220
     34 C           7.6164   -7.0039   26.6903 C.ar    1  UNL1       -0.0020
     35 C           7.7526   -7.6649   25.3507 C.ar    1  UNL1        0.0293
     36 C           8.6551   -7.0713   24.3098 C.ar    1  UNL1        0.1401
     37 F           8.7914   -7.7323   22.9702 F       1  UNL1       -0.2042
     38 C           9.4214   -5.8170   24.6087 C.ar    1  UNL1        0.0293
     39 C           9.2851   -5.1560   25.9483 C.ar    1  UNL1       -0.0020
@<TRIPOS>BOND
     1    22    23    1
     2    23    24    2
     3    23    16    1
     4    16    17   ar
     5    17    18   ar
     6    18    10    1
     7    10    11   am
     8    11    12    2
     9    11    13   am
    10    13     1    1
    11     1     2    1
    12     1     3    1
    13     3     4    1
    14     4     5    1
    15     4     6   am
    16     6     7    2
    17     6     8    1
    18     8     9    1
    19     9    25    1
    20    25    26    1
    21    26    27    1
    22    27    28    1
    23    28    29    1
    24    29    30    1
    25    30    32    1
    26    32    33    1
    27    33    34   ar
    28    34    35   ar
    29    35    36   ar
    30    36    37    1
    31    36    38   ar
    32    38    39   ar
    33    30    31    1
    34    18    19   ar
    35    19    20   ar
    36    20    21    1
    37    20    16   ar
    38     9     1    1
    39    31    26    1
    40    39    33   ar
    41    10    14    1
    42    13    15    1
@<TRIPOS>MOLECULE
*****
 39 42 0 0 0
SMALL
GASTEIGER

@<TRIPOS>ATOM
      1 C          -0.6532    3.2740   19.4027 C.3     1  UNL1        0.1146
      2 C           0.3327    3.5313   18.3020 C.3     1  UNL1        0.0252
      3 C          -1.5784    3.7864   18.3390 C.3     1  UNL1        0.1183
      4 N          -3.0492    3.8945   18.6128 N.am    1  UNL1       -0.2425
      5 C          -3.9744    4.4070   17.5491 C.3     1  UNL1        0.1183
      6 C          -3.5948    3.4902   19.9502 C.2     1  UNL1        0.4049
      7 O          -5.0657    3.5984   20.2240 O.2     1  UNL1       -0.2262
      8 O          -2.6697    2.9778   21.0139 O.3     1  UNL1       -0.4351
      9 C          -1.1989    2.8697   20.7402 C.3     1  UNL1        0.2040
     10 N           2.5673    1.1588   20.3536 N.am    1  UNL1       -0.2485
     11 C           1.2997    1.5818   19.6722 C.2     1  UNL1        0.3059
     12 O           0.7176    0.7359   18.5788 O.2     1  UNL1       -0.2524
     13 N           0.6143    2.8509   20.0842 N.am    1  UNL1       -0.2867
     14 H           2.9493    1.7140   21.0712 H       1  UNL1        0.1583
     15 H           0.9964    3.4061   20.8018 H       1  UNL1        0.1510
     16 C           4.9473   -1.6849   19.2068 C.ar    1  UNL1        0.0803
     17 S           4.6908   -0.2442   19.5363 S.2     1  UNL1       -0.0488
     18 C           3.2527   -0.1103   19.9416 C.ar    1  UNL1        0.1664
     19 N           2.6205   -1.4682   19.8625 N.ar    1  UNL1       -0.2282
     20 C           3.6678   -2.4414   19.4084 C.ar    1  UNL1        0.0701
     21 C           3.4702   -3.9128   19.1936 C.3     1  UNL1        0.0528
     22 C           7.1705   -2.9144   19.7503 C.3     1  UNL1        0.0779
     23 C           6.2538   -2.2669   18.7551 C.2     1  UNL1        0.1807
     24 O           6.6437   -2.2015   17.3081 O.2     1  UNL1       -0.2908
     25 C          -0.2737    2.3572   21.8039 C.3     1  UNL1        0.1181
     26 N          -0.2084    3.0442   23.1357 N.3     1  UNL1       -0.2696
     27 C           0.9672    3.9119   23.4752 C.3     1  UNL1        0.0722
     28 C           1.0324    4.5990   24.8070 C.3     1  UNL1        0.0174
     29 C          -0.0779    4.4183   25.7993 C.3     1  UNL1        0.0031
     30 C          -1.2534    3.5506   25.4598 C.3     1  UNL1        0.0204
     31 C          -1.3186    2.8636   24.1280 C.3     1  UNL1        0.0725
     32 C          -2.3637    3.3700   26.4522 C.3     1  UNL1        0.0277
     33 C          -3.6691    4.0820   26.2548 C.ar    1  UNL1       -0.0220
     34 C          -4.0286    5.2456   27.1306 C.ar    1  UNL1       -0.0020
     35 C          -5.3341    5.9576   26.9332 C.ar    1  UNL1        0.0293
     36 C          -6.2800    5.5059   25.8602 C.ar    1  UNL1        0.1401
     37 F          -7.5854    6.2179   25.6629 F       1  UNL1       -0.2042
     38 C          -5.9204    4.3424   24.9845 C.ar    1  UNL1        0.0293
     39 C          -4.6150    3.6304   25.1819 C.ar    1  UNL1       -0.0020
@<TRIPOS>BOND
     1    22    23    1
     2    23    24    2
     3    23    16    1
     4    16    17   ar
     5    17    18   ar
     6    18    10    1
     7    10    11   am
     8    11    12    2
     9    11    13   am
    10    13     1    1
    11     1     2    1
    12     1     3    1
    13     3     4    1
    14     4     5    1
    15     4     6   am
    16     6     7    2
    17     6     8    1
    18     8     9    1
    19     9    25    1
    20    25    26    1
    21    26    27    1
    22    27    28    1
    23    28    29    1
    24    29    30    1
    25    30    32    1
    26    32    33    1
    27    33    34   ar
    28    34    35   ar
    29    35    36   ar
    30    36    37    1
    31    36    38   ar
    32    38    39   ar
    33    30    31    1
    34    18    19   ar
    35    19    20   ar
    36    20    21    1
    37    20    16   ar
    38     9     1    1
    39    31    26    1
    40    39    33   ar
    41    10    14    1
    42    13    15    1
@<TRIPOS>MOLECULE
*****
 39 42 0 0 0
SMALL
GASTEIGER

@<TRIPOS>ATOM
      1 C           3.2059    0.3477   26.2156 C.3     1  UNL1        0.1146
      2 C           3.2655    1.3059   25.0631 C.3     1  UNL1        0.0252
      3 C           2.0631    1.2525   26.5697 C.3     1  UNL1        0.1183
      4 N           1.2648    1.0003   27.8143 N.am    1  UNL1       -0.2425
      5 C           0.1220    1.9051   28.1685 C.3     1  UNL1        0.1183
      6 C           1.6093   -0.1566   28.7047 C.2     1  UNL1        0.4049
      7 O           0.8109   -0.4088   29.9494 O.2     1  UNL1       -0.2262
      8 O           2.7520   -1.0614   28.3506 O.3     1  UNL1       -0.4351
      9 C           3.5503   -0.8092   27.1060 C.3     1  UNL1        0.2040
     10 N           5.3321   -1.3542   23.3289 N.am    1  UNL1       -0.2485
     11 C           4.1686   -0.7822   24.0833 C.2     1  UNL1        0.3059
     12 O           2.8044   -0.7681   23.4599 O.2     1  UNL1       -0.2524
     13 N           4.3693   -0.2243   25.4612 N.am    1  UNL1       -0.2867
     14 H           6.2275   -1.3634   23.7381 H       1  UNL1        0.1583
     15 H           5.2647   -0.2335   25.8703 H       1  UNL1        0.1510
     16 C           5.1170   -2.1473   19.5354 C.ar    1  UNL1        0.0803
     17 S           5.4901   -1.2315   20.6633 S.2     1  UNL1       -0.0488
     18 C           5.1313   -1.9121   21.9510 C.ar    1  UNL1        0.1664
     19 N           4.5365   -3.2484   21.6190 N.ar    1  UNL1       -0.2282
     20 C           4.5277   -3.3938   20.1260 C.ar    1  UNL1        0.0701
     21 C           4.0188   -4.5779   19.3585 C.3     1  UNL1        0.0528
     22 C           4.2187   -1.1714   17.3015 C.3     1  UNL1        0.0779
     23 C           5.3010   -1.8660   18.0736 C.2     1  UNL1        0.1807
     24 O           6.5673   -2.2792   17.3838 O.2     1  UNL1       -0.2908
     25 C           4.6931   -1.7140   26.7518 C.3     1  UNL1        0.1181
     26 N           5.9207   -1.7441   27.6132 N.3     1  UNL1       -0.2696
     27 C           7.2005   -1.1392   27.1166 C.3     1  UNL1        0.0722
     28 C           8.4281   -1.1692   27.9781 C.3     1  UNL1        0.0174
     29 C           8.3759   -1.8042   29.3361 C.3     1  UNL1        0.0031
     30 C           7.0963   -2.4090   29.8326 C.3     1  UNL1        0.0204
     31 C           5.8687   -2.3790   28.9712 C.3     1  UNL1        0.0725
     32 C           7.0442   -3.0440   31.1907 C.3     1  UNL1        0.0277
     33 C           6.3979   -2.3185   32.3335 C.ar    1  UNL1       -0.0220
     34 C           7.1538   -1.2510   33.0677 C.ar    1  UNL1       -0.0020
     35 C           6.5076   -0.5255   34.2105 C.ar    1  UNL1        0.0293
     36 C           5.1053   -0.8675   34.6191 C.ar    1  UNL1        0.1401
     37 F           4.4591   -0.1421   35.7619 F       1  UNL1       -0.2042
     38 C           4.3495   -1.9350   33.8849 C.ar    1  UNL1        0.0293
     39 C           4.9958   -2.6605   32.7421 C.ar    1  UNL1       -0.0020
@<TRIPOS>BOND
     1    22    23    1
     2    23    24    2
     3    23    16    1
     4    16    17   ar
     5    17    18   ar
     6    18    10    1
     7    10    11   am
     8    11    12    2
     9    11    13   am
    10    13     1    1
    11     1     2    1
    12     1     3    1
    13     3     4    1
    14     4     5    1
    15     4     6   am
    16     6     7    2
    17     6     8    1
    18     8     9    1
    19     9    25    1
    20    25    26    1
    21    26    27    1
    22    27    28    1
    23    28    29    1
    24    29    30    1
    25    30    32    1
    26    32    33    1
    27    33    34   ar
    28    34    35   ar
    29    35    36   ar
    30    36    37    1
    31    36    38   ar
    32    38    39   ar
    33    30    31    1
    34    18    19   ar
    35    19    20   ar
    36    20    21    1
    37    20    16   ar
    38     9     1    1
    39    31    26    1
    40    39    33   ar
    41    10    14    1
    42    13    15    1
@<TRIPOS>MOLECULE
*****
 39 42 0 0 0
SMALL
GASTEIGER

@<TRIPOS>ATOM
      1 C          -6.4792    4.6540   24.5242 C.3     1  UNL1        0.1146
      2 C          -7.5370    4.6814   23.4610 C.3     1  UNL1        0.0252
      3 C          -7.3928    5.6991   25.0926 C.3     1  UNL1        0.1183
      4 N          -7.0588    6.3571   26.3985 N.am    1  UNL1       -0.2425
      5 C          -7.9724    7.4022   26.9670 C.3     1  UNL1        0.1183
      6 C          -5.8113    5.9700   27.1360 C.2     1  UNL1        0.4049
      7 O          -5.4773    6.6281   28.4420 O.2     1  UNL1       -0.2262
      8 O          -4.8977    4.9249   26.5676 O.3     1  UNL1       -0.4351
      9 C          -5.2317    4.2669   25.2616 C.3     1  UNL1        0.2040
     10 N          -4.7819    2.9998   21.3410 N.am    1  UNL1       -0.2485
     11 C          -5.3281    4.0353   22.2787 C.2     1  UNL1        0.3059
     12 O          -5.2693    5.4877   21.9086 O.2     1  UNL1       -0.2524
     13 N          -5.9330    3.6184   23.5865 N.am    1  UNL1       -0.2867
     14 H          -4.8204    2.0465   21.5839 H       1  UNL1        0.1583
     15 H          -5.9715    2.6652   23.8294 H       1  UNL1        0.1510
     16 C          -2.5763    4.1252   18.3519 C.ar    1  UNL1        0.0803
     17 S          -2.7378    3.7701   19.8002 S.2     1  UNL1       -0.0488
     18 C          -4.1769    3.4167   20.0332 C.ar    1  UNL1        0.1664
     19 N          -4.9048    3.5533   18.7289 N.ar    1  UNL1       -0.2282
     20 C          -3.9156    3.9912   17.6897 C.ar    1  UNL1        0.0701
     21 C          -4.2134    4.2497   16.2424 C.3     1  UNL1        0.0528
     22 C          -0.0876    3.6618   17.7679 C.3     1  UNL1        0.0779
     23 C          -1.2998    4.5412   17.6831 C.2     1  UNL1        0.1807
     24 O          -1.2354    5.8365   16.9295 O.2     1  UNL1       -0.2908
     25 C          -4.3181    3.2218   24.6931 C.3     1  UNL1        0.1181
     26 N          -2.8319    3.3679   24.8340 N.3     1  UNL1       -0.2696
     27 C          -2.2186    3.5172   26.1948 C.3     1  UNL1        0.0722
     28 C          -0.7324    3.6633   26.3356 C.3     1  UNL1        0.0174
     29 C           0.1405    3.6601   25.1157 C.3     1  UNL1        0.0031
     30 C          -0.4728    3.5108   23.7550 C.3     1  UNL1        0.0204
     31 C          -1.9590    3.3647   23.6142 C.3     1  UNL1        0.0725
     32 C           0.4001    3.5076   22.5351 C.3     1  UNL1        0.0277
     33 C           0.8489    2.2071   21.9375 C.ar    1  UNL1       -0.0220
     34 C          -0.0313    1.4882   20.9583 C.ar    1  UNL1       -0.0020
     35 C           0.4175    0.1877   20.3607 C.ar    1  UNL1        0.0293
     36 C           1.7465   -0.3940   20.7422 C.ar    1  UNL1        0.1401
     37 F           2.1954   -1.6945   20.1445 F       1  UNL1       -0.2042
     38 C           2.6267    0.3248   21.7212 C.ar    1  UNL1        0.0293
     39 C           2.1778    1.6254   22.3189 C.ar    1  UNL1       -0.0020
@<TRIPOS>BOND
     1    22    23    1
     2    23    24    2
     3    23    16    1
     4    16    17   ar
     5    17    18   ar
     6    18    10    1
     7    10    11   am
     8    11    12    2
     9    11    13   am
    10    13     1    1
    11     1     2    1
    12     1     3    1
    13     3     4    1
    14     4     5    1
    15     4     6   am
    16     6     7    2
    17     6     8    1
    18     8     9    1
    19     9    25    1
    20    25    26    1
    21    26    27    1
    22    27    28    1
    23    28    29    1
    24    29    30    1
    25    30    32    1
    26    32    33    1
    27    33    34   ar
    28    34    35   ar
    29    35    36   ar
    30    36    37    1
    31    36    38   ar
    32    38    39   ar
    33    30    31    1
    34    18    19   ar
    35    19    20   ar
    36    20    21    1
    37    20    16   ar
    38     9     1    1
    39    31    26    1
    40    39    33   ar
    41    10    14    1
    42    13    15    1
@<TRIPOS>MOLECULE
*****
 39 42 0 0 0
SMALL
GASTEIGER

@<TRIPOS>ATOM
      1 C          -2.3051    3.9362   23.5239 C.3     1  UNL1        0.1146
      2 C          -2.3007    4.4428   24.9358 C.3     1  UNL1        0.0252
      3 C          -3.7769    4.1355   23.7336 C.3     1  UNL1        0.1183
      4 N          -4.7413    3.8201   22.6290 N.am    1  UNL1       -0.2425
      5 C          -6.2132    4.0195   22.8387 C.3     1  UNL1        0.1183
      6 C          -4.2340    3.3054   21.3146 C.2     1  UNL1        0.4049
      7 O          -5.1985    2.9900   20.2099 O.2     1  UNL1       -0.2262
      8 O          -2.7622    3.1060   21.1049 O.3     1  UNL1       -0.4351
      9 C          -1.7977    3.4214   22.2095 C.3     1  UNL1        0.2040
     10 N           1.1946    2.9456   25.1116 N.am    1  UNL1       -0.2485
     11 C          -0.2787    2.9691   24.8310 C.2     1  UNL1        0.3059
     12 O          -1.1989    2.0488   25.5768 O.2     1  UNL1       -0.2524
     13 N          -0.8318    3.9128   23.8045 N.am    1  UNL1       -0.2867
     14 H           1.7986    3.5496   24.6220 H       1  UNL1        0.1583
     15 H          -0.2278    4.5168   23.3150 H       1  UNL1        0.1510
     16 C           2.3571    1.0028   28.2643 C.ar    1  UNL1        0.0803
     17 S           1.6819    2.1802   27.6260 S.2     1  UNL1       -0.0488
     18 C           1.7477    2.0019   26.1380 C.ar    1  UNL1        0.1664
     19 N           2.4638    0.7143   25.8568 N.ar    1  UNL1       -0.2282
     20 C           2.8404    0.0968   27.1709 C.ar    1  UNL1        0.0701
     21 C           3.5719   -1.1993   27.3586 C.3     1  UNL1        0.0528
     22 C           3.4649    1.6261   30.5302 C.3     1  UNL1        0.0779
     23 C           2.5205    0.7719   29.7373 C.2     1  UNL1        0.1807
     24 O           1.7396   -0.3132   30.4177 O.2     1  UNL1       -0.2908
     25 C          -0.3258    3.2221   21.9998 C.3     1  UNL1        0.1181
     26 N           0.1623    2.3935   20.8487 N.3     1  UNL1       -0.2696
     27 C           0.0601    2.9212   19.4482 C.3     1  UNL1        0.0722
     28 C           0.5482    2.0926   18.2971 C.3     1  UNL1        0.0174
     29 C           1.1385    0.7363   18.5463 C.3     1  UNL1        0.0031
     30 C           1.2406    0.2086   19.9467 C.3     1  UNL1        0.0204
     31 C           0.7525    1.0372   21.0979 C.3     1  UNL1        0.0725
     32 C           1.8309   -1.1477   20.1960 C.3     1  UNL1        0.0277
     33 C           3.1613   -1.5070   19.6037 C.ar    1  UNL1       -0.0220
     34 C           4.1979   -0.4444   19.3882 C.ar    1  UNL1       -0.0020
     35 C           5.5284   -0.8037   18.7959 C.ar    1  UNL1        0.0293
     36 C           5.8222   -2.2256   18.4190 C.ar    1  UNL1        0.1401
     37 F           7.1526   -2.5849   17.8267 F       1  UNL1       -0.2042
     38 C           4.7856   -3.2881   18.6345 C.ar    1  UNL1        0.0293
     39 C           3.4551   -2.9288   19.2268 C.ar    1  UNL1       -0.0020
@<TRIPOS>BOND
     1    22    23    1
     2    23    24    2
     3    23    16    1
     4    16    17   ar
     5    17    18   ar
     6    18    10    1
     7    10    11   am
     8    11    12    2
     9    11    13   am
    10    13     1    1
    11     1     2    1
    12     1     3    1
    13     3     4    1
    14     4     5    1
    15     4     6   am
    16     6     7    2
    17     6     8    1
    18     8     9    1
    19     9    25    1
    20    25    26    1
    21    26    27    1
    22    27    28    1
    23    28    29    1
    24    29    30    1
    25    30    32    1
    26    32    33    1
    27    33    34   ar
    28    34    35   ar
    29    35    36   ar
    30    36    37    1
    31    36    38   ar
    32    38    39   ar
    33    30    31    1
    34    18    19   ar
    35    19    20   ar
    36    20    21    1
    37    20    16   ar
    38     9     1    1
    39    31    26    1
    40    39    33   ar
    41    10    14    1
    42    13    15    1
@<TRIPOS>MOLECULE
*****
 39 42 0 0 0
SMALL
GASTEIGER

@<TRIPOS>ATOM
      1 C          -1.4196    3.5205   24.0922 C.3     1  UNL1        0.1146
      2 C          -1.1123    3.5200   25.5604 C.3     1  UNL1        0.0252
      3 C          -2.8105    3.5889   24.6495 C.3     1  UNL1        0.1183
      4 N          -3.9886    3.6339   23.7220 N.am    1  UNL1       -0.2425
      5 C          -5.3796    3.7023   24.2792 C.3     1  UNL1        0.1183
      6 C          -3.7757    3.6107   22.2374 C.2     1  UNL1        0.4049
      7 O          -4.9538    3.6557   21.3100 O.2     1  UNL1       -0.2262
      8 O          -2.3847    3.5423   21.6802 O.3     1  UNL1       -0.4351
      9 C          -1.2067    3.4973   22.6076 C.3     1  UNL1        0.2040
     10 N           2.2814    2.1191   24.3894 N.am    1  UNL1       -0.2485
     11 C           0.7838    2.1877   24.4367 C.2     1  UNL1        0.3059
     12 O          -0.0082    0.9919   24.8758 O.2     1  UNL1       -0.2524
     13 N           0.0781    3.4520   24.0449 N.am    1  UNL1       -0.2867
     14 H           2.8013    2.9040   24.1012 H       1  UNL1        0.1583
     15 H           0.5979    4.2369   23.7567 H       1  UNL1        0.1510
     16 C           4.2126   -1.2368   24.6617 C.ar    1  UNL1        0.0803
     17 S           3.6277   -0.1246   23.8427 S.2     1  UNL1       -0.0488
     18 C           2.9871    0.8548   24.7812 C.ar    1  UNL1        0.1664
     19 N           3.1762    0.3478   26.1801 N.ar    1  UNL1       -0.2282
     20 C           3.9335   -0.9449   26.1063 C.ar    1  UNL1        0.0701
     21 C           4.3404   -1.7962   27.2725 C.3     1  UNL1        0.0528
     22 C           6.3164   -2.7611   24.6465 C.3     1  UNL1        0.0779
     23 C           4.9474   -2.4312   24.1295 C.2     1  UNL1        0.1807
     24 O           4.3134   -3.2958   23.0804 O.2     1  UNL1       -0.2908
     25 C           0.1844    3.4289   22.0504 C.3     1  UNL1        0.1181
     26 N           0.4819    2.5341   20.8839 N.3     1  UNL1       -0.2696
     27 C           0.3484    3.0570   19.4843 C.3     1  UNL1        0.0722
     28 C           0.6460    2.1622   18.3178 C.3     1  UNL1        0.0174
     29 C           1.0770    0.7444   18.5509 C.3     1  UNL1        0.0031
     30 C           1.2104    0.2215   19.9505 C.3     1  UNL1        0.0204
     31 C           0.9129    1.1164   21.1170 C.3     1  UNL1        0.0725
     32 C           1.6414   -1.1962   20.1836 C.3     1  UNL1        0.0277
     33 C           3.0616   -1.6012   19.9206 C.ar    1  UNL1       -0.0220
     34 C           4.1768   -0.6289   20.1677 C.ar    1  UNL1       -0.0020
     35 C           5.5969   -1.0339   19.9047 C.ar    1  UNL1        0.0293
     36 C           5.9019   -2.4113   19.3948 C.ar    1  UNL1        0.1401
     37 F           7.3220   -2.8163   19.1319 F       1  UNL1       -0.2042
     38 C           4.7867   -3.3835   19.1478 C.ar    1  UNL1        0.0293
     39 C           3.3665   -2.9785   19.4107 C.ar    1  UNL1       -0.0020
@<TRIPOS>BOND
     1    22    23    1
     2    23    24    2
     3    23    16    1
     4    16    17   ar
     5    17    18   ar
     6    18    10    1
     7    10    11   am
     8    11    12    2
     9    11    13   am
    10    13     1    1
    11     1     2    1
    12     1     3    1
    13     3     4    1
    14     4     5    1
    15     4     6   am
    16     6     7    2
    17     6     8    1
    18     8     9    1
    19     9    25    1
    20    25    26    1
    21    26    27    1
    22    27    28    1
    23    28    29    1
    24    29    30    1
    25    30    32    1
    26    32    33    1
    27    33    34   ar
    28    34    35   ar
    29    35    36   ar
    30    36    37    1
    31    36    38   ar
    32    38    39   ar
    33    30    31    1
    34    18    19   ar
    35    19    20   ar
    36    20    21    1
    37    20    16   ar
    38     9     1    1
    39    31    26    1
    40    39    33   ar
    41    10    14    1
    42    13    15    1
