@<TRIPOS>MOLECULE
*****
 22 24 0 0 0
SMALL
GASTEIGER

@<TRIPOS>ATOM
      1 C          -8.4246  -17.1805   22.4652 C.3     1  UNL1        0.1959
      2 C          -9.9093  -17.2630   22.2683 C.ar    1  UNL1        0.0513
      3 C         -10.7733  -16.0750   22.5718 C.ar    1  UNL1        0.0022
      4 C         -12.2580  -16.1576   22.3749 C.ar    1  UNL1       -0.0000
      5 C         -12.8787  -17.4281   21.8745 C.ar    1  UNL1        0.0031
      6 C         -12.0147  -18.6161   21.5710 C.ar    1  UNL1        0.0367
      7 C         -10.5300  -18.5336   21.7679 C.ar    1  UNL1        0.1379
      8 O          -9.6660  -19.7216   21.4644 O.3     1  UNL1       -0.4755
      9 C          -8.1813  -19.6390   21.6613 C.3     1  UNL1        0.2106
     10 C          -7.5606  -18.3684   22.1617 C.3     1  UNL1        0.1036
     11 C          -6.0758  -18.2859   22.3586 C.3     1  UNL1        0.0729
     12 N          -5.1497  -18.6028   21.2220 N.3     1  UNL1       -0.3209
     13 H          -5.2351  -19.5897   20.9789 H       1  UNL1        0.1189
     14 H          -4.1890  -18.4030   21.5003 H       1  UNL1        0.1189
     15 O          -7.8039  -15.9099   22.9656 O.3     1  UNL1       -0.4748
     16 C          -4.9914  -15.3242   23.8297 C.3     1  UNL1        0.0342
     17 C          -6.0776  -15.4618   24.8548 C.ar    1  UNL1        0.0121
     18 C          -5.7577  -15.3066   26.3121 C.ar    1  UNL1       -0.0013
     19 C          -6.8440  -15.4443   27.3373 C.ar    1  UNL1       -0.0001
     20 C          -8.2502  -15.7371   26.9052 C.ar    1  UNL1        0.0031
     21 C          -8.5702  -15.8923   25.4480 C.ar    1  UNL1        0.0366
     22 C          -7.4839  -15.7547   24.4228 C.ar    1  UNL1        0.1348
@<TRIPOS>BOND
     1    16    17    1
     2    17    18   ar
     3    18    19   ar
     4    19    20   ar
     5    20    21   ar
     6    21    22   ar
     7    22    15    1
     8     1    15    1
     9     1     2    1
    10     2     3   ar
    11     3     4   ar
    12     4     5   ar
    13     5     6   ar
    14     6     7   ar
    15     7     8    1
    16     8     9    1
    17     9    10    1
    18    10    11    1
    19    11    12    1
    20    22    17   ar
    21    10     1    1
    22     7     2   ar
    23    12    13    1
    24    12    14    1
@<TRIPOS>MOLECULE
*****
 22 24 0 0 0
SMALL
GASTEIGER

@<TRIPOS>ATOM
      1 C          -7.2940  -17.7967   22.9038 C.3     1  UNL1        0.1959
      2 C          -6.4080  -18.6846   22.0811 C.ar    1  UNL1        0.0513
      3 C          -6.9971  -19.8368   21.3225 C.ar    1  UNL1        0.0022
      4 C          -6.1111  -20.7245   20.4999 C.ar    1  UNL1       -0.0000
      5 C          -4.6359  -20.4602   20.4358 C.ar    1  UNL1        0.0031
      6 C          -4.0468  -19.3080   21.1943 C.ar    1  UNL1        0.0367
      7 C          -4.9328  -18.4202   22.0170 C.ar    1  UNL1        0.1379
      8 O          -4.3437  -17.2680   22.7756 O.3     1  UNL1       -0.4755
      9 C          -5.2297  -16.3802   23.5982 C.3     1  UNL1        0.2106
     10 C          -6.7049  -16.6446   23.6623 C.3     1  UNL1        0.1036
     11 C          -7.5909  -15.7567   24.4850 C.3     1  UNL1        0.0729
     12 N          -7.5779  -14.2730   24.2652 N.3     1  UNL1       -0.3209
     13 H          -6.6671  -13.8980   24.5302 H       1  UNL1        0.1189
     14 H          -8.3035  -13.8385   24.8354 H       1  UNL1        0.1189
     15 O          -8.7691  -18.0611   22.9679 O.3     1  UNL1       -0.4748
     16 C         -10.6561  -19.8777   21.5053 C.3     1  UNL1        0.0342
     17 C         -10.6207  -18.4139   21.1798 C.ar    1  UNL1        0.0121
     18 C         -11.5289  -17.8583   20.1231 C.ar    1  UNL1       -0.0013
     19 C         -11.4935  -16.3945   19.7977 C.ar    1  UNL1       -0.0001
     20 C         -10.5500  -15.4862   20.5290 C.ar    1  UNL1        0.0031
     21 C          -9.6419  -16.0417   21.5857 C.ar    1  UNL1        0.0366
     22 C          -9.6772  -17.5056   21.9111 C.ar    1  UNL1        0.1348
@<TRIPOS>BOND
     1    16    17    1
     2    17    18   ar
     3    18    19   ar
     4    19    20   ar
     5    20    21   ar
     6    21    22   ar
     7    22    15    1
     8     1    15    1
     9     1     2    1
    10     2     3   ar
    11     3     4   ar
    12     4     5   ar
    13     5     6   ar
    14     6     7   ar
    15     7     8    1
    16     8     9    1
    17     9    10    1
    18    10    11    1
    19    11    12    1
    20    22    17   ar
    21    10     1    1
    22     7     2   ar
    23    12    13    1
    24    12    14    1
@<TRIPOS>MOLECULE
*****
 22 24 0 0 0
SMALL
GASTEIGER

@<TRIPOS>ATOM
      1 C          -7.8614  -17.7669   21.8126 C.3     1  UNL1        0.1959
      2 C          -7.2649  -16.8615   22.8491 C.ar    1  UNL1        0.0513
      3 C          -8.0960  -15.7739   23.4627 C.ar    1  UNL1        0.0022
      4 C          -7.4995  -14.8685   24.4992 C.ar    1  UNL1       -0.0000
      5 C          -6.0719  -15.0506   24.9221 C.ar    1  UNL1        0.0031
      6 C          -5.2408  -16.1382   24.3085 C.ar    1  UNL1        0.0367
      7 C          -5.8373  -17.0436   23.2720 C.ar    1  UNL1        0.1379
      8 O          -5.0062  -18.1312   22.6583 O.3     1  UNL1       -0.4755
      9 C          -5.6027  -19.0366   21.6218 C.3     1  UNL1        0.2106
     10 C          -7.0303  -18.8545   21.1989 C.3     1  UNL1        0.1036
     11 C          -7.6268  -19.7599   20.1624 C.3     1  UNL1        0.0729
     12 N          -8.4606  -19.1860   19.0555 N.3     1  UNL1       -0.3209
     13 H          -9.3145  -18.7866   19.4450 H       1  UNL1        0.1189
     14 H          -8.7015  -19.9238   18.3936 H       1  UNL1        0.1189
     15 O          -9.2890  -17.5848   21.3897 O.3     1  UNL1       -0.4748
     16 C         -11.9939  -16.3448   21.0075 C.3     1  UNL1        0.0342
     17 C         -11.7530  -17.2803   22.1550 C.ar    1  UNL1        0.0121
     18 C         -12.8646  -17.5958   23.1115 C.ar    1  UNL1       -0.0013
     19 C         -12.6238  -18.5313   24.2591 C.ar    1  UNL1       -0.0001
     20 C         -11.2714  -19.1513   24.4502 C.ar    1  UNL1        0.0031
     21 C         -10.1598  -18.8358   23.4937 C.ar    1  UNL1        0.0366
     22 C         -10.4006  -17.9003   22.3461 C.ar    1  UNL1        0.1348
@<TRIPOS>BOND
     1    16    17    1
     2    17    18   ar
     3    18    19   ar
     4    19    20   ar
     5    20    21   ar
     6    21    22   ar
     7    22    15    1
     8     1    15    1
     9     1     2    1
    10     2     3   ar
    11     3     4   ar
    12     4     5   ar
    13     5     6   ar
    14     6     7   ar
    15     7     8    1
    16     8     9    1
    17     9    10    1
    18    10    11    1
    19    11    12    1
    20    22    17   ar
    21    10     1    1
    22     7     2   ar
    23    12    13    1
    24    12    14    1
@<TRIPOS>MOLECULE
*****
 22 24 0 0 0
SMALL
GASTEIGER

@<TRIPOS>ATOM
      1 C          -7.7368  -17.3748   22.0916 C.3     1  UNL1        0.1959
      2 C          -7.0346  -18.5391   21.4579 C.ar    1  UNL1        0.0513
      3 C          -7.7486  -19.3852   20.4458 C.ar    1  UNL1        0.0022
      4 C          -7.0464  -20.5494   19.8122 C.ar    1  UNL1       -0.0000
      5 C          -5.6302  -20.8675   20.1907 C.ar    1  UNL1        0.0031
      6 C          -4.9162  -20.0214   21.2027 C.ar    1  UNL1        0.0367
      7 C          -5.6184  -18.8572   21.8364 C.ar    1  UNL1        0.1379
      8 O          -4.9045  -18.0111   22.8485 O.3     1  UNL1       -0.4755
      9 C          -5.6067  -16.8469   23.4821 C.3     1  UNL1        0.2106
     10 C          -7.0228  -16.5288   23.1036 C.3     1  UNL1        0.1036
     11 C          -7.7250  -15.3645   23.7373 C.3     1  UNL1        0.0729
     12 N          -6.9622  -14.4140   24.6117 N.3     1  UNL1       -0.3209
     13 H          -6.6484  -14.9014   25.4509 H       1  UNL1        0.1189
     14 H          -7.5664  -13.6359   24.8762 H       1  UNL1        0.1189
     15 O          -9.1530  -17.0567   21.7131 O.3     1  UNL1       -0.4748
     16 C         -11.9768  -16.3039   21.0353 C.3     1  UNL1        0.0342
     17 C         -11.6975  -17.1744   22.2245 C.ar    1  UNL1        0.0121
     18 C         -12.8302  -17.6686   23.0748 C.ar    1  UNL1       -0.0013
     19 C         -12.5509  -18.5391   24.2640 C.ar    1  UNL1       -0.0001
     20 C         -11.1390  -18.9155   24.6029 C.ar    1  UNL1        0.0031
     21 C         -10.0063  -18.4214   23.7526 C.ar    1  UNL1        0.0366
     22 C         -10.2856  -17.5508   22.5634 C.ar    1  UNL1        0.1348
@<TRIPOS>BOND
     1    16    17    1
     2    17    18   ar
     3    18    19   ar
     4    19    20   ar
     5    20    21   ar
     6    21    22   ar
     7    22    15    1
     8     1    15    1
     9     1     2    1
    10     2     3   ar
    11     3     4   ar
    12     4     5   ar
    13     5     6   ar
    14     6     7   ar
    15     7     8    1
    16     8     9    1
    17     9    10    1
    18    10    11    1
    19    11    12    1
    20    22    17   ar
    21    10     1    1
    22     7     2   ar
    23    12    13    1
    24    12    14    1
@<TRIPOS>MOLECULE
*****
 22 24 0 0 0
SMALL
GASTEIGER

@<TRIPOS>ATOM
      1 C          -7.7274  -18.6707   22.7044 C.3     1  UNL1        0.1959
      2 C          -7.5542  -17.3689   23.4292 C.ar    1  UNL1        0.0513
      3 C          -8.7204  -16.7422   24.1344 C.ar    1  UNL1        0.0022
      4 C          -8.5472  -15.4404   24.8592 C.ar    1  UNL1       -0.0000
      5 C          -7.2078  -14.7654   24.8789 C.ar    1  UNL1        0.0031
      6 C          -6.0416  -15.3921   24.1737 C.ar    1  UNL1        0.0367
      7 C          -6.2149  -16.6938   23.4489 C.ar    1  UNL1        0.1379
      8 O          -5.0487  -17.3206   22.7437 O.3     1  UNL1       -0.4755
      9 C          -5.2219  -18.6224   22.0189 C.3     1  UNL1        0.2106
     10 C          -6.5613  -19.2974   21.9992 C.3     1  UNL1        0.1036
     11 C          -6.7345  -20.5992   21.2744 C.3     1  UNL1        0.0729
     12 N          -5.7037  -21.0476   20.2812 N.3     1  UNL1       -0.3209
     13 H          -5.6974  -20.4089   19.4859 H       1  UNL1        0.1189
     14 H          -5.9284  -21.9890   19.9595 H       1  UNL1        0.1189
     15 O          -9.0668  -19.3457   22.6847 O.3     1  UNL1       -0.4748
     16 C         -11.5308  -18.9881   24.3583 C.3     1  UNL1        0.0342
     17 C         -11.4909  -18.4518   22.9581 C.ar    1  UNL1        0.0121
     18 C         -12.6830  -17.7366   22.3945 C.ar    1  UNL1       -0.0013
     19 C         -12.6431  -17.2004   20.9943 C.ar    1  UNL1       -0.0001
     20 C         -11.4111  -17.3792   20.1575 C.ar    1  UNL1        0.0031
     21 C         -10.2190  -18.0943   20.7209 C.ar    1  UNL1        0.0366
     22 C         -10.2589  -18.6306   22.1213 C.ar    1  UNL1        0.1348
@<TRIPOS>BOND
     1    16    17    1
     2    17    18   ar
     3    18    19   ar
     4    19    20   ar
     5    20    21   ar
     6    21    22   ar
     7    22    15    1
     8     1    15    1
     9     1     2    1
    10     2     3   ar
    11     3     4   ar
    12     4     5   ar
    13     5     6   ar
    14     6     7   ar
    15     7     8    1
    16     8     9    1
    17     9    10    1
    18    10    11    1
    19    11    12    1
    20    22    17   ar
    21    10     1    1
    22     7     2   ar
    23    12    13    1
    24    12    14    1
@<TRIPOS>MOLECULE
*****
 22 24 0 0 0
SMALL
GASTEIGER

@<TRIPOS>ATOM
      1 C          -8.5483  -19.0909   21.6997 C.3     1  UNL1        0.1959
      2 C          -9.9021  -18.7842   22.2684 C.ar    1  UNL1        0.0513
      3 C         -10.0703  -18.6011   23.7476 C.ar    1  UNL1        0.0022
      4 C         -11.4240  -18.2944   24.3163 C.ar    1  UNL1       -0.0000
      5 C         -12.6096  -18.1709   23.4056 C.ar    1  UNL1        0.0031
      6 C         -12.4414  -18.3541   21.9264 C.ar    1  UNL1        0.0367
      7 C         -11.0877  -18.6607   21.3578 C.ar    1  UNL1        0.1379
      8 O         -10.9195  -18.8439   19.8785 O.3     1  UNL1       -0.4755
      9 C          -9.5657  -19.1505   19.3099 C.3     1  UNL1        0.2106
     10 C          -8.3802  -19.2740   20.2205 C.3     1  UNL1        0.1036
     11 C          -7.0264  -19.5807   19.6518 C.3     1  UNL1        0.0729
     12 N          -5.9743  -18.5128   19.6022 N.3     1  UNL1       -0.3209
     13 H          -6.2668  -17.7769   18.9593 H       1  UNL1        0.1189
     14 H          -5.0950  -18.9165   19.2795 H       1  UNL1        0.1189
     15 O          -7.3628  -19.2144   22.6103 O.3     1  UNL1       -0.4748
     16 C          -4.3645  -19.3148   22.5951 C.3     1  UNL1        0.0342
     17 C          -5.0705  -18.0459   22.9708 C.ar    1  UNL1        0.0121
     18 C          -4.2774  -16.8270   23.3390 C.ar    1  UNL1       -0.0013
     19 C          -4.9834  -15.5581   23.7147 C.ar    1  UNL1       -0.0001
     20 C          -6.4826  -15.5079   23.7224 C.ar    1  UNL1        0.0031
     21 C          -7.2757  -16.7266   23.3543 C.ar    1  UNL1        0.0366
     22 C          -6.5697  -17.9956   22.9785 C.ar    1  UNL1        0.1348
@<TRIPOS>BOND
     1    16    17    1
     2    17    18   ar
     3    18    19   ar
     4    19    20   ar
     5    20    21   ar
     6    21    22   ar
     7    22    15    1
     8     1    15    1
     9     1     2    1
    10     2     3   ar
    11     3     4   ar
    12     4     5   ar
    13     5     6   ar
    14     6     7   ar
    15     7     8    1
    16     8     9    1
    17     9    10    1
    18    10    11    1
    19    11    12    1
    20    22    17   ar
    21    10     1    1
    22     7     2   ar
    23    12    13    1
    24    12    14    1
@<TRIPOS>MOLECULE
*****
 22 24 0 0 0
SMALL
GASTEIGER

@<TRIPOS>ATOM
      1 C          -6.4929  -18.8622   21.1034 C.3     1  UNL1        0.1959
      2 C          -5.1030  -18.7397   21.6542 C.ar    1  UNL1        0.0513
      3 C          -4.7738  -17.6417   22.6217 C.ar    1  UNL1        0.0022
      4 C          -3.3840  -17.5192   23.1725 C.ar    1  UNL1       -0.0000
      5 C          -2.3234  -18.4947   22.7557 C.ar    1  UNL1        0.0031
      6 C          -2.6526  -19.5926   21.7882 C.ar    1  UNL1        0.0367
      7 C          -4.0424  -19.7151   21.2374 C.ar    1  UNL1        0.1379
      8 O          -4.3717  -20.8131   20.2699 O.3     1  UNL1       -0.4755
      9 C          -5.7615  -20.9355   19.7191 C.3     1  UNL1        0.2106
     10 C          -6.8221  -19.9601   20.1359 C.3     1  UNL1        0.1036
     11 C          -8.2120  -20.0826   19.5851 C.3     1  UNL1        0.0729
     12 N          -9.0307  -18.8510   19.3345 N.3     1  UNL1       -0.3209
     13 H          -9.2387  -18.3946   20.2226 H       1  UNL1        0.1189
     14 H          -9.9027  -19.1104   18.8732 H       1  UNL1        0.1189
     15 O          -7.5535  -17.8867   21.5202 O.3     1  UNL1       -0.4748
     16 C          -7.9168  -15.6686   23.5071 C.3     1  UNL1        0.0342
     17 C          -8.5220  -17.0160   23.7682 C.ar    1  UNL1        0.0121
     18 C          -9.3090  -17.2543   25.0228 C.ar    1  UNL1       -0.0013
     19 C          -9.9143  -18.6017   25.2838 C.ar    1  UNL1       -0.0001
     20 C          -9.7327  -19.7108   24.2903 C.ar    1  UNL1        0.0031
     21 C          -8.9457  -19.4725   23.0358 C.ar    1  UNL1        0.0366
     22 C          -8.3404  -18.1250   22.7747 C.ar    1  UNL1        0.1348
@<TRIPOS>BOND
     1    16    17    1
     2    17    18   ar
     3    18    19   ar
     4    19    20   ar
     5    20    21   ar
     6    21    22   ar
     7    22    15    1
     8     1    15    1
     9     1     2    1
    10     2     3   ar
    11     3     4   ar
    12     4     5   ar
    13     5     6   ar
    14     6     7   ar
    15     7     8    1
    16     8     9    1
    17     9    10    1
    18    10    11    1
    19    11    12    1
    20    22    17   ar
    21    10     1    1
    22     7     2   ar
    23    12    13    1
    24    12    14    1
@<TRIPOS>MOLECULE
*****
 22 24 0 0 0
SMALL
GASTEIGER

@<TRIPOS>ATOM
      1 C          -9.8058  -18.1721   22.2091 C.3     1  UNL1        0.1959
      2 C          -8.6991  -18.9611   21.5745 C.ar    1  UNL1        0.0513
      3 C          -7.5560  -19.4558   22.4103 C.ar    1  UNL1        0.0022
      4 C          -6.4494  -20.2449   21.7757 C.ar    1  UNL1       -0.0000
      5 C          -6.4859  -20.5392   20.3053 C.ar    1  UNL1        0.0031
      6 C          -7.6290  -20.0445   19.4695 C.ar    1  UNL1        0.0367
      7 C          -8.7356  -19.2555   20.1041 C.ar    1  UNL1        0.1379
      8 O          -9.8787  -18.7608   19.2683 O.3     1  UNL1       -0.4755
      9 C         -10.9854  -17.9717   19.9029 C.3     1  UNL1        0.2106
     10 C         -10.9489  -17.6774   21.3733 C.3     1  UNL1        0.1036
     11 C         -12.0556  -16.8883   22.0079 C.3     1  UNL1        0.0729
     12 N         -11.7627  -15.5596   22.6393 N.3     1  UNL1       -0.3209
     13 H         -11.1616  -15.6946   23.4522 H       1  UNL1        0.1189
     14 H         -12.6366  -15.1221   22.9316 H       1  UNL1        0.1189
     15 O          -9.7693  -17.8777   23.6795 O.3     1  UNL1       -0.4748
     16 C          -9.3429  -17.6444   26.6398 C.3     1  UNL1        0.0342
     17 C          -8.5791  -16.7594   25.7000 C.ar    1  UNL1        0.0121
     18 C          -7.6020  -15.7576   26.2403 C.ar    1  UNL1       -0.0013
     19 C          -6.8382  -14.8726   25.3005 C.ar    1  UNL1       -0.0001
     20 C          -7.0514  -14.9893   23.8203 C.ar    1  UNL1        0.0031
     21 C          -8.0284  -15.9910   23.2800 C.ar    1  UNL1        0.0366
     22 C          -8.7923  -16.8760   24.2198 C.ar    1  UNL1        0.1348
@<TRIPOS>BOND
     1    16    17    1
     2    17    18   ar
     3    18    19   ar
     4    19    20   ar
     5    20    21   ar
     6    21    22   ar
     7    22    15    1
     8     1    15    1
     9     1     2    1
    10     2     3   ar
    11     3     4   ar
    12     4     5   ar
    13     5     6   ar
    14     6     7   ar
    15     7     8    1
    16     8     9    1
    17     9    10    1
    18    10    11    1
    19    11    12    1
    20    22    17   ar
    21    10     1    1
    22     7     2   ar
    23    12    13    1
    24    12    14    1
@<TRIPOS>MOLECULE
*****
 22 24 0 0 0
SMALL
GASTEIGER

@<TRIPOS>ATOM
      1 C          -8.9230  -17.9209   22.8878 C.3     1  UNL1        0.1959
      2 C          -8.3553  -17.0069   23.9330 C.ar    1  UNL1        0.0513
      3 C          -7.2327  -16.0750   23.5848 C.ar    1  UNL1        0.0022
      4 C          -6.6651  -15.1611   24.6300 C.ar    1  UNL1       -0.0000
      5 C          -7.2201  -15.1790   26.0235 C.ar    1  UNL1        0.0031
      6 C          -8.3427  -16.1109   26.3717 C.ar    1  UNL1        0.0367
      7 C          -8.9103  -17.0249   25.3265 C.ar    1  UNL1        0.1379
      8 O         -10.0329  -17.9568   25.6747 O.3     1  UNL1       -0.4755
      9 C         -10.6005  -18.8708   24.6295 C.3     1  UNL1        0.2106
     10 C         -10.0456  -18.8528   23.2361 C.3     1  UNL1        0.1036
     11 C         -10.6132  -19.7668   22.1908 C.3     1  UNL1        0.0729
     12 N         -11.4169  -19.2021   21.0572 N.3     1  UNL1       -0.3209
     13 H         -12.2813  -18.8003   21.4202 H       1  UNL1        0.1189
     14 H         -11.6393  -19.9452   20.3948 H       1  UNL1        0.1189
     15 O          -8.3680  -17.9029   21.4944 O.3     1  UNL1       -0.4748
     16 C          -8.6798  -19.7207   19.1282 C.3     1  UNL1        0.0342
     17 C          -7.4147  -19.7482   19.9336 C.ar    1  UNL1        0.0121
     18 C          -6.3053  -20.6847   19.5560 C.ar    1  UNL1       -0.0013
     19 C          -5.0402  -20.7122   20.3614 C.ar    1  UNL1       -0.0001
     20 C          -4.8844  -19.8033   21.5445 C.ar    1  UNL1        0.0031
     21 C          -5.9936  -18.8669   21.9221 C.ar    1  UNL1        0.0366
     22 C          -7.2588  -18.8393   21.1167 C.ar    1  UNL1        0.1348
@<TRIPOS>BOND
     1    16    17    1
     2    17    18   ar
     3    18    19   ar
     4    19    20   ar
     5    20    21   ar
     6    21    22   ar
     7    22    15    1
     8     1    15    1
     9     1     2    1
    10     2     3   ar
    11     3     4   ar
    12     4     5   ar
    13     5     6   ar
    14     6     7   ar
    15     7     8    1
    16     8     9    1
    17     9    10    1
    18    10    11    1
    19    11    12    1
    20    22    17   ar
    21    10     1    1
    22     7     2   ar
    23    12    13    1
    24    12    14    1
