@<TRIPOS>MOLECULE
*****
 40 44 0 0 0
SMALL
GASTEIGER

@<TRIPOS>ATOM
      1 C           6.2721   -5.1811   28.4815 C.ar    1  UNL1        0.2218
      2 N           6.8313   -5.7216   29.7642 N.ar    1  UNL1       -0.2119
      3 C           7.1331   -4.7914   30.9016 C.ar    1  UNL1        0.1066
      4 C           6.8757   -3.3208   30.7563 C.ar    1  UNL1        0.0744
      5 C           6.3165   -2.7804   29.4736 C.ar    1  UNL1        0.1348
      6 N           6.0147   -3.7106   28.3362 N.ar    1  UNL1       -0.1987
      7 C           7.1775   -2.3906   31.8937 C.ar    1  UNL1        0.1149
      8 N           6.1667   -1.7171   32.7739 N.ar    1  UNL1       -0.2382
      9 C           6.9076   -0.8809   33.7748 C.ar    1  UNL1        0.0883
     10 C           8.3763   -1.0375   33.5132 C.ar    1  UNL1        0.0560
     11 S           8.5431   -1.9705   32.3506 S.2     1  UNL1       -0.0658
     12 C           6.2885   -0.0363   34.8487 C.ar    1  UNL1        0.0182
     13 C           5.1121   -0.5520   35.6236 C.ar    1  UNL1        0.0015
     14 C           4.4930    0.2926   36.6975 C.ar    1  UNL1        0.0000
     15 C           5.0501    1.6528   36.9966 C.ar    1  UNL1        0.0000
     16 C           6.2264    2.1684   36.2217 C.ar    1  UNL1        0.0000
     17 C           6.8456    1.3239   35.1477 C.ar    1  UNL1        0.0015
     18 N           5.9703   -6.1113   27.3441 N.pl3   1  UNL1       -0.2824
     19 H           5.1360   -6.6339   27.3436 H       1  UNL1        0.1551
     20 C           8.2909   -4.1071   23.1491 C.3     1  UNL1        0.0521
     21 C           8.1000   -5.2431   24.1098 C.ar    1  UNL1        0.0606
     22 C           7.1306   -5.1092   25.2465 C.ar    1  UNL1        0.0294
     23 C           6.9398   -6.2453   26.2073 C.ar    1  UNL1        0.0532
     24 C           7.7184   -7.5152   26.0312 C.ar    1  UNL1        0.0353
     25 C           8.6878   -7.6491   24.8945 C.ar    1  UNL1        0.0997
     26 N           8.8786   -6.5130   23.9338 N.ar    1  UNL1       -0.2481
     27 N           6.0591   -1.3098   29.3283 N.pl3   1  UNL1       -0.3172
     28 H           6.8111   -0.6898   29.1894 H       1  UNL1        0.1482
     29 C           4.6559   -0.7838   29.3947 C.3     1  UNL1        0.0998
     30 C           4.1159    0.1598   30.4282 C.3     1  UNL1        0.0271
     31 C           2.6726    0.4177   30.1115 C.3     1  UNL1        0.0604
     32 C           2.3205   -0.3667   28.8822 C.3     1  UNL1        0.1412
     33 O           0.9783   -0.4022   28.2134 O.3     1  UNL1       -0.3818
     34 C           3.5463   -1.1092   28.4393 C.3     1  UNL1        0.1549
     35 O           3.6450   -2.0176   27.2497 O.3     1  UNL1       -0.3803
     36 H           0.3598    0.1655   28.6993 H       1  UNL1        0.2104
     37 H           2.7863   -2.0562   26.8003 H       1  UNL1        0.2105
     38 C           1.7443    1.3041   30.8877 C.3     1  UNL1        0.1396
     39 O           0.2617    1.1956   30.6879 O.3     1  UNL1       -0.3819
     40 H           0.0357    1.4736   29.7864 H       1  UNL1        0.2104
@<TRIPOS>BOND
     1    20    21    1
     2    21    22   ar
     3    22    23   ar
     4    23    18    1
     5    18     1    1
     6     1     2   ar
     7     2     3   ar
     8     3     4   ar
     9     4     7    1
    10     7     8   ar
    11     8     9   ar
    12     9    12    1
    13    12    13   ar
    14    13    14   ar
    15    14    15   ar
    16    15    16   ar
    17    16    17   ar
    18     9    10   ar
    19    10    11   ar
    20     4     5   ar
    21     5    27    1
    22    29    27    1
    23    29    30    1
    24    30    31    1
    25    31    38    1
    26    38    39    1
    27    31    32    1
    28    32    33    1
    29    32    34    1
    30    34    35    1
    31     5     6   ar
    32    23    24   ar
    33    24    25   ar
    34    25    26   ar
    35    26    21   ar
    36     6     1   ar
    37    11     7   ar
    38    34    29    1
    39    17    12   ar
    40    18    19    1
    41    27    28    1
    42    39    40    1
    43    33    36    1
    44    35    37    1
@<TRIPOS>MOLECULE
*****
 40 44 0 0 0
SMALL
GASTEIGER

@<TRIPOS>ATOM
      1 C           7.7392   -6.1659   27.6612 C.ar    1  UNL1        0.2218
      2 N           7.9518   -7.2270   26.6224 N.ar    1  UNL1       -0.2119
      3 C           7.9827   -6.8581   25.1688 C.ar    1  UNL1        0.1066
      4 C           7.8011   -5.4280   24.7540 C.ar    1  UNL1        0.0744
      5 C           7.5885   -4.3670   25.7927 C.ar    1  UNL1        0.1348
      6 N           7.5576   -4.7359   27.2463 N.ar    1  UNL1       -0.1987
      7 C           7.8320   -5.0590   23.3004 C.ar    1  UNL1        0.1149
      8 N           6.7596   -4.3215   22.5549 N.ar    1  UNL1       -0.2382
      9 C           7.2056   -4.1695   21.1309 C.ar    1  UNL1        0.0883
     10 C           8.5538   -4.8131   20.9962 C.ar    1  UNL1        0.0560
     11 S           8.9409   -5.3629   22.3370 S.2     1  UNL1       -0.0658
     12 C           6.4382   -3.4927   20.0341 C.ar    1  UNL1        0.0182
     13 C           7.0739   -2.3851   19.2471 C.ar    1  UNL1        0.0015
     14 C           6.3064   -1.7083   18.1503 C.ar    1  UNL1        0.0000
     15 C           4.9034   -2.1390   17.8405 C.ar    1  UNL1        0.0000
     16 C           4.2678   -3.2466   18.6274 C.ar    1  UNL1        0.0000
     17 C           5.0352   -3.9234   19.7242 C.ar    1  UNL1        0.0015
     18 N           7.7083   -6.5348   29.1148 N.pl3   1  UNL1       -0.2824
     19 H           7.5453   -7.4681   29.3824 H       1  UNL1        0.1551
     20 C           5.7915   -3.0384   32.4466 C.3     1  UNL1        0.0521
     21 C           6.9673   -3.7335   31.8265 C.ar    1  UNL1        0.0606
     22 C           6.7499   -4.7866   30.7807 C.ar    1  UNL1        0.0294
     23 C           7.9256   -5.4817   30.1606 C.ar    1  UNL1        0.0532
     24 C           9.3187   -5.1238   30.5864 C.ar    1  UNL1        0.0353
     25 C           9.5360   -4.0707   31.6322 C.ar    1  UNL1        0.0997
     26 N           8.3603   -3.3756   32.2523 N.ar    1  UNL1       -0.2481
     27 N           7.4069   -2.9369   25.3779 N.pl3   1  UNL1       -0.3172
     28 H           8.1707   -2.4261   25.0243 H       1  UNL1        0.1482
     29 C           6.0616   -2.2851   25.5017 C.3     1  UNL1        0.0998
     30 C           5.2592   -1.6986   24.3782 C.3     1  UNL1        0.0271
     31 C           3.9842   -1.1564   24.9530 C.3     1  UNL1        0.0604
     32 C           3.9986   -1.4078   26.4318 C.3     1  UNL1        0.1412
     33 O           2.9187   -1.0283   27.4012 O.3     1  UNL1       -0.3818
     34 C           5.2825   -2.1054   26.7709 C.3     1  UNL1        0.1549
     35 O           5.7119   -2.5459   28.1389 O.3     1  UNL1       -0.3803
     36 H           2.1967   -0.5889   26.9252 H       1  UNL1        0.2104
     37 H           5.0271   -2.3102   28.7842 H       1  UNL1        0.2105
     38 C           2.8874   -0.4814   24.1841 C.3     1  UNL1        0.1396
     39 O           1.8198    0.2800   24.9124 O.3     1  UNL1       -0.3819
     40 H           1.2905   -0.3343   25.4446 H       1  UNL1        0.2104
@<TRIPOS>BOND
     1    20    21    1
     2    21    22   ar
     3    22    23   ar
     4    23    18    1
     5    18     1    1
     6     1     2   ar
     7     2     3   ar
     8     3     4   ar
     9     4     7    1
    10     7     8   ar
    11     8     9   ar
    12     9    12    1
    13    12    13   ar
    14    13    14   ar
    15    14    15   ar
    16    15    16   ar
    17    16    17   ar
    18     9    10   ar
    19    10    11   ar
    20     4     5   ar
    21     5    27    1
    22    29    27    1
    23    29    30    1
    24    30    31    1
    25    31    38    1
    26    38    39    1
    27    31    32    1
    28    32    33    1
    29    32    34    1
    30    34    35    1
    31     5     6   ar
    32    23    24   ar
    33    24    25   ar
    34    25    26   ar
    35    26    21   ar
    36     6     1   ar
    37    11     7   ar
    38    34    29    1
    39    17    12   ar
    40    18    19    1
    41    27    28    1
    42    39    40    1
    43    33    36    1
    44    35    37    1
@<TRIPOS>MOLECULE
*****
 40 44 0 0 0
SMALL
GASTEIGER

@<TRIPOS>ATOM
      1 C           3.1664    0.4811   19.5234 C.ar    1  UNL1        0.2218
      2 N           2.1783    0.4396   18.3955 N.ar    1  UNL1       -0.2119
      3 C           0.9057    1.2286   18.4840 C.ar    1  UNL1        0.1066
      4 C           0.6211    2.0590   19.7004 C.ar    1  UNL1        0.0744
      5 C           1.6091    2.1005   20.8282 C.ar    1  UNL1        0.1348
      6 N           2.8818    1.3115   20.7397 N.ar    1  UNL1       -0.1987
      7 C          -0.6516    2.8480   19.7888 C.ar    1  UNL1        0.1149
      8 N          -1.7393    2.6559   20.8037 N.ar    1  UNL1       -0.2382
      9 C          -2.8200    3.6568   20.5201 C.ar    1  UNL1        0.0883
     10 C          -2.4001    4.4676   19.3299 C.ar    1  UNL1        0.0560
     11 S          -1.0600    3.9677   18.8780 S.2     1  UNL1       -0.0658
     12 C          -4.0964    3.8186   21.2912 C.ar    1  UNL1        0.0182
     13 C          -4.1377    3.4811   22.7522 C.ar    1  UNL1        0.0015
     14 C          -5.4141    3.6429   23.5233 C.ar    1  UNL1        0.0000
     15 C          -6.6491    4.1420   22.8335 C.ar    1  UNL1        0.0000
     16 C          -6.6076    4.4794   21.3725 C.ar    1  UNL1        0.0000
     17 C          -5.3312    4.3177   20.6014 C.ar    1  UNL1        0.0015
     18 N           4.4391   -0.3079   19.4350 N.pl3   1  UNL1       -0.2824
     19 H           5.2342    0.0865   19.0090 H       1  UNL1        0.1551
     20 C           4.5648   -5.4515   18.7085 C.3     1  UNL1        0.0521
     21 C           4.5632   -4.2697   19.6323 C.ar    1  UNL1        0.0606
     22 C           4.5020   -2.8797   19.0718 C.ar    1  UNL1        0.0294
     23 C           4.5003   -1.6979   19.9955 C.ar    1  UNL1        0.0532
     24 C           4.5598   -1.9061   21.4798 C.ar    1  UNL1        0.0353
     25 C           4.6210   -3.2961   22.0403 C.ar    1  UNL1        0.0997
     26 N           4.6227   -4.4779   21.1165 N.ar    1  UNL1       -0.2481
     27 N           1.3246    2.9309   22.0445 N.pl3   1  UNL1       -0.3172
     28 H           1.2217    3.9065   21.9615 H       1  UNL1        0.1482
     29 C           1.1968    2.2749   23.3874 C.3     1  UNL1        0.0998
     30 C           0.0006    2.3399   24.2902 C.3     1  UNL1        0.0271
     31 C           0.3072    1.5439   25.5240 C.3     1  UNL1        0.0604
     32 C           1.6930    0.9870   25.3838 C.3     1  UNL1        0.1412
     33 O           2.4041    0.1290   26.3878 O.3     1  UNL1       -0.3818
     34 C           2.2427    1.4388   24.0633 C.3     1  UNL1        0.1549
     35 O           3.6001    1.1119   23.5150 O.3     1  UNL1       -0.3803
     36 H           1.8281   -0.0164   27.1546 H       1  UNL1        0.2104
     37 H           4.0796    0.5561   24.1491 H       1  UNL1        0.2105
     38 C          -0.6106    1.3406   26.6928 C.3     1  UNL1        0.1396
     39 O          -0.4430    0.1415   27.5784 O.3     1  UNL1       -0.3819
     40 H          -0.6414   -0.6630   27.0742 H       1  UNL1        0.2104
@<TRIPOS>BOND
     1    20    21    1
     2    21    22   ar
     3    22    23   ar
     4    23    18    1
     5    18     1    1
     6     1     2   ar
     7     2     3   ar
     8     3     4   ar
     9     4     7    1
    10     7     8   ar
    11     8     9   ar
    12     9    12    1
    13    12    13   ar
    14    13    14   ar
    15    14    15   ar
    16    15    16   ar
    17    16    17   ar
    18     9    10   ar
    19    10    11   ar
    20     4     5   ar
    21     5    27    1
    22    29    27    1
    23    29    30    1
    24    30    31    1
    25    31    38    1
    26    38    39    1
    27    31    32    1
    28    32    33    1
    29    32    34    1
    30    34    35    1
    31     5     6   ar
    32    23    24   ar
    33    24    25   ar
    34    25    26   ar
    35    26    21   ar
    36     6     1   ar
    37    11     7   ar
    38    34    29    1
    39    17    12   ar
    40    18    19    1
    41    27    28    1
    42    39    40    1
    43    33    36    1
    44    35    37    1
@<TRIPOS>MOLECULE
*****
 40 44 0 0 0
SMALL
GASTEIGER

@<TRIPOS>ATOM
      1 C           6.6451   -4.5551   29.4889 C.ar    1  UNL1        0.2218
      2 N           6.8461   -5.7903   28.6619 N.ar    1  UNL1       -0.2119
      3 C           6.9213   -5.6882   27.1673 C.ar    1  UNL1        0.1066
      4 C           6.7956   -4.3509   26.4997 C.ar    1  UNL1        0.0744
      5 C           6.5947   -3.1157   27.3266 C.ar    1  UNL1        0.1348
      6 N           6.5194   -3.2178   28.8212 N.ar    1  UNL1       -0.1987
      7 C           6.8709   -4.2488   25.0050 C.ar    1  UNL1        0.1149
      8 N           5.7787   -3.7640   24.0983 N.ar    1  UNL1       -0.2382
      9 C           6.2843   -3.8291   22.6876 C.ar    1  UNL1        0.0883
     10 C           7.6890   -4.3542   22.7224 C.ar    1  UNL1        0.0560
     11 S           8.0515   -4.6135   24.1547 S.2     1  UNL1       -0.0658
     12 C           5.5196   -3.4379   21.4579 C.ar    1  UNL1        0.0182
     13 C           4.3017   -2.5703   21.5767 C.ar    1  UNL1        0.0015
     14 C           3.5369   -2.1790   20.3470 C.ar    1  UNL1        0.0000
     15 C           3.9900   -2.6554   18.9987 C.ar    1  UNL1        0.0000
     16 C           5.2078   -3.5229   18.8801 C.ar    1  UNL1        0.0000
     17 C           5.9726   -3.9142   20.1097 C.ar    1  UNL1        0.0015
     18 N           6.5699   -4.6572   30.9835 N.pl3   1  UNL1       -0.2824
     19 H           6.4553   -5.5362   31.4117 H       1  UNL1        0.1551
     20 C           4.2860   -0.9354   33.8000 C.3     1  UNL1        0.0521
     21 C           5.5273   -1.5590   33.2340 C.ar    1  UNL1        0.0606
     22 C           5.4280   -2.7963   32.3918 C.ar    1  UNL1        0.0294
     23 C           6.6692   -3.4199   31.8258 C.ar    1  UNL1        0.0532
     24 C           8.0098   -2.8062   32.1019 C.ar    1  UNL1        0.0353
     25 C           8.1091   -1.5690   32.9441 C.ar    1  UNL1        0.0997
     26 N           6.8678   -0.9454   33.5101 N.ar    1  UNL1       -0.2481
     27 N           6.4689   -1.7783   26.6589 N.pl3   1  UNL1       -0.3172
     28 H           7.2745   -1.3063   26.3468 H       1  UNL1        0.1482
     29 C           5.1158   -1.1602   26.4669 C.3     1  UNL1        0.0998
     30 C           4.5285   -0.7118   25.1615 C.3     1  UNL1        0.0271
     31 C           3.1621   -0.1564   25.4343 C.3     1  UNL1        0.0604
     32 C           2.9049   -0.2615   26.9084 C.3     1  UNL1        0.1412
     33 O           1.6590    0.1768   27.6195 O.3     1  UNL1       -0.3818
     34 C           4.1124   -0.8819   27.5465 C.3     1  UNL1        0.1549
     35 O           4.2858   -1.1729   29.0077 O.3     1  UNL1       -0.3803
     36 H           1.0324    0.5446   26.9769 H       1  UNL1        0.2104
     37 H           3.4901   -0.8970   29.4891 H       1  UNL1        0.2105
     38 C           2.2186    0.4055   24.4125 C.3     1  UNL1        0.1396
     39 O           0.7682    0.5860   24.7500 O.3     1  UNL1       -0.3819
     40 H           0.3583   -0.2820   24.8895 H       1  UNL1        0.2104
@<TRIPOS>BOND
     1    20    21    1
     2    21    22   ar
     3    22    23   ar
     4    23    18    1
     5    18     1    1
     6     1     2   ar
     7     2     3   ar
     8     3     4   ar
     9     4     7    1
    10     7     8   ar
    11     8     9   ar
    12     9    12    1
    13    12    13   ar
    14    13    14   ar
    15    14    15   ar
    16    15    16   ar
    17    16    17   ar
    18     9    10   ar
    19    10    11   ar
    20     4     5   ar
    21     5    27    1
    22    29    27    1
    23    29    30    1
    24    30    31    1
    25    31    38    1
    26    38    39    1
    27    31    32    1
    28    32    33    1
    29    32    34    1
    30    34    35    1
    31     5     6   ar
    32    23    24   ar
    33    24    25   ar
    34    25    26   ar
    35    26    21   ar
    36     6     1   ar
    37    11     7   ar
    38    34    29    1
    39    17    12   ar
    40    18    19    1
    41    27    28    1
    42    39    40    1
    43    33    36    1
    44    35    37    1
@<TRIPOS>MOLECULE
*****
 40 44 0 0 0
SMALL
GASTEIGER

@<TRIPOS>ATOM
      1 C           8.0617   -1.7897   32.7612 C.ar    1  UNL1        0.2218
      2 N           8.8129   -0.9347   33.7384 N.ar    1  UNL1       -0.2119
      3 C           8.0642   -0.0963   34.7317 C.ar    1  UNL1        0.1066
      4 C           6.5643   -0.1129   34.7478 C.ar    1  UNL1        0.0744
      5 C           5.8132   -0.9678   33.7706 C.ar    1  UNL1        0.1348
      6 N           6.5619   -1.8062   32.7773 N.ar    1  UNL1       -0.1987
      7 C           5.8156    0.7255   35.7411 C.ar    1  UNL1        0.1149
      8 N           4.4578    0.4247   36.3030 N.ar    1  UNL1       -0.2382
      9 C           4.0963    1.5252   37.2560 C.ar    1  UNL1        0.0883
     10 C           5.2307    2.5061   37.2831 C.ar    1  UNL1        0.0560
     11 S           6.2933    2.0119   36.3468 S.2     1  UNL1       -0.0658
     12 C           2.8238    1.6268   38.0437 C.ar    1  UNL1        0.0182
     13 C           2.3726    0.4746   38.8915 C.ar    1  UNL1        0.0015
     14 C           1.1001    0.5762   39.6792 C.ar    1  UNL1        0.0000
     15 C           0.2789    1.8300   39.6190 C.ar    1  UNL1        0.0000
     16 C           0.7301    2.9821   38.7711 C.ar    1  UNL1        0.0000
     17 C           2.0026    2.8805   37.9835 C.ar    1  UNL1        0.0015
     18 N           8.8103   -2.6281   31.7680 N.pl3   1  UNL1       -0.2824
     19 H           9.7934   -2.5882   31.7319 H       1  UNL1        0.1551
     20 C           6.5740   -3.4537   27.1509 C.3     1  UNL1        0.0521
     21 C           6.9430   -3.9400   28.5211 C.ar    1  UNL1        0.0606
     22 C           7.6921   -3.0409   29.4594 C.ar    1  UNL1        0.0294
     23 C           8.0612   -3.5272   30.8296 C.ar    1  UNL1        0.0532
     24 C           7.6812   -4.9125   31.2614 C.ar    1  UNL1        0.0353
     25 C           6.9321   -5.8115   30.3231 C.ar    1  UNL1        0.0997
     26 N           6.5630   -5.3252   28.9529 N.ar    1  UNL1       -0.2481
     27 N           4.3133   -0.9843   33.7867 N.pl3   1  UNL1       -0.3172
     28 H           3.8339   -1.4643   34.5001 H       1  UNL1        0.1482
     29 C           3.5439   -0.2696   32.7157 C.3     1  UNL1        0.0998
     30 C           3.3057   -0.7662   31.3205 C.3     1  UNL1        0.0271
     31 C           2.4921    0.2637   30.5944 C.3     1  UNL1        0.0604
     32 C           2.2275    1.3970   31.5409 C.3     1  UNL1        0.1412
     33 O           1.4494    2.6413   31.2307 O.3     1  UNL1       -0.3818
     34 C           2.8775    1.0673   32.8519 C.3     1  UNL1        0.1549
     35 O           2.8636    1.9242   34.0829 O.3     1  UNL1       -0.3803
     36 H           1.1365    2.6068   30.3132 H       1  UNL1        0.2104
     37 H           2.3646    2.7369   33.9056 H       1  UNL1        0.2105
     38 C           2.0252    0.1759   29.1716 C.3     1  UNL1        0.1396
     39 O           0.8790   -0.7226   28.8125 O.3     1  UNL1       -0.3819
     40 H           1.1353   -1.6470   28.9566 H       1  UNL1        0.2104
@<TRIPOS>BOND
     1    20    21    1
     2    21    22   ar
     3    22    23   ar
     4    23    18    1
     5    18     1    1
     6     1     2   ar
     7     2     3   ar
     8     3     4   ar
     9     4     7    1
    10     7     8   ar
    11     8     9   ar
    12     9    12    1
    13    12    13   ar
    14    13    14   ar
    15    14    15   ar
    16    15    16   ar
    17    16    17   ar
    18     9    10   ar
    19    10    11   ar
    20     4     5   ar
    21     5    27    1
    22    29    27    1
    23    29    30    1
    24    30    31    1
    25    31    38    1
    26    38    39    1
    27    31    32    1
    28    32    33    1
    29    32    34    1
    30    34    35    1
    31     5     6   ar
    32    23    24   ar
    33    24    25   ar
    34    25    26   ar
    35    26    21   ar
    36     6     1   ar
    37    11     7   ar
    38    34    29    1
    39    17    12   ar
    40    18    19    1
    41    27    28    1
    42    39    40    1
    43    33    36    1
    44    35    37    1
@<TRIPOS>MOLECULE
*****
 40 44 0 0 0
SMALL
GASTEIGER

@<TRIPOS>ATOM
      1 C          -1.9384    3.7982   25.2879 C.ar    1  UNL1        0.2218
      2 N          -1.1730    4.2557   24.0816 N.ar    1  UNL1       -0.2119
      3 C           0.0476    3.5047   23.6386 C.ar    1  UNL1        0.1066
      4 C           0.5027    2.2962   24.4019 C.ar    1  UNL1        0.0744
      5 C          -0.2627    1.8388   25.6081 C.ar    1  UNL1        0.1348
      6 N          -1.4832    2.5898   26.0510 N.ar    1  UNL1       -0.1987
      7 C           1.7233    1.5452   23.9589 C.ar    1  UNL1        0.1149
      8 N           1.7360    0.2276   23.2420 N.ar    1  UNL1       -0.2382
      9 C           3.1660   -0.1520   22.9951 C.ar    1  UNL1        0.0883
     10 C           4.0371    0.9309   23.5594 C.ar    1  UNL1        0.0560
     11 S           3.1455    1.9798   24.1550 S.2     1  UNL1       -0.0658
     12 C           3.6414   -1.3961   22.3050 C.ar    1  UNL1        0.0182
     13 C           4.3746   -2.4502   23.0805 C.ar    1  UNL1        0.0015
     14 C           4.8500   -3.6943   22.3904 C.ar    1  UNL1        0.0000
     15 C           4.5921   -3.8843   20.9250 C.ar    1  UNL1        0.0000
     16 C           3.8589   -2.8302   20.1496 C.ar    1  UNL1        0.0000
     17 C           3.3835   -1.5861   20.8397 C.ar    1  UNL1        0.0015
     18 N          -3.1589    4.5492   25.7308 N.pl3   1  UNL1       -0.2824
     19 H          -3.1326    5.0903   26.5529 H       1  UNL1        0.1551
     20 C          -8.1142    5.9235   24.9849 C.3     1  UNL1        0.0521
     21 C          -6.8973    5.1630   24.5483 C.ar    1  UNL1        0.0606
     22 C          -5.6366    5.2363   25.3578 C.ar    1  UNL1        0.0294
     23 C          -4.4196    4.4758   24.9213 C.ar    1  UNL1        0.0532
     24 C          -4.4633    3.6419   23.6752 C.ar    1  UNL1        0.0353
     25 C          -5.7240    3.5685   22.8657 C.ar    1  UNL1        0.0997
     26 N          -6.9409    4.3291   23.3023 N.ar    1  UNL1       -0.2481
     27 N           0.1924    0.6303   26.3713 N.pl3   1  UNL1       -0.3172
     28 H           0.2425   -0.2449   25.9232 H       1  UNL1        0.1482
     29 C           0.5713    0.7552   27.8173 C.3     1  UNL1        0.0998
     30 C           0.0441    1.7759   28.7818 C.3     1  UNL1        0.0271
     31 C           0.6909    1.5330   30.1132 C.3     1  UNL1        0.0604
     32 C           1.6178    0.3621   29.9715 C.3     1  UNL1        0.1412
     33 O           2.4691   -0.2250   31.0581 O.3     1  UNL1       -0.3818
     34 C           1.5439   -0.1185   28.5525 C.3     1  UNL1        0.1549
     35 O           2.3083   -1.2706   27.9710 O.3     1  UNL1       -0.3803
     36 H           2.3312    0.2708   31.8803 H       1  UNL1        0.2104
     37 H           2.8674   -1.6671   28.6574 H       1  UNL1        0.2105
     38 C           0.4526    2.3222   31.3663 C.3     1  UNL1        0.1396
     39 O           0.8450    1.7528   32.6974 O.3     1  UNL1       -0.3819
     40 H           0.2991    0.9743   32.8896 H       1  UNL1        0.2104
@<TRIPOS>BOND
     1    20    21    1
     2    21    22   ar
     3    22    23   ar
     4    23    18    1
     5    18     1    1
     6     1     2   ar
     7     2     3   ar
     8     3     4   ar
     9     4     7    1
    10     7     8   ar
    11     8     9   ar
    12     9    12    1
    13    12    13   ar
    14    13    14   ar
    15    14    15   ar
    16    15    16   ar
    17    16    17   ar
    18     9    10   ar
    19    10    11   ar
    20     4     5   ar
    21     5    27    1
    22    29    27    1
    23    29    30    1
    24    30    31    1
    25    31    38    1
    26    38    39    1
    27    31    32    1
    28    32    33    1
    29    32    34    1
    30    34    35    1
    31     5     6   ar
    32    23    24   ar
    33    24    25   ar
    34    25    26   ar
    35    26    21   ar
    36     6     1   ar
    37    11     7   ar
    38    34    29    1
    39    17    12   ar
    40    18    19    1
    41    27    28    1
    42    39    40    1
    43    33    36    1
    44    35    37    1
@<TRIPOS>MOLECULE
*****
 40 44 0 0 0
SMALL
GASTEIGER

@<TRIPOS>ATOM
      1 C           4.1596   -1.4648   32.2265 C.ar    1  UNL1        0.2218
      2 N           2.8753   -0.8611   31.7403 N.ar    1  UNL1       -0.2119
      3 C           2.7219   -0.4874   30.2957 C.ar    1  UNL1        0.1066
      4 C           3.8528   -0.7173   29.3373 C.ar    1  UNL1        0.0744
      5 C           5.1370   -1.3209   29.8236 C.ar    1  UNL1        0.1348
      6 N           5.2904   -1.6947   31.2681 N.ar    1  UNL1       -0.1987
      7 C           3.6993   -0.3436   27.8928 C.ar    1  UNL1        0.1149
      8 N           3.8027   -1.2785   26.7244 N.ar    1  UNL1       -0.2382
      9 C           3.5829   -0.4821   25.4724 C.ar    1  UNL1        0.0883
     10 C           3.3436    0.9452   25.8671 C.ar    1  UNL1        0.0560
     11 S           3.4156    1.0307   27.3629 S.2     1  UNL1       -0.0658
     12 C           3.5994   -1.0186   24.0718 C.ar    1  UNL1        0.0182
     13 C           4.4425   -2.2131   23.7362 C.ar    1  UNL1        0.0015
     14 C           4.4590   -2.7496   22.3356 C.ar    1  UNL1        0.0000
     15 C           3.6325   -2.0918   21.2706 C.ar    1  UNL1        0.0000
     16 C           2.7894   -0.8974   21.6063 C.ar    1  UNL1        0.0000
     17 C           2.7729   -0.3609   23.0069 C.ar    1  UNL1        0.0015
     18 N           4.3131   -1.8385   33.6711 N.pl3   1  UNL1       -0.2824
     19 H           3.9417   -2.6882   34.0018 H       1  UNL1        0.1551
     20 C           4.3492    1.0554   37.9866 C.3     1  UNL1        0.0521
     21 C           5.0504    0.5293   36.7695 C.ar    1  UNL1        0.0606
     22 C           4.3312   -0.3915   35.8289 C.ar    1  UNL1        0.0294
     23 C           5.0324   -0.9177   34.6117 C.ar    1  UNL1        0.0532
     24 C           6.4528   -0.5229   34.3351 C.ar    1  UNL1        0.0353
     25 C           7.1720    0.3979   35.2757 C.ar    1  UNL1        0.0997
     26 N           6.4708    0.9240   36.4929 N.ar    1  UNL1       -0.2481
     27 N           6.2678   -1.5508   28.8652 N.pl3   1  UNL1       -0.3172
     28 H           6.8369   -0.7977   28.5856 H       1  UNL1        0.1482
     29 C           6.5315   -2.9281   28.3329 C.3     1  UNL1        0.0998
     30 C           6.6356   -3.3091   26.8858 C.3     1  UNL1        0.0271
     31 C           6.9058   -4.7828   26.8127 C.3     1  UNL1        0.0604
     32 C           6.9687   -5.3125   28.2147 C.3     1  UNL1        0.1412
     33 O           7.2191   -6.7383   28.6080 O.3     1  UNL1       -0.3818
     34 C           6.7374   -4.1663   29.1541 C.3     1  UNL1        0.1549
     35 O           6.7157   -4.2446   30.6519 O.3     1  UNL1       -0.3803
     36 H           7.3365   -7.2779   27.8106 H       1  UNL1        0.2104
     37 H           6.8758   -5.1599   30.9302 H       1  UNL1        0.2105
     38 C           7.0822   -5.5857   25.5580 C.3     1  UNL1        0.1396
     39 O           7.5651   -7.0037   25.6366 O.3     1  UNL1       -0.3819
     40 H           8.4769   -7.0169   25.9673 H       1  UNL1        0.2104
@<TRIPOS>BOND
     1    20    21    1
     2    21    22   ar
     3    22    23   ar
     4    23    18    1
     5    18     1    1
     6     1     2   ar
     7     2     3   ar
     8     3     4   ar
     9     4     7    1
    10     7     8   ar
    11     8     9   ar
    12     9    12    1
    13    12    13   ar
    14    13    14   ar
    15    14    15   ar
    16    15    16   ar
    17    16    17   ar
    18     9    10   ar
    19    10    11   ar
    20     4     5   ar
    21     5    27    1
    22    29    27    1
    23    29    30    1
    24    30    31    1
    25    31    38    1
    26    38    39    1
    27    31    32    1
    28    32    33    1
    29    32    34    1
    30    34    35    1
    31     5     6   ar
    32    23    24   ar
    33    24    25   ar
    34    25    26   ar
    35    26    21   ar
    36     6     1   ar
    37    11     7   ar
    38    34    29    1
    39    17    12   ar
    40    18    19    1
    41    27    28    1
    42    39    40    1
    43    33    36    1
    44    35    37    1
@<TRIPOS>MOLECULE
*****
 40 44 0 0 0
SMALL
GASTEIGER

@<TRIPOS>ATOM
      1 C           5.2682   -0.2991   35.6890 C.ar    1  UNL1        0.2218
      2 N           6.7230   -0.1493   35.3556 N.ar    1  UNL1       -0.2119
      3 C           7.2108   -0.4580   33.9711 C.ar    1  UNL1        0.1066
      4 C           6.2438   -0.9166   32.9201 C.ar    1  UNL1        0.0744
      5 C           4.7891   -1.0665   33.2535 C.ar    1  UNL1        0.1348
      6 N           4.3013   -0.7578   34.6380 N.ar    1  UNL1       -0.1987
      7 C           6.7316   -1.2254   31.5356 C.ar    1  UNL1        0.1149
      8 N           6.3720   -2.4340   30.7232 N.ar    1  UNL1       -0.2382
      9 C           7.0828   -2.3353   29.4059 C.ar    1  UNL1        0.0883
     10 C           7.8817   -1.0658   29.4043 C.ar    1  UNL1        0.0560
     11 S           7.6646   -0.3798   30.7205 S.2     1  UNL1       -0.0658
     12 C           7.0078   -3.3313   28.2869 C.ar    1  UNL1        0.0182
     13 C           7.3909   -2.9253   26.8946 C.ar    1  UNL1        0.0015
     14 C           7.3159   -3.9213   25.7756 C.ar    1  UNL1        0.0000
     15 C           6.8579   -5.3233   26.0488 C.ar    1  UNL1        0.0000
     16 C           6.4749   -5.7293   27.4410 C.ar    1  UNL1        0.0000
     17 C           6.5499   -4.7333   28.5601 C.ar    1  UNL1        0.0015
     18 N           4.7804    0.0096   37.0735 N.pl3   1  UNL1       -0.2824
     19 H           5.1623   -0.4646   37.8471 H       1  UNL1        0.1551
     20 C           0.7100    1.7964   39.7640 C.3     1  UNL1        0.0521
     21 C           1.6756    1.9343   38.6244 C.ar    1  UNL1        0.0606
     22 C           2.7452    0.9030   38.4187 C.ar    1  UNL1        0.0294
     23 C           3.7108    1.0410   37.2792 C.ar    1  UNL1        0.0532
     24 C           3.6068    2.2102   36.3454 C.ar    1  UNL1        0.0353
     25 C           2.5372    3.2415   36.5511 C.ar    1  UNL1        0.0997
     26 N           1.5716    3.1035   37.6907 N.ar    1  UNL1       -0.2481
     27 N           3.8220   -1.5251   32.2025 N.pl3   1  UNL1       -0.3172
     28 H           3.6352   -2.4853   32.0909 H       1  UNL1        0.1482
     29 C           3.1398   -0.5209   31.3216 C.3     1  UNL1        0.0998
     30 C           2.9955   -0.6094   29.8312 C.3     1  UNL1        0.0271
     31 C           2.2486    0.6050   29.3649 C.3     1  UNL1        0.0604
     32 C           1.9312    1.4439   30.5672 C.3     1  UNL1        0.1412
     33 O           1.1927    2.7495   30.5612 O.3     1  UNL1       -0.3818
     34 C           2.4820    0.7481   31.7765 C.3     1  UNL1        0.1549
     35 O           2.3910    1.2357   33.1921 O.3     1  UNL1       -0.3803
     36 H           0.9455    2.9770   29.6512 H       1  UNL1        0.2104
     37 H           1.9160    2.0811   33.2129 H       1  UNL1        0.2105
     38 C           1.8832    0.9243   27.9456 C.3     1  UNL1        0.1396
     39 O           0.6192    1.6749   27.6472 O.3     1  UNL1       -0.3819
     40 H          -0.1455    1.1312   27.8933 H       1  UNL1        0.2104
@<TRIPOS>BOND
     1    20    21    1
     2    21    22   ar
     3    22    23   ar
     4    23    18    1
     5    18     1    1
     6     1     2   ar
     7     2     3   ar
     8     3     4   ar
     9     4     7    1
    10     7     8   ar
    11     8     9   ar
    12     9    12    1
    13    12    13   ar
    14    13    14   ar
    15    14    15   ar
    16    15    16   ar
    17    16    17   ar
    18     9    10   ar
    19    10    11   ar
    20     4     5   ar
    21     5    27    1
    22    29    27    1
    23    29    30    1
    24    30    31    1
    25    31    38    1
    26    38    39    1
    27    31    32    1
    28    32    33    1
    29    32    34    1
    30    34    35    1
    31     5     6   ar
    32    23    24   ar
    33    24    25   ar
    34    25    26   ar
    35    26    21   ar
    36     6     1   ar
    37    11     7   ar
    38    34    29    1
    39    17    12   ar
    40    18    19    1
    41    27    28    1
    42    39    40    1
    43    33    36    1
    44    35    37    1
@<TRIPOS>MOLECULE
*****
 40 44 0 0 0
SMALL
GASTEIGER

@<TRIPOS>ATOM
      1 C         -10.7001  -18.3374   21.1095 C.ar    1  UNL1        0.2218
      2 N         -10.3549  -19.6224   20.4168 N.ar    1  UNL1       -0.2119
      3 C          -8.9185  -19.9876   20.1859 C.ar    1  UNL1        0.1066
      4 C          -7.8272  -19.0678   20.6477 C.ar    1  UNL1        0.0744
      5 C          -8.1724  -17.7828   21.3404 C.ar    1  UNL1        0.1348
      6 N          -9.6089  -17.4177   21.5712 N.ar    1  UNL1       -0.1987
      7 C          -6.3908  -19.4329   20.4169 C.ar    1  UNL1        0.1149
      8 N          -5.2397  -18.4747   20.3348 N.ar    1  UNL1       -0.2382
      9 C          -3.9907  -19.2700   20.0948 C.ar    1  UNL1        0.0883
     10 C          -4.3699  -20.7198   20.0284 C.ar    1  UNL1        0.0560
     11 S          -5.8532  -20.8204   20.2274 S.2     1  UNL1       -0.0658
     12 C          -2.6057  -18.7133   19.9470 C.ar    1  UNL1        0.0182
     13 C          -1.7093  -18.6050   21.1448 C.ar    1  UNL1        0.0015
     14 C          -0.3243  -18.0482   20.9970 C.ar    1  UNL1        0.0000
     15 C           0.1642  -17.5998   19.6515 C.ar    1  UNL1        0.0000
     16 C          -0.7322  -17.7082   18.4538 C.ar    1  UNL1        0.0000
     17 C          -2.1172  -18.2649   18.6016 C.ar    1  UNL1        0.0015
     18 N         -12.1365  -17.9722   21.3404 N.pl3   1  UNL1       -0.2824
     19 H         -12.6682  -17.5800   20.6105 H       1  UNL1        0.1551
     20 C         -16.3747  -18.5823   24.2841 C.3     1  UNL1        0.0521
     21 C         -14.8820  -18.5097   24.1552 C.ar    1  UNL1        0.0606
     22 C         -14.2556  -18.2773   22.8123 C.ar    1  UNL1        0.0294
     23 C         -12.7629  -18.2046   22.6834 C.ar    1  UNL1        0.0532
     24 C         -11.8966  -18.3644   23.8975 C.ar    1  UNL1        0.0353
     25 C         -12.5231  -18.5968   25.2404 C.ar    1  UNL1        0.0997
     26 N         -14.0157  -18.6694   25.3693 N.ar    1  UNL1       -0.2481
     27 N          -7.0812  -16.8630   21.8022 N.pl3   1  UNL1       -0.3172
     28 H          -6.3569  -16.6098   21.1853 H       1  UNL1        0.1482
     29 C          -7.0935  -16.3290   23.2038 C.3     1  UNL1        0.0998
     30 C          -8.1141  -16.6419   24.2576 C.3     1  UNL1        0.0271
     31 C          -7.7387  -15.8946   25.5029 C.3     1  UNL1        0.0604
     32 C          -6.4861  -15.1198   25.2186 C.3     1  UNL1        0.1412
     33 O          -5.7598  -14.2324   26.1856 O.3     1  UNL1       -0.3818
     34 C          -6.0874  -15.3883   23.7977 C.3     1  UNL1        0.1549
     35 O          -4.8923  -14.8165   23.0944 O.3     1  UNL1       -0.3803
     36 H          -6.2255  -14.2319   27.0365 H       1  UNL1        0.2104
     37 H          -4.4058  -14.2376   23.7020 H       1  UNL1        0.2105
     38 C          -8.4849  -15.9180   26.8039 C.3     1  UNL1        0.1396
     39 O          -8.4492  -14.7235   27.7105 O.3     1  UNL1       -0.3819
     40 H          -7.5469  -14.5970   28.0432 H       1  UNL1        0.2104
@<TRIPOS>BOND
     1    20    21    1
     2    21    22   ar
     3    22    23   ar
     4    23    18    1
     5    18     1    1
     6     1     2   ar
     7     2     3   ar
     8     3     4   ar
     9     4     7    1
    10     7     8   ar
    11     8     9   ar
    12     9    12    1
    13    12    13   ar
    14    13    14   ar
    15    14    15   ar
    16    15    16   ar
    17    16    17   ar
    18     9    10   ar
    19    10    11   ar
    20     4     5   ar
    21     5    27    1
    22    29    27    1
    23    29    30    1
    24    30    31    1
    25    31    38    1
    26    38    39    1
    27    31    32    1
    28    32    33    1
    29    32    34    1
    30    34    35    1
    31     5     6   ar
    32    23    24   ar
    33    24    25   ar
    34    25    26   ar
    35    26    21   ar
    36     6     1   ar
    37    11     7   ar
    38    34    29    1
    39    17    12   ar
    40    18    19    1
    41    27    28    1
    42    39    40    1
    43    33    36    1
    44    35    37    1
