@<TRIPOS>MOLECULE
*****
 29 31 0 0 0
SMALL
GASTEIGER

@<TRIPOS>ATOM
      1 C          -1.3399  -18.1079   19.8814 C.3     1  UNL1        0.0896
      2 N          -2.3928  -18.4164   20.9042 N.3     1  UNL1       -0.2715
      3 C          -3.5121  -19.3569   20.5682 C.3     1  UNL1        0.0511
      4 C          -3.7445  -18.6209   19.2821 C.3     1  UNL1        0.0164
      5 C          -3.2797  -20.0929   21.8544 C.3     1  UNL1        0.0164
      6 C          -4.6313  -20.2973   20.2323 C.3     1  UNL1        0.0604
      7 C          -6.0351  -19.9717   20.6487 C.2     1  UNL1        0.0599
      8 C          -6.5565  -19.9563   22.0551 C.2     1  UNL1        0.0159
      9 C          -8.0076  -19.5794   22.0074 C.2     1  UNL1        0.0150
     10 C          -9.0355  -19.4062   23.0860 C.2     1  UNL1        0.0009
     11 C         -10.4389  -19.0154   22.7287 C.2     1  UNL1       -0.0041
     12 C         -10.8144  -18.7979   21.2928 C.2     1  UNL1       -0.0198
     13 C          -9.7864  -18.9711   20.2143 C.3     1  UNL1        0.0717
     14 C          -8.3830  -19.3618   20.5716 C.2     1  UNL1        0.0630
     15 N          -7.1640  -19.6043   19.7319 N.2     1  UNL1       -0.2536
     16 C          -2.3266  -17.7844   22.2629 C.3     1  UNL1        0.1055
     17 C          -3.1389  -16.5591   22.5606 C.3     1  UNL1        0.1700
     18 O          -2.7920  -15.2528   21.9098 O.3     1  UNL1       -0.3793
     19 H          -3.4113  -14.5684   22.2082 H       1  UNL1        0.2106
     20 C          -4.2982  -16.6400   23.5090 C.3     1  UNL1        0.2358
     21 O          -5.0171  -15.3902   23.9230 O.3     1  UNL1       -0.4721
     22 C          -6.1123  -15.4588   24.9458 C.ar    1  UNL1        0.1482
     23 C          -5.7859  -15.3282   26.4040 C.ar    1  UNL1        0.0376
     24 C          -6.8810  -15.3968   27.4267 C.ar    1  UNL1        0.0032
     25 C          -8.3025  -15.5959   26.9912 C.ar    1  UNL1        0.0009
     26 C          -8.6289  -15.7265   25.5329 C.ar    1  UNL1        0.0133
     27 C          -7.5338  -15.6579   24.5102 C.ar    1  UNL1        0.1023
     28 C          -7.8602  -15.7884   23.0520 C.1     1  UNL1        0.1035
     29 N          -8.1865  -15.9189   21.5937 N.1     1  UNL1       -0.1907
@<TRIPOS>BOND
     1     1     2    1
     2     2    16    1
     3    16    17    1
     4    17    18    1
     5    17    20    1
     6    20    21    1
     7    21    22    1
     8    22    23   ar
     9    23    24   ar
    10    24    25   ar
    11    25    26   ar
    12    26    27   ar
    13    27    28    1
    14    28    29    3
    15     2     3    1
    16     3     4    1
    17     3     5    1
    18     3     6    1
    19     6     7    1
    20     7     8    2
    21     8     9    1
    22     9    10    2
    23    10    11    1
    24    11    12    2
    25    12    13    1
    26    13    14    1
    27    14    15    2
    28    27    22   ar
    29    15     7    1
    30    14     9    1
    31    18    19    1
@<TRIPOS>MOLECULE
*****
 29 31 0 0 0
SMALL
GASTEIGER

@<TRIPOS>ATOM
      1 C         -10.3761  -18.5395   19.6887 C.3     1  UNL1        0.0896
      2 N          -9.3733  -18.5920   20.8029 N.3     1  UNL1       -0.2715
      3 C          -8.1711  -19.4819   20.6887 C.3     1  UNL1        0.0511
      4 C          -7.9090  -19.3161   22.1562 C.3     1  UNL1        0.0164
      5 C          -8.4332  -19.6476   19.2211 C.3     1  UNL1        0.0164
      6 C          -6.9690  -20.3717   20.5745 C.3     1  UNL1        0.0604
      7 C          -5.6015  -19.7709   20.4368 C.2     1  UNL1        0.0599
      8 C          -4.4178  -20.0637   21.3104 C.2     1  UNL1        0.0159
      9 C          -3.2623  -19.2456   20.8149 C.2     1  UNL1        0.0150
     10 C          -1.8433  -19.1245   21.2855 C.2     1  UNL1        0.0009
     11 C          -0.8938  -18.2050   20.5764 C.2     1  UNL1       -0.0041
     12 C          -1.3633  -17.4066   19.3966 C.2     1  UNL1       -0.0198
     13 C          -2.7824  -17.5277   18.9259 C.3     1  UNL1        0.0717
     14 C          -3.7319  -18.4472   19.6350 C.2     1  UNL1        0.0630
     15 N          -5.1776  -18.7719   19.4014 N.2     1  UNL1       -0.2536
     16 C          -9.5725  -17.7546   22.0314 C.3     1  UNL1        0.1055
     17 C          -9.7501  -16.2705   21.9067 C.3     1  UNL1        0.1700
     18 O         -11.1211  -15.6926   21.7147 O.3     1  UNL1       -0.3793
     19 H         -11.0590  -14.7266   21.6531 H       1  UNL1        0.2106
     20 C          -8.5569  -15.3640   21.9741 C.3     1  UNL1        0.2358
     21 O          -7.2668  -15.8642   22.5533 O.3     1  UNL1       -0.4721
     22 C          -7.0023  -15.7287   24.0236 C.ar    1  UNL1        0.1482
     23 C          -8.1454  -15.5471   24.9776 C.ar    1  UNL1        0.0376
     24 C          -7.8809  -15.4115   26.4479 C.ar    1  UNL1        0.0032
     25 C          -6.4734  -15.4575   26.9641 C.ar    1  UNL1        0.0009
     26 C          -5.3301  -15.6392   26.0100 C.ar    1  UNL1        0.0133
     27 C          -5.5946  -15.7747   24.5398 C.ar    1  UNL1        0.1023
     28 C          -4.4515  -15.9564   23.5857 C.1     1  UNL1        0.1035
     29 N          -3.3083  -16.1380   22.6316 N.1     1  UNL1       -0.1907
@<TRIPOS>BOND
     1     1     2    1
     2     2    16    1
     3    16    17    1
     4    17    18    1
     5    17    20    1
     6    20    21    1
     7    21    22    1
     8    22    23   ar
     9    23    24   ar
    10    24    25   ar
    11    25    26   ar
    12    26    27   ar
    13    27    28    1
    14    28    29    3
    15     2     3    1
    16     3     4    1
    17     3     5    1
    18     3     6    1
    19     6     7    1
    20     7     8    2
    21     8     9    1
    22     9    10    2
    23    10    11    1
    24    11    12    2
    25    12    13    1
    26    13    14    1
    27    14    15    2
    28    27    22   ar
    29    15     7    1
    30    14     9    1
    31    18    19    1
@<TRIPOS>MOLECULE
*****
 29 31 0 0 0
SMALL
GASTEIGER

@<TRIPOS>ATOM
      1 C          -9.5503  -18.9253   19.7139 C.3     1  UNL1        0.0896
      2 N          -9.0527  -19.2826   21.0831 N.3     1  UNL1       -0.2715
      3 C          -7.6877  -19.8812   21.2524 C.3     1  UNL1        0.0511
      4 C          -7.4060  -19.6505   19.7973 C.3     1  UNL1        0.0164
      5 C          -7.9693  -20.1118   22.7076 C.3     1  UNL1        0.0164
      6 C          -6.3227  -20.4797   21.4218 C.3     1  UNL1        0.0604
      7 C          -5.1024  -19.6241   21.2523 C.2     1  UNL1        0.0599
      8 C          -4.0403  -19.8002   20.2078 C.2     1  UNL1        0.0159
      9 C          -3.0113  -18.7272   20.4075 C.2     1  UNL1        0.0150
     10 C          -1.7414  -18.4059   19.6768 C.2     1  UNL1        0.0009
     11 C          -0.8976  -17.2454   20.1140 C.2     1  UNL1       -0.0041
     12 C          -1.3237  -16.4062   21.2819 C.2     1  UNL1       -0.0198
     13 C          -2.5936  -16.7274   22.0126 C.3     1  UNL1        0.0717
     14 C          -3.4374  -17.8880   21.5754 C.2     1  UNL1        0.0630
     15 N          -4.7298  -18.4423   22.0975 N.2     1  UNL1       -0.2536
     16 C          -9.9200  -19.0414   22.2829 C.3     1  UNL1        0.1055
     17 C         -10.1941  -17.6395   22.7405 C.3     1  UNL1        0.1700
     18 O         -10.5156  -16.5722   21.7367 O.3     1  UNL1       -0.3793
     19 H         -10.6647  -15.7308   22.1959 H       1  UNL1        0.2106
     20 C         -10.1467  -17.3048   24.2020 C.3     1  UNL1        0.2358
     21 O          -9.6980  -15.9439   24.6456 O.3     1  UNL1       -0.4721
     22 C          -8.2961  -15.7402   25.1387 C.ar    1  UNL1        0.1482
     23 C          -7.9763  -15.9351   26.5912 C.ar    1  UNL1        0.0376
     24 C          -6.5744  -15.7314   27.0844 C.ar    1  UNL1        0.0032
     25 C          -5.4924  -15.3329   26.1251 C.ar    1  UNL1        0.0009
     26 C          -5.8122  -15.1380   24.6725 C.ar    1  UNL1        0.0133
     27 C          -7.2141  -15.3416   24.1794 C.ar    1  UNL1        0.1023
     28 C          -7.5339  -15.1467   22.7269 C.1     1  UNL1        0.1035
     29 N          -7.8537  -14.9518   21.2744 N.1     1  UNL1       -0.1907
@<TRIPOS>BOND
     1     1     2    1
     2     2    16    1
     3    16    17    1
     4    17    18    1
     5    17    20    1
     6    20    21    1
     7    21    22    1
     8    22    23   ar
     9    23    24   ar
    10    24    25   ar
    11    25    26   ar
    12    26    27   ar
    13    27    28    1
    14    28    29    3
    15     2     3    1
    16     3     4    1
    17     3     5    1
    18     3     6    1
    19     6     7    1
    20     7     8    2
    21     8     9    1
    22     9    10    2
    23    10    11    1
    24    11    12    2
    25    12    13    1
    26    13    14    1
    27    14    15    2
    28    27    22   ar
    29    15     7    1
    30    14     9    1
    31    18    19    1
@<TRIPOS>MOLECULE
*****
 29 31 0 0 0
SMALL
GASTEIGER

@<TRIPOS>ATOM
      1 C          -1.2258  -17.9568   20.2312 C.3     1  UNL1        0.0896
      2 N          -2.3826  -18.3001   21.1222 N.3     1  UNL1       -0.2715
      3 C          -3.4304  -19.2653   20.6525 C.3     1  UNL1        0.0511
      4 C          -3.2511  -20.0697   21.9058 C.3     1  UNL1        0.0164
      5 C          -3.6097  -18.4609   19.3993 C.3     1  UNL1        0.0164
      6 C          -4.4782  -20.2305   20.1830 C.3     1  UNL1        0.0604
      7 C          -5.9003  -20.0708   20.6323 C.2     1  UNL1        0.0599
      8 C          -6.4020  -20.2140   22.0387 C.2     1  UNL1        0.0159
      9 C          -7.8823  -19.9716   22.0298 C.2     1  UNL1        0.0150
     10 C          -8.9072  -19.9798   23.1249 C.2     1  UNL1        0.0009
     11 C         -10.3455  -19.6951   22.8081 C.2     1  UNL1       -0.0041
     12 C         -10.7587  -19.4022   21.3962 C.2     1  UNL1       -0.0198
     13 C          -9.7337  -19.3940   20.3011 C.3     1  UNL1        0.0717
     14 C          -8.2955  -19.6787   20.6179 C.2     1  UNL1        0.0630
     15 N          -7.0706  -19.7400   19.7543 N.2     1  UNL1       -0.2536
     16 C          -2.4916  -17.6783   22.4829 C.3     1  UNL1        0.1055
     17 C          -3.3816  -16.4897   22.6952 C.3     1  UNL1        0.1700
     18 O          -3.0397  -15.1739   22.0613 O.3     1  UNL1       -0.3793
     19 H          -3.7129  -14.5167   22.2973 H       1  UNL1        0.2106
     20 C          -4.6135  -16.6169   23.5415 C.3     1  UNL1        0.2358
     21 O          -5.5930  -15.4832   23.6153 O.3     1  UNL1       -0.4721
     22 C          -7.0659  -15.7590   23.5480 C.ar    1  UNL1        0.1482
     23 C          -7.7296  -15.9694   22.2194 C.ar    1  UNL1        0.0376
     24 C          -9.2025  -16.2453   22.1522 C.ar    1  UNL1        0.0032
     25 C         -10.0117  -16.3107   23.4135 C.ar    1  UNL1        0.0009
     26 C          -9.3480  -16.1003   24.7421 C.ar    1  UNL1        0.0133
     27 C          -7.8751  -15.8245   24.8094 C.ar    1  UNL1        0.1023
     28 C          -7.2114  -15.6141   26.1380 C.1     1  UNL1        0.1035
     29 N          -6.5477  -15.4037   27.4667 N.1     1  UNL1       -0.1907
@<TRIPOS>BOND
     1     1     2    1
     2     2    16    1
     3    16    17    1
     4    17    18    1
     5    17    20    1
     6    20    21    1
     7    21    22    1
     8    22    23   ar
     9    23    24   ar
    10    24    25   ar
    11    25    26   ar
    12    26    27   ar
    13    27    28    1
    14    28    29    3
    15     2     3    1
    16     3     4    1
    17     3     5    1
    18     3     6    1
    19     6     7    1
    20     7     8    2
    21     8     9    1
    22     9    10    2
    23    10    11    1
    24    11    12    2
    25    12    13    1
    26    13    14    1
    27    14    15    2
    28    27    22   ar
    29    15     7    1
    30    14     9    1
    31    18    19    1
@<TRIPOS>MOLECULE
*****
 29 31 0 0 0
SMALL
GASTEIGER

@<TRIPOS>ATOM
      1 C          -3.4933  -18.6211   20.2374 C.3     1  UNL1        0.0896
      2 N          -4.5433  -18.9248   21.2647 N.3     1  UNL1       -0.2715
      3 C          -5.8360  -19.5628   20.8500 C.3     1  UNL1        0.0511
      4 C          -5.9603  -20.1922   22.2058 C.3     1  UNL1        0.0164
      5 C          -5.7118  -18.9333   19.4941 C.3     1  UNL1        0.0164
      6 C          -7.1287  -20.2007   20.4353 C.3     1  UNL1        0.0604
      7 C          -8.4320  -19.6391   20.9211 C.2     1  UNL1        0.0599
      8 C          -9.4804  -18.9832   20.0722 C.2     1  UNL1        0.0159
      9 C         -10.6121  -18.5734   20.9675 C.2     1  UNL1        0.0150
     10 C         -11.9153  -17.8857   20.6870 C.2     1  UNL1        0.0009
     11 C         -12.8694  -17.6006   21.8087 C.2     1  UNL1       -0.0041
     12 C         -12.5204  -18.0033   23.2109 C.2     1  UNL1       -0.0198
     13 C         -11.2172  -18.6911   23.4913 C.3     1  UNL1        0.0717
     14 C         -10.2631  -18.9761   22.3696 C.2     1  UNL1        0.0630
     15 N          -8.9157  -19.6347   22.3409 N.2     1  UNL1       -0.2536
     16 C          -4.3007  -18.5904   22.7067 C.3     1  UNL1        0.1055
     17 C          -3.2980  -17.5369   23.0739 C.3     1  UNL1        0.1700
     18 O          -1.8471  -17.8950   23.2034 O.3     1  UNL1       -0.3793
     19 H          -1.3392  -17.1045   23.4442 H       1  UNL1        0.2106
     20 C          -3.7462  -16.1253   23.3115 C.3     1  UNL1        0.2358
     21 O          -5.1940  -15.7627   23.1609 O.3     1  UNL1       -0.4721
     22 C          -6.0741  -15.6708   24.3721 C.ar    1  UNL1        0.1482
     23 C          -5.4629  -15.6151   25.7408 C.ar    1  UNL1        0.0376
     24 C          -6.3430  -15.5232   26.9520 C.ar    1  UNL1        0.0032
     25 C          -7.8343  -15.4872   26.7945 C.ar    1  UNL1        0.0009
     26 C          -8.4455  -15.5430   25.4257 C.ar    1  UNL1        0.0133
     27 C          -7.5654  -15.6348   24.2145 C.ar    1  UNL1        0.1023
     28 C          -8.1765  -15.6906   22.8459 C.1     1  UNL1        0.1035
     29 N          -8.7877  -15.7464   21.4771 N.1     1  UNL1       -0.1907
@<TRIPOS>BOND
     1     1     2    1
     2     2    16    1
     3    16    17    1
     4    17    18    1
     5    17    20    1
     6    20    21    1
     7    21    22    1
     8    22    23   ar
     9    23    24   ar
    10    24    25   ar
    11    25    26   ar
    12    26    27   ar
    13    27    28    1
    14    28    29    3
    15     2     3    1
    16     3     4    1
    17     3     5    1
    18     3     6    1
    19     6     7    1
    20     7     8    2
    21     8     9    1
    22     9    10    2
    23    10    11    1
    24    11    12    2
    25    12    13    1
    26    13    14    1
    27    14    15    2
    28    27    22   ar
    29    15     7    1
    30    14     9    1
    31    18    19    1
@<TRIPOS>MOLECULE
*****
 29 31 0 0 0
SMALL
GASTEIGER

@<TRIPOS>ATOM
      1 C          -7.3831  -15.7655   27.3269 C.3     1  UNL1        0.0896
      2 N          -7.4851  -15.7500   25.8305 N.3     1  UNL1       -0.2715
      3 C          -6.2996  -15.3522   25.0020 C.3     1  UNL1        0.0511
      4 C          -5.4035  -15.5526   26.1881 C.3     1  UNL1        0.0164
      5 C          -7.1957  -15.1517   23.8159 C.3     1  UNL1        0.0164
      6 C          -5.1141  -14.9544   24.1736 C.3     1  UNL1        0.0604
      7 C          -4.3843  -15.9856   23.3648 C.2     1  UNL1        0.0599
      8 C          -4.6218  -17.4662   23.4031 C.2     1  UNL1        0.0159
      9 C          -3.6732  -18.1129   22.4377 C.2     1  UNL1        0.0150
     10 C          -3.4530  -19.5464   22.0547 C.2     1  UNL1        0.0009
     11 C          -2.4092  -19.8989   21.0369 C.2     1  UNL1       -0.0041
     12 C          -1.5855  -18.8180   20.4020 C.2     1  UNL1       -0.0198
     13 C          -1.8057  -17.3846   20.7849 C.3     1  UNL1        0.0717
     14 C          -2.8495  -17.0320   21.8027 C.2     1  UNL1        0.0630
     15 N          -3.2890  -15.7173   22.3757 N.2     1  UNL1       -0.2536
     16 C          -8.7727  -16.1322   25.1625 C.3     1  UNL1        0.1055
     17 C          -9.2412  -17.5567   25.1967 C.3     1  UNL1        0.1700
     18 O          -9.5436  -18.2155   26.5099 O.3     1  UNL1       -0.3793
     19 H          -9.8323  -19.1285   26.3547 H       1  UNL1        0.2106
     20 C          -9.4075  -18.3224   23.9176 C.3     1  UNL1        0.2358
     21 O          -9.2324  -17.6279   22.5995 O.3     1  UNL1       -0.4721
     22 C          -9.0534  -18.4321   21.3460 C.ar    1  UNL1        0.1482
     23 C          -7.6961  -18.9527   20.9763 C.ar    1  UNL1        0.0376
     24 C          -7.5171  -19.7569   19.7228 C.ar    1  UNL1        0.0032
     25 C          -8.6954  -20.0405   18.8391 C.ar    1  UNL1        0.0009
     26 C         -10.0528  -19.5200   19.2088 C.ar    1  UNL1        0.0133
     27 C         -10.2318  -18.7158   20.4623 C.ar    1  UNL1        0.1023
     28 C         -11.5891  -18.1953   20.8320 C.1     1  UNL1        0.1035
     29 N         -12.9464  -17.6747   21.2018 N.1     1  UNL1       -0.1907
@<TRIPOS>BOND
     1     1     2    1
     2     2    16    1
     3    16    17    1
     4    17    18    1
     5    17    20    1
     6    20    21    1
     7    21    22    1
     8    22    23   ar
     9    23    24   ar
    10    24    25   ar
    11    25    26   ar
    12    26    27   ar
    13    27    28    1
    14    28    29    3
    15     2     3    1
    16     3     4    1
    17     3     5    1
    18     3     6    1
    19     6     7    1
    20     7     8    2
    21     8     9    1
    22     9    10    2
    23    10    11    1
    24    11    12    2
    25    12    13    1
    26    13    14    1
    27    14    15    2
    28    27    22   ar
    29    15     7    1
    30    14     9    1
    31    18    19    1
@<TRIPOS>MOLECULE
*****
 29 31 0 0 0
SMALL
GASTEIGER

@<TRIPOS>ATOM
      1 C          -5.0917  -14.9568   26.2150 C.3     1  UNL1        0.0896
      2 N          -5.8149  -15.1656   24.9177 N.3     1  UNL1       -0.2715
      3 C          -7.3000  -15.3770   24.9125 C.3     1  UNL1        0.0511
      4 C          -7.2732  -15.6019   26.3952 C.3     1  UNL1        0.0164
      5 C          -7.3269  -15.1521   23.4297 C.3     1  UNL1        0.0164
      6 C          -8.7850  -15.5884   24.9073 C.3     1  UNL1        0.0604
      7 C          -9.3961  -16.5950   23.9782 C.2     1  UNL1        0.0599
      8 C          -9.5588  -18.0611   24.2502 C.2     1  UNL1        0.0159
      9 C         -10.2150  -18.6845   23.0541 C.2     1  UNL1        0.0150
     10 C         -10.6228  -20.0967   22.7551 C.2     1  UNL1        0.0009
     11 C         -11.2734  -20.4280   21.4448 C.2     1  UNL1       -0.0041
     12 C         -11.5161  -19.3472   20.4334 C.2     1  UNL1       -0.0198
     13 C         -11.1083  -17.9350   20.7324 C.3     1  UNL1        0.0717
     14 C         -10.4578  -17.6037   22.0427 C.2     1  UNL1        0.0630
     15 N          -9.9516  -16.3123   22.6139 N.2     1  UNL1       -0.2536
     16 C          -5.0532  -15.1630   23.6255 C.3     1  UNL1        0.1055
     17 C          -4.0297  -16.2258   23.3561 C.3     1  UNL1        0.1700
     18 O          -2.9815  -16.0085   22.3052 O.3     1  UNL1       -0.3793
     19 H          -2.4039  -16.7864   22.2590 H       1  UNL1        0.2106
     20 C          -4.0542  -17.5060   24.1375 C.3     1  UNL1        0.2358
     21 O          -4.1032  -18.8221   23.4194 O.3     1  UNL1       -0.4721
     22 C          -4.9458  -18.9735   22.1877 C.ar    1  UNL1        0.1482
     23 C          -6.4416  -18.9829   22.2988 C.ar    1  UNL1        0.0376
     24 C          -7.2842  -19.1344   21.0670 C.ar    1  UNL1        0.0032
     25 C          -6.6310  -19.2764   19.7243 C.ar    1  UNL1        0.0009
     26 C          -5.1351  -19.2670   19.6132 C.ar    1  UNL1        0.0133
     27 C          -4.2925  -19.1155   20.8449 C.ar    1  UNL1        0.1023
     28 C          -2.7967  -19.1061   20.7338 C.1     1  UNL1        0.1035
     29 N          -1.3008  -19.0968   20.6228 N.1     1  UNL1       -0.1907
@<TRIPOS>BOND
     1     1     2    1
     2     2    16    1
     3    16    17    1
     4    17    18    1
     5    17    20    1
     6    20    21    1
     7    21    22    1
     8    22    23   ar
     9    23    24   ar
    10    24    25   ar
    11    25    26   ar
    12    26    27   ar
    13    27    28    1
    14    28    29    3
    15     2     3    1
    16     3     4    1
    17     3     5    1
    18     3     6    1
    19     6     7    1
    20     7     8    2
    21     8     9    1
    22     9    10    2
    23    10    11    1
    24    11    12    2
    25    12    13    1
    26    13    14    1
    27    14    15    2
    28    27    22   ar
    29    15     7    1
    30    14     9    1
    31    18    19    1
@<TRIPOS>MOLECULE
*****
 29 31 0 0 0
SMALL
GASTEIGER

@<TRIPOS>ATOM
      1 C          -5.4838  -14.9644   26.6128 C.3     1  UNL1        0.0896
      2 N          -5.9561  -15.4880   25.2889 N.3     1  UNL1       -0.2715
      3 C          -7.4247  -15.6342   25.0209 C.3     1  UNL1        0.0511
      4 C          -7.6455  -16.0353   26.4492 C.3     1  UNL1        0.0164
      5 C          -7.2040  -15.2330   23.5925 C.3     1  UNL1        0.0164
      6 C          -8.8933  -15.7803   24.7529 C.3     1  UNL1        0.0604
      7 C          -9.3646  -16.5763   23.5721 C.2     1  UNL1        0.0599
      8 C         -10.3388  -16.1141   22.5293 C.2     1  UNL1        0.0159
      9 C         -10.5208  -17.2264   21.5395 C.2     1  UNL1        0.0150
     10 C         -11.3599  -17.3408   20.3014 C.2     1  UNL1        0.0009
     11 C         -11.3372  -18.6050   19.4944 C.2     1  UNL1       -0.0041
     12 C         -10.4755  -19.7547   19.9254 C.2     1  UNL1       -0.0198
     13 C          -9.6365  -19.6402   21.1635 C.3     1  UNL1        0.0717
     14 C          -9.6592  -18.3760   21.9705 C.2     1  UNL1        0.0630
     15 N          -8.9446  -17.9743   23.2267 N.2     1  UNL1       -0.2536
     16 C          -4.9598  -15.8655   24.2330 C.3     1  UNL1        0.1055
     17 C          -4.0419  -17.0317   24.4507 C.3     1  UNL1        0.1700
     18 O          -3.9851  -17.7016   25.7917 O.3     1  UNL1       -0.3793
     19 H          -3.3467  -18.4312   25.7619 H       1  UNL1        0.2106
     20 C          -3.1806  -17.5282   23.3273 C.3     1  UNL1        0.2358
     21 O          -3.7112  -17.5401   21.9243 O.3     1  UNL1       -0.4721
     22 C          -4.4000  -18.7623   21.3934 C.ar    1  UNL1        0.1482
     23 C          -5.5784  -19.3357   22.1231 C.ar    1  UNL1        0.0376
     24 C          -6.2671  -20.5579   21.5922 C.ar    1  UNL1        0.0032
     25 C          -5.7775  -21.2067   20.3315 C.ar    1  UNL1        0.0009
     26 C          -4.5990  -20.6333   19.6017 C.ar    1  UNL1        0.0133
     27 C          -3.9103  -19.4111   20.1327 C.ar    1  UNL1        0.1023
     28 C          -2.7319  -18.8377   19.4029 C.1     1  UNL1        0.1035
     29 N          -1.5535  -18.2641   18.6732 N.1     1  UNL1       -0.1907
@<TRIPOS>BOND
     1     1     2    1
     2     2    16    1
     3    16    17    1
     4    17    18    1
     5    17    20    1
     6    20    21    1
     7    21    22    1
     8    22    23   ar
     9    23    24   ar
    10    24    25   ar
    11    25    26   ar
    12    26    27   ar
    13    27    28    1
    14    28    29    3
    15     2     3    1
    16     3     4    1
    17     3     5    1
    18     3     6    1
    19     6     7    1
    20     7     8    2
    21     8     9    1
    22     9    10    2
    23    10    11    1
    24    11    12    2
    25    12    13    1
    26    13    14    1
    27    14    15    2
    28    27    22   ar
    29    15     7    1
    30    14     9    1
    31    18    19    1
@<TRIPOS>MOLECULE
*****
 29 31 0 0 0
SMALL
GASTEIGER

@<TRIPOS>ATOM
      1 C          -5.9397  -14.2848   26.6973 C.3     1  UNL1        0.0896
      2 N          -6.3318  -15.5203   25.9424 N.3     1  UNL1       -0.2715
      3 C          -7.7509  -15.7057   25.4928 C.3     1  UNL1        0.0511
      4 C          -8.0019  -16.6140   26.6598 C.3     1  UNL1        0.0164
      5 C          -7.4999  -14.7975   24.3257 C.3     1  UNL1        0.0164
      6 C          -9.1698  -15.8912   25.0432 C.3     1  UNL1        0.0604
      7 C          -9.4639  -16.6442   23.7797 C.2     1  UNL1        0.0599
      8 C         -10.6247  -16.4045   22.8603 C.2     1  UNL1        0.0159
      9 C         -10.5270  -17.3812   21.7261 C.2     1  UNL1        0.0150
     10 C         -11.3923  -17.6115   20.5227 C.2     1  UNL1        0.0009
     11 C         -11.0364  -18.6852   19.5376 C.2     1  UNL1       -0.0041
     12 C          -9.8153  -19.5286   19.7559 C.2     1  UNL1       -0.0198
     13 C          -8.9500  -19.2982   20.9593 C.3     1  UNL1        0.0717
     14 C          -9.3059  -18.2245   21.9444 C.2     1  UNL1        0.0630
     15 N          -8.6489  -17.7690   23.2135 N.2     1  UNL1       -0.2536
     16 C          -5.3051  -16.5703   25.6371 C.3     1  UNL1        0.1055
     17 C          -4.5843  -16.5544   24.3217 C.3     1  UNL1        0.1700
     18 O          -4.7509  -15.3913   23.3892 O.3     1  UNL1       -0.3793
     19 H          -4.2207  -15.5388   22.5904 H       1  UNL1        0.2106
     20 C          -3.6969  -17.7015   23.9389 C.3     1  UNL1        0.2358
     21 O          -4.0054  -18.5125   22.7152 O.3     1  UNL1       -0.4721
     22 C          -3.2099  -18.3086   21.4601 C.ar    1  UNL1        0.1482
     23 C          -2.0807  -17.3214   21.4398 C.ar    1  UNL1        0.0376
     24 C          -1.2851  -17.1175   20.1847 C.ar    1  UNL1        0.0032
     25 C          -1.6187  -17.9009   18.9497 C.ar    1  UNL1        0.0009
     26 C          -2.7478  -18.8881   18.9699 C.ar    1  UNL1        0.0133
     27 C          -3.5434  -19.0920   20.2251 C.ar    1  UNL1        0.1023
     28 C          -4.6725  -20.0792   20.2453 C.1     1  UNL1        0.1035
     29 N          -5.8017  -21.0665   20.2656 N.1     1  UNL1       -0.1907
@<TRIPOS>BOND
     1     1     2    1
     2     2    16    1
     3    16    17    1
     4    17    18    1
     5    17    20    1
     6    20    21    1
     7    21    22    1
     8    22    23   ar
     9    23    24   ar
    10    24    25   ar
    11    25    26   ar
    12    26    27   ar
    13    27    28    1
    14    28    29    3
    15     2     3    1
    16     3     4    1
    17     3     5    1
    18     3     6    1
    19     6     7    1
    20     7     8    2
    21     8     9    1
    22     9    10    2
    23    10    11    1
    24    11    12    2
    25    12    13    1
    26    13    14    1
    27    14    15    2
    28    27    22   ar
    29    15     7    1
    30    14     9    1
    31    18    19    1
