@<TRIPOS>MOLECULE
*****
 42 45 0 0 0
SMALL
GASTEIGER

@<TRIPOS>ATOM
      1 C           0.6975    1.9067   26.9171 C.ar    1  UNL1        0.0053
      2 C          -0.5341    2.3135   26.1637 C.ar    1  UNL1        0.0033
      3 C          -0.6151    2.0902   24.6826 C.ar    1  UNL1        0.0382
      4 C           0.5354    1.4602   23.9550 C.ar    1  UNL1        0.1529
      5 C           1.7669    1.0534   24.7085 C.ar    1  UNL1        0.0881
      6 C           1.8480    1.2766   26.1895 C.ar    1  UNL1        0.0181
      7 N           2.9174    0.4233   23.9809 N.am    1  UNL1       -0.2528
      8 C           2.8363    0.2001   22.4998 C.2     1  UNL1        0.2697
      9 O           3.9868   -0.4300   21.7722 O.2     1  UNL1       -0.2704
     10 C           1.6047    0.6069   21.7463 C.3     1  UNL1        0.2199
     11 C           0.6586    0.8207   20.6021 C.3     1  UNL1        0.0579
     12 O           0.4542    1.2370   22.4739 O.3     1  UNL1       -0.4686
     13 C           0.3619    1.0431   29.3444 C.ar    1  UNL1        0.0645
     14 N           0.4430    1.2663   30.8255 N.ar    1  UNL1       -0.2183
     15 C           0.9408    2.5763   31.3604 C.ar    1  UNL1        0.2145
     16 N           1.0218    2.7995   32.8415 N.pl3   1  UNL1       -0.3274
     17 N           1.3575    3.6631   30.4143 N.ar    1  UNL1       -0.1995
     18 C           1.2763    3.4399   28.9331 C.ar    1  UNL1        0.1293
     19 N           1.6930    4.5267   27.9870 N.pl3   1  UNL1       -0.3425
     20 C           0.7786    2.1299   28.3982 C.ar    1  UNL1        0.0449
     21 H           0.7483    2.0862   33.4625 H       1  UNL1        0.1452
     22 H           1.3486    3.6593   33.1926 H       1  UNL1        0.1452
     23 H           2.0198    5.3865   28.3380 H       1  UNL1        0.1437
     24 H           1.6398    4.3802   27.0149 H       1  UNL1        0.1437
     25 C          -1.5966   -0.6004   28.8822 C.3     1  UNL1        0.0067
     26 C          -0.1359   -0.2669   28.8095 C.3     1  UNL1        0.0460
     27 C           2.4266    0.0511   20.6214 C.ar    1  UNL1        0.0264
     28 C           2.4638   -1.4288   20.3797 C.ar    1  UNL1        0.0293
     29 C           3.2857   -1.9846   19.2547 C.ar    1  UNL1        0.1422
     30 F           3.3228   -3.4647   19.0130 F       1  UNL1       -0.2041
     31 C           4.0705   -1.0606   18.3715 C.ar    1  UNL1        0.0592
     32 C           4.0333    0.4193   18.6132 C.ar    1  UNL1        0.1422
     33 F           4.8181    1.3434   17.7299 F       1  UNL1       -0.2041
     34 C           3.2114    0.9752   19.7381 C.ar    1  UNL1        0.0293
     35 C           4.1489    0.0165   24.7343 C.3     1  UNL1        0.1010
     36 C           4.3099   -1.4005   25.1992 C.3     1  UNL1        0.0542
     37 C           5.1187   -2.3688   24.3878 C.3     1  UNL1        0.1523
     38 O           4.4459   -3.2355   23.3650 O.3     1  UNL1       -0.2784
     39 C           5.1583   -3.5843   22.0919 C.3     1  UNL1        0.5251
     40 F           5.8709   -3.9331   20.8188 F       1  UNL1       -0.1440
     41 F           4.0442   -4.5190   21.7245 F       1  UNL1       -0.1440
     42 F           6.2725   -2.6497   22.4594 F       1  UNL1       -0.1440
@<TRIPOS>BOND
     1    25    26    1
     2    26    13    1
     3    13    14   ar
     4    14    15   ar
     5    15    16    1
     6    15    17   ar
     7    17    18   ar
     8    18    19    1
     9    18    20   ar
    10    20     1    1
    11     1     2   ar
    12     2     3   ar
    13     3     4   ar
    14     4     5   ar
    15     5     6   ar
    16     5     7    1
    17     7    35    1
    18    35    36    1
    19    36    37    1
    20    37    38    1
    21    38    39    1
    22    39    40    1
    23    39    41    1
    24    39    42    1
    25     7     8   am
    26     8     9    2
    27     8    10    1
    28    10    11    1
    29    10    27    1
    30    27    28   ar
    31    28    29   ar
    32    29    30    1
    33    29    31   ar
    34    31    32   ar
    35    32    33    1
    36    32    34   ar
    37    10    12    1
    38    20    13   ar
    39     6     1   ar
    40    34    27   ar
    41    12     4    1
    42    16    21    1
    43    16    22    1
    44    19    23    1
    45    19    24    1
@<TRIPOS>MOLECULE
*****
 42 45 0 0 0
SMALL
GASTEIGER

@<TRIPOS>ATOM
      1 C          -4.6717  -18.9206   21.5176 C.ar    1  UNL1        0.0053
      2 C          -4.8590  -20.3778   21.8200 C.ar    1  UNL1        0.0033
      3 C          -6.1992  -20.8858   22.2622 C.ar    1  UNL1        0.0382
      4 C          -7.3522  -19.9366   22.4020 C.ar    1  UNL1        0.1529
      5 C          -7.1650  -18.4794   22.0997 C.ar    1  UNL1        0.0881
      6 C          -5.8247  -17.9714   21.6575 C.ar    1  UNL1        0.0181
      7 N          -8.3180  -17.5302   22.2395 N.am    1  UNL1       -0.2528
      8 C          -9.6583  -18.0382   22.6817 C.2     1  UNL1        0.2697
      9 O         -10.8113  -17.0890   22.8216 O.2     1  UNL1       -0.2704
     10 C          -9.8456  -19.4955   22.9841 C.3     1  UNL1        0.2199
     11 C         -10.5139  -20.7777   23.3832 C.3     1  UNL1        0.0579
     12 O          -8.6926  -20.4447   22.8443 O.3     1  UNL1       -0.4686
     13 C          -2.6314  -17.3516   21.8719 C.ar    1  UNL1        0.0645
     14 N          -1.2912  -16.8435   21.4297 N.ar    1  UNL1       -0.2183
     15 C          -0.6508  -17.3964   20.1910 C.ar    1  UNL1        0.2145
     16 N           0.6894  -16.8884   19.7489 N.pl3   1  UNL1       -0.3274
     17 N          -1.3508  -18.4574   19.3945 N.ar    1  UNL1       -0.1995
     18 C          -2.6911  -18.9655   19.8368 C.ar    1  UNL1        0.1293
     19 N          -3.3911  -20.0265   19.0403 N.pl3   1  UNL1       -0.3425
     20 C          -3.3314  -18.4126   21.0754 C.ar    1  UNL1        0.0449
     21 H           1.1488  -16.1920   20.2716 H       1  UNL1        0.1452
     22 H           1.1097  -17.2512   18.9359 H       1  UNL1        0.1452
     23 H          -2.9708  -20.3893   18.2273 H       1  UNL1        0.1437
     24 H          -4.2708  -20.3599   19.3305 H       1  UNL1        0.1437
     25 C          -3.3841  -17.6498   24.3406 C.3     1  UNL1        0.0067
     26 C          -3.2718  -16.7987   23.1106 C.3     1  UNL1        0.0460
     27 C         -11.2307  -18.9916   23.2625 C.ar    1  UNL1        0.0264
     28 C         -11.7565  -18.9805   24.6673 C.ar    1  UNL1        0.0293
     29 C         -13.1416  -18.4766   24.9457 C.ar    1  UNL1        0.1422
     30 F         -13.6673  -18.4655   26.3506 F       1  UNL1       -0.2041
     31 C         -14.0009  -17.9838   23.8195 C.ar    1  UNL1        0.0592
     32 C         -13.4751  -17.9949   22.4147 C.ar    1  UNL1        0.1422
     33 F         -14.3345  -17.5021   21.2883 F       1  UNL1       -0.2041
     34 C         -12.0900  -18.4988   22.1362 C.ar    1  UNL1        0.0293
     35 C          -8.1308  -16.0730   21.9372 C.3     1  UNL1        0.1010
     36 C          -7.7679  -15.1195   23.0367 C.3     1  UNL1        0.0542
     37 C          -6.5903  -15.4069   23.9205 C.3     1  UNL1        0.1523
     38 O          -6.4446  -14.6928   25.2315 O.3     1  UNL1       -0.2784
     39 C          -6.5413  -15.4588   26.5175 C.3     1  UNL1        0.5251
     40 F          -6.6381  -16.2247   27.8037 F       1  UNL1       -0.1440
     41 F          -5.0772  -15.7752   26.4392 F       1  UNL1       -0.1440
     42 F          -8.0054  -15.1423   26.5959 F       1  UNL1       -0.1440
@<TRIPOS>BOND
     1    25    26    1
     2    26    13    1
     3    13    14   ar
     4    14    15   ar
     5    15    16    1
     6    15    17   ar
     7    17    18   ar
     8    18    19    1
     9    18    20   ar
    10    20     1    1
    11     1     2   ar
    12     2     3   ar
    13     3     4   ar
    14     4     5   ar
    15     5     6   ar
    16     5     7    1
    17     7    35    1
    18    35    36    1
    19    36    37    1
    20    37    38    1
    21    38    39    1
    22    39    40    1
    23    39    41    1
    24    39    42    1
    25     7     8   am
    26     8     9    2
    27     8    10    1
    28    10    11    1
    29    10    27    1
    30    27    28   ar
    31    28    29   ar
    32    29    30    1
    33    29    31   ar
    34    31    32   ar
    35    32    33    1
    36    32    34   ar
    37    10    12    1
    38    20    13   ar
    39     6     1   ar
    40    34    27   ar
    41    12     4    1
    42    16    21    1
    43    16    22    1
    44    19    23    1
    45    19    24    1
@<TRIPOS>MOLECULE
*****
 42 45 0 0 0
SMALL
GASTEIGER

@<TRIPOS>ATOM
      1 C           0.6631    1.9866   26.9619 C.ar    1  UNL1        0.0053
      2 C          -0.5458    2.4041   26.1782 C.ar    1  UNL1        0.0033
      3 C          -0.6025    2.1585   24.6995 C.ar    1  UNL1        0.0382
      4 C           0.5497    1.4954   24.0047 C.ar    1  UNL1        0.1529
      5 C           1.7585    1.0779   24.7884 C.ar    1  UNL1        0.0881
      6 C           1.8152    1.3235   26.2670 C.ar    1  UNL1        0.0181
      7 N           2.9107    0.4149   24.0935 N.am    1  UNL1       -0.2528
      8 C           2.8540    0.1693   22.6149 C.2     1  UNL1        0.2697
      9 O           4.0061   -0.4938   21.9200 O.2     1  UNL1       -0.2704
     10 C           1.6450    0.5867   21.8310 C.3     1  UNL1        0.2199
     11 C           0.7254    0.7996   20.6654 C.3     1  UNL1        0.0579
     12 O           0.4929    1.2498   22.5259 O.3     1  UNL1       -0.4686
     13 C           0.2166    1.1892   29.3940 C.ar    1  UNL1        0.0645
     14 N           0.2734    1.4347   30.8726 N.ar    1  UNL1       -0.2183
     15 C           0.8333    2.7234   31.3980 C.ar    1  UNL1        0.2145
     16 N           0.8901    2.9689   32.8767 N.pl3   1  UNL1       -0.3274
     17 N           1.3365    3.7664   30.4447 N.ar    1  UNL1       -0.1995
     18 C           1.2798    3.5208   28.9659 C.ar    1  UNL1        0.1293
     19 N           1.7830    4.5638   28.0126 N.pl3   1  UNL1       -0.3425
     20 C           0.7198    2.2322   28.4406 C.ar    1  UNL1        0.0449
     21 H           0.5598    2.2843   33.5024 H       1  UNL1        0.1452
     22 H           1.2576    3.8147   33.2215 H       1  UNL1        0.1452
     23 H           2.1505    5.4096   28.3574 H       1  UNL1        0.1437
     24 H           1.7457    4.4027   27.0421 H       1  UNL1        0.1437
     25 C          -1.8080   -0.3923   29.0067 C.3     1  UNL1        0.0067
     26 C          -0.3433   -0.0994   28.8686 C.3     1  UNL1        0.0460
     27 C           2.4778   -0.0024   20.7314 C.ar    1  UNL1        0.0264
     28 C           2.4239   -1.4761   20.4571 C.ar    1  UNL1        0.0293
     29 C           3.2567   -2.0653   19.3573 C.ar    1  UNL1        0.1422
     30 F           3.2028   -3.5391   19.0831 F       1  UNL1       -0.2041
     31 C           4.1433   -1.1808   18.5319 C.ar    1  UNL1        0.0592
     32 C           4.1972    0.2929   18.8062 C.ar    1  UNL1        0.1422
     33 F           5.0839    1.1775   17.9807 F       1  UNL1       -0.2041
     34 C           3.3645    0.8822   19.9059 C.ar    1  UNL1        0.0293
     35 C           4.1195   -0.0026   24.8773 C.3     1  UNL1        0.1010
     36 C           4.1874   -1.3761   25.4764 C.3     1  UNL1        0.0542
     37 C           4.4641   -1.5424   26.9413 C.3     1  UNL1        0.1523
     38 O           3.3553   -1.3758   27.9377 O.3     1  UNL1       -0.2784
     39 C           3.4624   -0.3342   29.0117 C.3     1  UNL1        0.5251
     40 F           3.5695    0.7075   30.0858 F       1  UNL1       -0.1440
     41 F           2.5267   -1.1278   29.8746 F       1  UNL1       -0.1440
     42 F           4.3981    0.4594   28.1489 F       1  UNL1       -0.1440
@<TRIPOS>BOND
     1    25    26    1
     2    26    13    1
     3    13    14   ar
     4    14    15   ar
     5    15    16    1
     6    15    17   ar
     7    17    18   ar
     8    18    19    1
     9    18    20   ar
    10    20     1    1
    11     1     2   ar
    12     2     3   ar
    13     3     4   ar
    14     4     5   ar
    15     5     6   ar
    16     5     7    1
    17     7    35    1
    18    35    36    1
    19    36    37    1
    20    37    38    1
    21    38    39    1
    22    39    40    1
    23    39    41    1
    24    39    42    1
    25     7     8   am
    26     8     9    2
    27     8    10    1
    28    10    11    1
    29    10    27    1
    30    27    28   ar
    31    28    29   ar
    32    29    30    1
    33    29    31   ar
    34    31    32   ar
    35    32    33    1
    36    32    34   ar
    37    10    12    1
    38    20    13   ar
    39     6     1   ar
    40    34    27   ar
    41    12     4    1
    42    16    21    1
    43    16    22    1
    44    19    23    1
    45    19    24    1
@<TRIPOS>MOLECULE
*****
 42 45 0 0 0
SMALL
GASTEIGER

@<TRIPOS>ATOM
      1 C           2.7616    0.3171   28.1107 C.ar    1  UNL1        0.0053
      2 C           3.6256   -0.8500   28.4866 C.ar    1  UNL1        0.0033
      3 C           4.3052   -1.6547   27.4186 C.ar    1  UNL1        0.0382
      4 C           4.1207   -1.2923   25.9748 C.ar    1  UNL1        0.1529
      5 C           3.2567   -0.1253   25.5989 C.ar    1  UNL1        0.0881
      6 C           2.5771    0.6794   26.6669 C.ar    1  UNL1        0.0181
      7 N           3.0722    0.2371   24.1551 N.am    1  UNL1       -0.2528
      8 C           3.7518   -0.5676   23.0871 C.2     1  UNL1        0.2697
      9 O           3.5673   -0.2053   21.6433 O.2     1  UNL1       -0.2704
     10 C           4.6158   -1.7348   23.4630 C.3     1  UNL1        0.2199
     11 C           5.5256   -2.9188   23.3202 C.3     1  UNL1        0.0579
     12 O           4.8003   -2.0971   24.9068 O.3     1  UNL1       -0.4686
     13 C           0.6691    0.8059   29.5711 C.ar    1  UNL1        0.0645
     14 N          -0.0106    1.6106   30.6390 N.ar    1  UNL1       -0.2183
     15 C           0.7227    2.7314   31.3146 C.ar    1  UNL1        0.2145
     16 N           0.0431    3.5361   32.3825 N.pl3   1  UNL1       -0.3274
     17 N           2.1356    3.0473   30.9222 N.ar    1  UNL1       -0.1995
     18 C           2.8152    2.2425   29.8542 C.ar    1  UNL1        0.1293
     19 N           4.2281    2.5585   29.4619 N.pl3   1  UNL1       -0.3425
     20 C           2.0819    1.1219   29.1787 C.ar    1  UNL1        0.0449
     21 H          -0.8842    3.3287   32.6400 H       1  UNL1        0.1452
     22 H           0.5243    4.2716   32.8259 H       1  UNL1        0.1452
     23 H           4.7093    3.2940   29.9053 H       1  UNL1        0.1437
     24 H           4.6741    2.0303   28.7609 H       1  UNL1        0.1437
     25 C          -1.5629   -0.3624   28.9357 C.3     1  UNL1        0.0067
     26 C          -0.0642   -0.3148   28.8955 C.3     1  UNL1        0.0460
     27 C           4.7473   -1.7836   21.9696 C.ar    1  UNL1        0.0264
     28 C           5.7914   -0.9555   21.2811 C.ar    1  UNL1        0.0293
     29 C           5.9229   -1.0044   19.7876 C.ar    1  UNL1        0.1422
     30 F           6.9671   -0.1761   19.0992 F       1  UNL1       -0.2041
     31 C           5.0103   -1.8813   18.9827 C.ar    1  UNL1        0.0592
     32 C           3.9662   -2.7094   19.6712 C.ar    1  UNL1        0.1422
     33 F           3.0535   -3.5864   18.8662 F       1  UNL1       -0.2041
     34 C           3.8346   -2.6606   21.1646 C.ar    1  UNL1        0.0293
     35 C           2.2082    1.4042   23.7792 C.3     1  UNL1        0.1010
     36 C           0.8034    1.1755   23.3054 C.3     1  UNL1        0.0542
     37 C           0.4126    1.5538   21.9074 C.3     1  UNL1        0.1523
     38 O          -0.0312    0.4962   20.9406 O.3     1  UNL1       -0.2784
     39 C           0.7105    0.2995   19.6518 C.3     1  UNL1        0.5251
     40 F           1.4522    0.1027   18.3629 F       1  UNL1       -0.1440
     41 F           0.3982    1.7123   19.2564 F       1  UNL1       -0.1440
     42 F           1.0228   -1.1133   20.0472 F       1  UNL1       -0.1440
@<TRIPOS>BOND
     1    25    26    1
     2    26    13    1
     3    13    14   ar
     4    14    15   ar
     5    15    16    1
     6    15    17   ar
     7    17    18   ar
     8    18    19    1
     9    18    20   ar
    10    20     1    1
    11     1     2   ar
    12     2     3   ar
    13     3     4   ar
    14     4     5   ar
    15     5     6   ar
    16     5     7    1
    17     7    35    1
    18    35    36    1
    19    36    37    1
    20    37    38    1
    21    38    39    1
    22    39    40    1
    23    39    41    1
    24    39    42    1
    25     7     8   am
    26     8     9    2
    27     8    10    1
    28    10    11    1
    29    10    27    1
    30    27    28   ar
    31    28    29   ar
    32    29    30    1
    33    29    31   ar
    34    31    32   ar
    35    32    33    1
    36    32    34   ar
    37    10    12    1
    38    20    13   ar
    39     6     1   ar
    40    34    27   ar
    41    12     4    1
    42    16    21    1
    43    16    22    1
    44    19    23    1
    45    19    24    1
@<TRIPOS>MOLECULE
*****
 42 45 0 0 0
SMALL
GASTEIGER

@<TRIPOS>ATOM
      1 C           0.6791    1.7274   26.6756 C.ar    1  UNL1        0.0053
      2 C          -0.5360    2.1488   25.9038 C.ar    1  UNL1        0.0033
      3 C          -0.5854    1.9535   24.4174 C.ar    1  UNL1        0.0382
      4 C           0.5804    1.3368   23.7029 C.ar    1  UNL1        0.1529
      5 C           1.7956    0.9154   24.4747 C.ar    1  UNL1        0.0881
      6 C           1.8449    1.1107   25.9611 C.ar    1  UNL1        0.0181
      7 N           2.9613    0.2987   23.7601 N.am    1  UNL1       -0.2528
      8 C           2.9120    0.1034   22.2737 C.2     1  UNL1        0.2697
      9 O           4.0778   -0.5134   21.5592 O.2     1  UNL1       -0.2704
     10 C           1.6967    0.5248   21.5018 C.3     1  UNL1        0.2199
     11 C           0.7753    0.7604   20.3419 C.3     1  UNL1        0.0579
     12 O           0.5310    1.1415   22.2164 O.3     1  UNL1       -0.4686
     13 C           1.2543    3.2064   28.7328 C.ar    1  UNL1        0.0645
     14 N           1.3038    3.4018   30.2191 N.ar    1  UNL1       -0.2183
     15 C           0.8274    2.3134   31.1349 C.ar    1  UNL1        0.2145
     16 N           0.8769    2.5087   32.6213 N.pl3   1  UNL1       -0.3274
     17 N           0.3017    1.0297   30.5642 N.ar    1  UNL1       -0.1995
     18 C           0.2522    0.8344   29.0778 C.ar    1  UNL1        0.1293
     19 N          -0.2736   -0.4493   28.5071 N.pl3   1  UNL1       -0.3425
     20 C           0.7286    1.9227   28.1621 C.ar    1  UNL1        0.0449
     21 H           1.2220    3.3513   32.9958 H       1  UNL1        0.1452
     22 H           0.5642    1.7944   33.2223 H       1  UNL1        0.1452
     23 H          -0.5862   -1.1637   29.1081 H       1  UNL1        0.1437
     24 H          -0.3060   -0.5775   27.5315 H       1  UNL1        0.1437
     25 C           0.8049    5.4111   27.4336 C.3     1  UNL1        0.0067
     26 C           1.7307    4.2948   27.8170 C.3     1  UNL1        0.0460
     27 C           2.5425   -0.0101   20.3845 C.ar    1  UNL1        0.0264
     28 C           3.3438    0.9304   19.5340 C.ar    1  UNL1        0.0293
     29 C           4.1896    0.3955   18.4166 C.ar    1  UNL1        0.1422
     30 F           4.9910    1.3361   17.5661 F       1  UNL1       -0.2041
     31 C           4.2341   -1.0798   18.1497 C.ar    1  UNL1        0.0592
     32 C           3.4328   -2.0203   19.0002 C.ar    1  UNL1        0.1422
     33 F           3.4773   -3.4957   18.7332 F       1  UNL1       -0.2041
     34 C           2.5870   -1.4855   20.1176 C.ar    1  UNL1        0.0293
     35 C           4.1765   -0.1227   24.5319 C.3     1  UNL1        0.1010
     36 C           4.3033   -1.5360   25.0182 C.3     1  UNL1        0.0542
     37 C           5.0557   -2.5452   24.2024 C.3     1  UNL1        0.1523
     38 O           4.3529   -3.3075   23.1183 O.3     1  UNL1       -0.2784
     39 C           5.0988   -3.7118   21.8814 C.3     1  UNL1        0.5251
     40 F           5.8447   -4.1163   20.6444 F       1  UNL1       -0.1440
     41 F           6.2047   -2.7634   22.2382 F       1  UNL1       -0.1440
     42 F           3.9929   -4.6603   21.5246 F       1  UNL1       -0.1440
@<TRIPOS>BOND
     1    25    26    1
     2    26    13    1
     3    13    14   ar
     4    14    15   ar
     5    15    16    1
     6    15    17   ar
     7    17    18   ar
     8    18    19    1
     9    18    20   ar
    10    20     1    1
    11     1     2   ar
    12     2     3   ar
    13     3     4   ar
    14     4     5   ar
    15     5     6   ar
    16     5     7    1
    17     7    35    1
    18    35    36    1
    19    36    37    1
    20    37    38    1
    21    38    39    1
    22    39    40    1
    23    39    41    1
    24    39    42    1
    25     7     8   am
    26     8     9    2
    27     8    10    1
    28    10    11    1
    29    10    27    1
    30    27    28   ar
    31    28    29   ar
    32    29    30    1
    33    29    31   ar
    34    31    32   ar
    35    32    33    1
    36    32    34   ar
    37    10    12    1
    38    20    13   ar
    39     6     1   ar
    40    34    27   ar
    41    12     4    1
    42    16    21    1
    43    16    22    1
    44    19    23    1
    45    19    24    1
@<TRIPOS>MOLECULE
*****
 42 45 0 0 0
SMALL
GASTEIGER

@<TRIPOS>ATOM
      1 C         -10.1986  -19.1176   22.4100 C.ar    1  UNL1        0.0053
      2 C         -10.2272  -20.0969   21.2742 C.ar    1  UNL1        0.0033
      3 C          -8.9745  -20.3858   20.5015 C.ar    1  UNL1        0.0382
      4 C          -7.6933  -19.6954   20.8644 C.ar    1  UNL1        0.1529
      5 C          -7.6647  -18.7160   22.0002 C.ar    1  UNL1        0.0881
      6 C          -8.9174  -18.4271   22.7730 C.ar    1  UNL1        0.0181
      7 N          -6.3835  -18.0256   22.3632 N.am    1  UNL1       -0.2528
      8 C          -5.1308  -18.3145   21.5904 C.2     1  UNL1        0.2697
      9 O          -3.8496  -17.6240   21.9534 O.2     1  UNL1       -0.2704
     10 C          -5.1593  -19.2939   20.4545 C.3     1  UNL1        0.2199
     11 C          -4.6858  -20.1349   19.3063 C.3     1  UNL1        0.0579
     12 O          -6.4405  -19.9843   20.0916 O.3     1  UNL1       -0.4686
     13 C         -12.5744  -18.0736   22.5358 C.ar    1  UNL1        0.0645
     14 N         -13.8271  -17.7846   23.3086 N.ar    1  UNL1       -0.2183
     15 C         -13.9568  -18.2507   24.7285 C.ar    1  UNL1        0.2145
     16 N         -15.2095  -17.9618   25.5013 N.pl3   1  UNL1       -0.3274
     17 N         -12.8337  -19.0057   25.3755 N.ar    1  UNL1       -0.1995
     18 C         -11.5810  -19.2947   24.6027 C.ar    1  UNL1        0.1293
     19 N         -10.4579  -20.0497   25.2497 N.pl3   1  UNL1       -0.3425
     20 C         -11.4514  -18.8286   23.1829 C.ar    1  UNL1        0.0449
     21 H         -15.9466  -17.4662   25.0766 H       1  UNL1        0.1452
     22 H         -15.2946  -18.2677   26.4332 H       1  UNL1        0.1452
     23 H         -10.5430  -20.3556   26.1816 H       1  UNL1        0.1437
     24 H          -9.6357  -20.2394   24.7425 H       1  UNL1        0.1437
     25 C         -11.8497  -16.2629   20.8193 C.3     1  UNL1        0.0067
     26 C         -12.4448  -17.6075   21.1159 C.3     1  UNL1        0.0460
     27 C          -3.7137  -18.8955   20.4188 C.ar    1  UNL1        0.0264
     28 C          -3.1295  -18.3036   19.1704 C.ar    1  UNL1        0.0293
     29 C          -1.6837  -17.9053   19.1346 C.ar    1  UNL1        0.1422
     30 F          -1.0996  -17.3134   17.8862 F       1  UNL1       -0.2041
     31 C          -0.8222  -18.0987   20.3471 C.ar    1  UNL1        0.0592
     32 C          -1.4064  -18.6906   21.5955 C.ar    1  UNL1        0.1422
     33 F          -0.5449  -18.8840   22.8081 F       1  UNL1       -0.2041
     34 C          -2.8521  -19.0890   21.6314 C.ar    1  UNL1        0.0293
     35 C          -6.3550  -17.0462   23.4989 C.3     1  UNL1        0.1010
     36 C          -6.9876  -15.6954   23.3406 C.3     1  UNL1        0.0542
     37 C          -7.3458  -14.8882   24.5531 C.3     1  UNL1        0.1523
     38 O          -6.8310  -15.2931   25.9025 O.3     1  UNL1       -0.2784
     39 C          -7.7815  -15.7973   26.9475 C.3     1  UNL1        0.5251
     40 F          -8.7321  -16.3017   27.9926 F       1  UNL1       -0.1440
     41 F          -8.9341  -15.2316   26.1721 F       1  UNL1       -0.1440
     42 F          -6.6289  -16.3631   27.7230 F       1  UNL1       -0.1440
@<TRIPOS>BOND
     1    25    26    1
     2    26    13    1
     3    13    14   ar
     4    14    15   ar
     5    15    16    1
     6    15    17   ar
     7    17    18   ar
     8    18    19    1
     9    18    20   ar
    10    20     1    1
    11     1     2   ar
    12     2     3   ar
    13     3     4   ar
    14     4     5   ar
    15     5     6   ar
    16     5     7    1
    17     7    35    1
    18    35    36    1
    19    36    37    1
    20    37    38    1
    21    38    39    1
    22    39    40    1
    23    39    41    1
    24    39    42    1
    25     7     8   am
    26     8     9    2
    27     8    10    1
    28    10    11    1
    29    10    27    1
    30    27    28   ar
    31    28    29   ar
    32    29    30    1
    33    29    31   ar
    34    31    32   ar
    35    32    33    1
    36    32    34   ar
    37    10    12    1
    38    20    13   ar
    39     6     1   ar
    40    34    27   ar
    41    12     4    1
    42    16    21    1
    43    16    22    1
    44    19    23    1
    45    19    24    1
@<TRIPOS>MOLECULE
*****
 42 45 0 0 0
SMALL
GASTEIGER

@<TRIPOS>ATOM
      1 C           1.1450    1.4047   26.3379 C.ar    1  UNL1        0.0053
      2 C           0.2523    2.1385   25.3817 C.ar    1  UNL1        0.0033
      3 C           0.3911    1.9157   23.9048 C.ar    1  UNL1        0.0382
      4 C           1.4226    0.9592   23.3843 C.ar    1  UNL1        0.1529
      5 C           2.3153    0.2254   24.3406 C.ar    1  UNL1        0.0881
      6 C           2.1766    0.4482   25.8174 C.ar    1  UNL1        0.0181
      7 N           3.3469   -0.7311   23.8200 N.am    1  UNL1       -0.2528
      8 C           3.4857   -0.9539   22.3432 C.2     1  UNL1        0.2697
      9 O           4.5172   -1.9104   21.8227 O.2     1  UNL1       -0.2704
     10 C           2.5929   -0.2201   21.3868 C.3     1  UNL1        0.2199
     11 C           1.9851    0.2365   20.0938 C.3     1  UNL1        0.0579
     12 O           1.5614    0.7364   21.9074 O.3     1  UNL1       -0.4686
     13 C           1.7717    2.7315   28.4820 C.ar    1  UNL1        0.0645
     14 N           1.6330    2.9543   29.9588 N.ar    1  UNL1       -0.2183
     15 C           0.7287    2.0730   30.7686 C.ar    1  UNL1        0.2145
     16 N           0.5900    2.2957   32.2454 N.pl3   1  UNL1       -0.3274
     17 N          -0.0367    0.9689   30.1015 N.ar    1  UNL1       -0.1995
     18 C           0.1020    0.7461   28.6246 C.ar    1  UNL1        0.1293
     19 N          -0.6635   -0.3579   27.9574 N.pl3   1  UNL1       -0.3425
     20 C           1.0062    1.6274   27.8149 C.ar    1  UNL1        0.0449
     21 H           1.0924    3.0204   32.6833 H       1  UNL1        0.1452
     22 H          -0.0035    1.7173   32.7769 H       1  UNL1        0.1452
     23 H          -1.2570   -0.9363   28.4889 H       1  UNL1        0.1437
     24 H          -0.5724   -0.5041   26.9881 H       1  UNL1        0.1437
     25 C           4.1285    3.2670   27.5285 C.3     1  UNL1        0.0067
     26 C           2.6760    3.6128   27.6722 C.3     1  UNL1        0.0460
     27 C           3.4133   -1.0180   20.4173 C.ar    1  UNL1        0.0264
     28 C           2.9774   -2.3984   20.0240 C.ar    1  UNL1        0.0293
     29 C           3.7979   -3.1963   19.0544 C.ar    1  UNL1        0.1422
     30 F           3.3618   -4.5767   18.6612 F       1  UNL1       -0.2041
     31 C           5.0542   -2.6140   18.4780 C.ar    1  UNL1        0.0592
     32 C           5.4902   -1.2337   18.8713 C.ar    1  UNL1        0.1422
     33 F           6.7467   -0.6513   18.2949 F       1  UNL1       -0.2041
     34 C           4.6698   -0.4357   19.8409 C.ar    1  UNL1        0.0293
     35 C           4.2396   -1.4649   24.7763 C.3     1  UNL1        0.1010
     36 C           5.4015   -0.7588   25.4099 C.3     1  UNL1        0.0542
     37 C           5.8605   -1.1525   26.7827 C.3     1  UNL1        0.1523
     38 O           4.8605   -1.5935   27.8100 O.3     1  UNL1       -0.2784
     39 C           4.2424   -0.5876   28.7353 C.3     1  UNL1        0.5251
     40 F           3.6243    0.4184   29.6605 F       1  UNL1       -0.1440
     41 F           2.8910   -1.1890   28.4863 F       1  UNL1       -0.1440
     42 F           5.5938    0.0138   28.9842 F       1  UNL1       -0.1440
@<TRIPOS>BOND
     1    25    26    1
     2    26    13    1
     3    13    14   ar
     4    14    15   ar
     5    15    16    1
     6    15    17   ar
     7    17    18   ar
     8    18    19    1
     9    18    20   ar
    10    20     1    1
    11     1     2   ar
    12     2     3   ar
    13     3     4   ar
    14     4     5   ar
    15     5     6   ar
    16     5     7    1
    17     7    35    1
    18    35    36    1
    19    36    37    1
    20    37    38    1
    21    38    39    1
    22    39    40    1
    23    39    41    1
    24    39    42    1
    25     7     8   am
    26     8     9    2
    27     8    10    1
    28    10    11    1
    29    10    27    1
    30    27    28   ar
    31    28    29   ar
    32    29    30    1
    33    29    31   ar
    34    31    32   ar
    35    32    33    1
    36    32    34   ar
    37    10    12    1
    38    20    13   ar
    39     6     1   ar
    40    34    27   ar
    41    12     4    1
    42    16    21    1
    43    16    22    1
    44    19    23    1
    45    19    24    1
@<TRIPOS>MOLECULE
*****
 42 45 0 0 0
SMALL
GASTEIGER

@<TRIPOS>ATOM
      1 C           7.0465   -2.5546   31.7404 C.ar    1  UNL1        0.0053
      2 C           8.2125   -2.1683   32.6012 C.ar    1  UNL1        0.0033
      3 C           8.0732   -1.0554   33.5972 C.ar    1  UNL1        0.0382
      4 C           6.7679   -0.3288   33.7323 C.ar    1  UNL1        0.1529
      5 C           5.6019   -0.7151   32.8714 C.ar    1  UNL1        0.0881
      6 C           5.7412   -1.8280   31.8754 C.ar    1  UNL1        0.0181
      7 N           4.2966    0.0115   33.0064 N.am    1  UNL1       -0.2528
      8 C           4.1573    1.1245   34.0024 C.2     1  UNL1        0.2697
      9 O           2.8520    1.8511   34.1375 O.2     1  UNL1       -0.2704
     10 C           5.3234    1.5108   34.8633 C.3     1  UNL1        0.2199
     11 C           6.1338    2.2371   35.8957 C.3     1  UNL1        0.0579
     12 O           6.6287    0.7842   34.7283 O.3     1  UNL1       -0.4686
     13 C           7.5955   -3.3646   29.3336 C.ar    1  UNL1        0.0645
     14 N           7.7348   -4.4775   28.3376 N.ar    1  UNL1       -0.2183
     15 C           7.4642   -5.8935   28.7523 C.ar    1  UNL1        0.2145
     16 N           7.6035   -7.0063   27.7563 N.pl3   1  UNL1       -0.3274
     17 N           7.0544   -6.1964   30.1631 N.ar    1  UNL1       -0.1995
     18 C           6.9152   -5.0835   31.1591 C.ar    1  UNL1        0.1293
     19 N           6.5053   -5.3864   32.5699 N.pl3   1  UNL1       -0.3425
     20 C           7.1857   -3.6676   30.7443 C.ar    1  UNL1        0.0449
     21 H           7.8725   -6.8075   26.8304 H       1  UNL1        0.1452
     22 H           7.4259   -7.9356   28.0285 H       1  UNL1        0.1452
     23 H           6.3278   -6.3157   32.8421 H       1  UNL1        0.1437
     24 H           6.4139   -4.6560   33.2236 H       1  UNL1        0.1437
     25 C           6.7841   -1.1375   28.2697 C.3     1  UNL1        0.0067
     26 C           7.8661   -1.9487   28.9188 C.3     1  UNL1        0.0460
     27 C           4.2996    2.4896   35.3569 C.ar    1  UNL1        0.0264
     28 C           3.4240    2.1355   36.5222 C.ar    1  UNL1        0.0293
     29 C           2.4001    3.1144   37.0158 C.ar    1  UNL1        0.1422
     30 F           1.5245    2.7602   38.1812 F       1  UNL1       -0.2041
     31 C           2.2519    4.4473   36.3441 C.ar    1  UNL1        0.0592
     32 C           3.1275    4.8014   35.1788 C.ar    1  UNL1        0.1422
     33 F           2.9792    6.1344   34.5071 F       1  UNL1       -0.2041
     34 C           4.1513    3.8226   34.6852 C.ar    1  UNL1        0.0293
     35 C           3.1306   -0.3748   32.1456 C.3     1  UNL1        0.1010
     36 C           2.8125    0.4193   30.9134 C.3     1  UNL1        0.0542
     37 C           2.0602   -0.2189   29.7833 C.3     1  UNL1        0.1523
     38 O           0.5604   -0.2378   29.7969 O.3     1  UNL1       -0.2784
     39 C          -0.2060    0.1887   28.5801 C.3     1  UNL1        0.5251
     40 F          -0.9725    0.6152   27.3632 F       1  UNL1       -0.1440
     41 F          -1.2191   -0.8862   28.8415 F       1  UNL1       -0.1440
     42 F           0.8070    1.2635   28.3187 F       1  UNL1       -0.1440
@<TRIPOS>BOND
     1    25    26    1
     2    26    13    1
     3    13    14   ar
     4    14    15   ar
     5    15    16    1
     6    15    17   ar
     7    17    18   ar
     8    18    19    1
     9    18    20   ar
    10    20     1    1
    11     1     2   ar
    12     2     3   ar
    13     3     4   ar
    14     4     5   ar
    15     5     6   ar
    16     5     7    1
    17     7    35    1
    18    35    36    1
    19    36    37    1
    20    37    38    1
    21    38    39    1
    22    39    40    1
    23    39    41    1
    24    39    42    1
    25     7     8   am
    26     8     9    2
    27     8    10    1
    28    10    11    1
    29    10    27    1
    30    27    28   ar
    31    28    29   ar
    32    29    30    1
    33    29    31   ar
    34    31    32   ar
    35    32    33    1
    36    32    34   ar
    37    10    12    1
    38    20    13   ar
    39     6     1   ar
    40    34    27   ar
    41    12     4    1
    42    16    21    1
    43    16    22    1
    44    19    23    1
    45    19    24    1
@<TRIPOS>MOLECULE
*****
 42 45 0 0 0
SMALL
GASTEIGER

@<TRIPOS>ATOM
      1 C           1.0778    1.4035   26.2996 C.ar    1  UNL1        0.0053
      2 C           0.1510    2.0874   25.3387 C.ar    1  UNL1        0.0033
      3 C           0.2881    1.8469   23.8645 C.ar    1  UNL1        0.0382
      4 C           1.3521    0.9226   23.3512 C.ar    1  UNL1        0.1529
      5 C           2.2790    0.2388   24.3120 C.ar    1  UNL1        0.0881
      6 C           2.1419    0.4792   25.7862 C.ar    1  UNL1        0.0181
      7 N           3.3430   -0.6855   23.7986 N.am    1  UNL1       -0.2528
      8 C           3.4802   -0.9260   22.3244 C.2     1  UNL1        0.2697
      9 O           4.5442   -1.8503   21.8111 O.2     1  UNL1       -0.2704
     10 C           2.5533   -0.2421   21.3635 C.3     1  UNL1        0.2199
     11 C           1.9195    0.1705   20.0681 C.3     1  UNL1        0.0579
     12 O           1.4893    0.6822   21.8769 O.3     1  UNL1       -0.4686
     13 C           1.6789    2.7784   28.4206 C.ar    1  UNL1        0.0645
     14 N           1.5418    3.0188   29.8948 N.ar    1  UNL1       -0.2183
     15 C           0.6665    2.1249   30.7224 C.ar    1  UNL1        0.2145
     16 N           0.5294    2.3654   32.1966 N.pl3   1  UNL1       -0.3274
     17 N          -0.0717    0.9905   30.0756 N.ar    1  UNL1       -0.1995
     18 C           0.0655    0.7501   28.6013 C.ar    1  UNL1        0.1293
     19 N          -0.6727   -0.3843   27.9546 N.pl3   1  UNL1       -0.3425
     20 C           0.9407    1.6440   27.7739 C.ar    1  UNL1        0.0449
     21 H           1.0139    3.1099   32.6210 H       1  UNL1        0.1452
     22 H          -0.0450    1.7787   32.7397 H       1  UNL1        0.1452
     23 H          -1.2472   -0.9711   28.4978 H       1  UNL1        0.1437
     24 H          -0.5827   -0.5422   26.9870 H       1  UNL1        0.1437
     25 C           1.9958    4.9352   27.0072 C.3     1  UNL1        0.0067
     26 C           2.5542    3.6723   27.5930 C.3     1  UNL1        0.0460
     27 C           3.3972   -1.0231   20.4003 C.ar    1  UNL1        0.0264
     28 C           2.9934   -2.4127   20.0053 C.ar    1  UNL1        0.0293
     29 C           3.8374   -3.1937   19.0420 C.ar    1  UNL1        0.1422
     30 F           3.4335   -4.5834   18.6471 F       1  UNL1       -0.2041
     31 C           5.0850   -2.5852   18.4738 C.ar    1  UNL1        0.0592
     32 C           5.4887   -1.1956   18.8688 C.ar    1  UNL1        0.1422
     33 F           6.7364   -0.5870   18.3004 F       1  UNL1       -0.2041
     34 C           4.6449   -0.4145   19.8320 C.ar    1  UNL1        0.0293
     35 C           4.2699   -1.3694   24.7595 C.3     1  UNL1        0.1010
     36 C           5.6817   -0.8862   24.9123 C.3     1  UNL1        0.0542
     37 C           5.9499    0.5471   25.2640 C.3     1  UNL1        0.1523
     38 O           5.8791    1.6056   24.2035 O.3     1  UNL1       -0.2784
     39 C           4.7538    2.5974   24.2078 C.3     1  UNL1        0.5251
     40 F           3.6285    3.5892   24.2120 F       1  UNL1       -0.1440
     41 F           5.0598    2.9385   25.6360 F       1  UNL1       -0.1440
     42 F           4.4478    2.2563   22.7795 F       1  UNL1       -0.1440
@<TRIPOS>BOND
     1    25    26    1
     2    26    13    1
     3    13    14   ar
     4    14    15   ar
     5    15    16    1
     6    15    17   ar
     7    17    18   ar
     8    18    19    1
     9    18    20   ar
    10    20     1    1
    11     1     2   ar
    12     2     3   ar
    13     3     4   ar
    14     4     5   ar
    15     5     6   ar
    16     5     7    1
    17     7    35    1
    18    35    36    1
    19    36    37    1
    20    37    38    1
    21    38    39    1
    22    39    40    1
    23    39    41    1
    24    39    42    1
    25     7     8   am
    26     8     9    2
    27     8    10    1
    28    10    11    1
    29    10    27    1
    30    27    28   ar
    31    28    29   ar
    32    29    30    1
    33    29    31   ar
    34    31    32   ar
    35    32    33    1
    36    32    34   ar
    37    10    12    1
    38    20    13   ar
    39     6     1   ar
    40    34    27   ar
    41    12     4    1
    42    16    21    1
    43    16    22    1
    44    19    23    1
    45    19    24    1
