@<TRIPOS>MOLECULE
*****
 31 34 0 0 0
SMALL
GASTEIGER

@<TRIPOS>ATOM
      1 C          -5.4179  -16.5826   23.8293 C.ar    1  UNL1        0.0284
      2 C          -6.3125  -17.3114   22.8710 C.ar    1  UNL1        0.0027
      3 C          -7.7859  -17.0304   22.8586 C.ar    1  UNL1        0.0339
      4 C          -8.3647  -16.0204   23.8046 C.ar    1  UNL1        0.1311
      5 N          -7.4701  -15.2915   24.7630 N.ar    1  UNL1       -0.2035
      6 C          -5.9967  -15.5726   24.7754 C.ar    1  UNL1        0.2196
      7 F          -5.1022  -14.8437   25.7338 F       1  UNL1       -0.1835
      8 N          -9.8381  -15.7394   23.7922 N.pl3   1  UNL1       -0.3144
      9 H         -10.1644  -14.8174   23.9056 H       1  UNL1        0.1485
     10 C         -10.8144  -16.8630   23.6069 C.3     1  UNL1        0.1169
     11 C         -10.9413  -17.5337   22.2713 C.ar    1  UNL1        0.0205
     12 C         -11.3141  -16.7302   21.0608 C.ar    1  UNL1        0.0962
     13 N         -11.4410  -17.4009   19.7252 N.ar    1  UNL1       -0.2426
     14 C         -11.1951  -18.8753   19.5999 C.ar    1  UNL1        0.0988
     15 C         -10.8222  -19.6789   20.8105 C.ar    1  UNL1        0.0243
     16 C         -10.6954  -19.0081   22.1460 C.ar    1  UNL1        0.0721
     17 C         -10.3225  -19.8118   23.3566 C.3     1  UNL1        0.4184
     18 F          -9.9497  -20.6154   24.5670 F       1  UNL1       -0.1659
     19 F         -11.6933  -19.5923   23.9245 F       1  UNL1       -0.1659
     20 F          -8.9517  -20.0312   22.7886 F       1  UNL1       -0.1659
     21 C          -3.9446  -16.8636   23.8417 C.3     1  UNL1        0.0603
     22 C          -5.5651  -21.3517   20.3743 C.3     1  UNL1        0.0307
     23 C          -4.5528  -20.2448   20.3901 C.2     1  UNL1        0.0074
     24 C          -3.5859  -20.0965   19.2530 C.2     1  UNL1        0.2278
     25 N          -2.5737  -18.9896   19.2688 N.2     1  UNL1       -0.0314
     26 C          -2.5284  -18.0311   20.4216 C.2     1  UNL1        0.3716
     27 N          -1.6490  -16.8511   20.7120 N.2     1  UNL1       -0.0311
     28 C          -2.0724  -16.2702   22.0285 C.2     1  UNL1        0.2319
     29 C          -3.2136  -17.0911   22.5518 C.2     1  UNL1        0.0328
     30 C          -3.4954  -18.1794   21.5587 C.2     1  UNL1        0.0704
     31 C          -4.5076  -19.2863   21.5429 C.3     1  UNL1        0.0598
@<TRIPOS>BOND
     1    22    23    1
     2    23    24    2
     3    24    25    1
     4    25    26    2
     5    26    27    1
     6    27    28    2
     7    28    29    1
     8    29    21    1
     9    21     1    1
    10     1     2   ar
    11     2     3   ar
    12     3     4   ar
    13     4     8    1
    14     8    10    1
    15    10    11    1
    16    11    12   ar
    17    12    13   ar
    18    13    14   ar
    19    14    15   ar
    20    15    16   ar
    21    16    17    1
    22    17    18    1
    23    17    19    1
    24    17    20    1
    25     4     5   ar
    26     5     6   ar
    27     6     7    1
    28    29    30    2
    29    30    31    1
    30    31    23    1
    31    30    26    1
    32     6     1   ar
    33    16    11   ar
    34     8     9    1
@<TRIPOS>MOLECULE
*****
 31 34 0 0 0
SMALL
GASTEIGER

@<TRIPOS>ATOM
      1 C          -5.2450  -16.5158   23.9745 C.ar    1  UNL1        0.0284
      2 C          -6.1655  -16.9002   22.8542 C.ar    1  UNL1        0.0027
      3 C          -7.6170  -16.5269   22.9144 C.ar    1  UNL1        0.0339
      4 C          -8.1482  -15.7691   24.0949 C.ar    1  UNL1        0.1311
      5 N          -7.2277  -15.3847   25.2153 N.ar    1  UNL1       -0.2035
      6 C          -5.7762  -15.7580   25.1551 C.ar    1  UNL1        0.2196
      7 F          -4.8558  -15.3736   26.2754 F       1  UNL1       -0.1835
      8 N          -9.5997  -15.3958   24.1551 N.pl3   1  UNL1       -0.3144
      9 H          -9.8733  -14.5495   24.5774 H       1  UNL1        0.1485
     10 C         -10.6345  -16.3118   23.5720 C.3     1  UNL1        0.1169
     11 C         -10.4865  -17.7976   23.7142 C.ar    1  UNL1        0.0205
     12 C         -10.0836  -18.3885   25.0327 C.ar    1  UNL1        0.0962
     13 N          -9.9356  -19.8744   25.1749 N.ar    1  UNL1       -0.2426
     14 C         -10.1905  -20.7695   23.9985 C.ar    1  UNL1        0.0988
     15 C         -10.5934  -20.1786   22.6799 C.ar    1  UNL1        0.0243
     16 C         -10.7414  -18.6928   22.5378 C.ar    1  UNL1        0.0721
     17 C         -11.1443  -18.1019   21.2191 C.3     1  UNL1        0.4184
     18 F         -11.5472  -17.5111   19.9006 F       1  UNL1       -0.1659
     19 F         -12.5891  -18.2711   21.5848 F       1  UNL1       -0.1659
     20 F          -9.6994  -17.9328   20.8535 F       1  UNL1       -0.1659
     21 C          -3.7935  -16.8892   23.9143 C.3     1  UNL1        0.0603
     22 C          -5.6871  -21.3178   20.5094 C.3     1  UNL1        0.0307
     23 C          -4.6510  -20.2336   20.4798 C.2     1  UNL1        0.0074
     24 C          -3.7397  -20.0992   19.2959 C.2     1  UNL1        0.2278
     25 N          -2.7035  -19.0150   19.2663 N.2     1  UNL1       -0.0314
     26 C          -2.5786  -18.0652   20.4205 C.2     1  UNL1        0.3716
     27 N          -1.6595  -16.9068   20.6722 N.2     1  UNL1       -0.0311
     28 C          -2.0027  -16.3252   22.0116 C.2     1  UNL1        0.2319
     29 C          -3.1340  -17.1242   22.5877 C.2     1  UNL1        0.0328
     30 C          -3.4899  -18.1996   21.6043 C.2     1  UNL1        0.0704
     31 C          -4.5260  -19.2838   21.6340 C.3     1  UNL1        0.0598
@<TRIPOS>BOND
     1    22    23    1
     2    23    24    2
     3    24    25    1
     4    25    26    2
     5    26    27    1
     6    27    28    2
     7    28    29    1
     8    29    21    1
     9    21     1    1
    10     1     2   ar
    11     2     3   ar
    12     3     4   ar
    13     4     8    1
    14     8    10    1
    15    10    11    1
    16    11    12   ar
    17    12    13   ar
    18    13    14   ar
    19    14    15   ar
    20    15    16   ar
    21    16    17    1
    22    17    18    1
    23    17    19    1
    24    17    20    1
    25     4     5   ar
    26     5     6   ar
    27     6     7    1
    28    29    30    2
    29    30    31    1
    30    31    23    1
    31    30    26    1
    32     6     1   ar
    33    16    11   ar
    34     8     9    1
@<TRIPOS>MOLECULE
*****
 31 34 0 0 0
SMALL
GASTEIGER

@<TRIPOS>ATOM
      1 C          -8.7620  -19.7358   19.3838 C.ar    1  UNL1        0.0284
      2 C          -7.9096  -18.8686   20.2620 C.ar    1  UNL1        0.0027
      3 C          -6.5024  -19.2782   20.5817 C.ar    1  UNL1        0.0339
      4 C          -5.9477  -20.5551   20.0232 C.ar    1  UNL1        0.1311
      5 N          -6.8003  -21.4223   19.1450 N.ar    1  UNL1       -0.2035
      6 C          -8.2074  -21.0127   18.8253 C.ar    1  UNL1        0.2196
      7 F          -9.0598  -21.8800   17.9471 F       1  UNL1       -0.1835
      8 N          -4.5406  -20.9647   20.3429 N.pl3   1  UNL1       -0.3144
      9 H          -4.3676  -21.8254   20.7885 H       1  UNL1        0.1485
     10 C          -3.3970  -20.0629   19.9838 C.3     1  UNL1        0.1169
     11 C          -3.0701  -18.8842   20.8520 C.ar    1  UNL1        0.0205
     12 C          -3.4806  -18.8785   22.2947 C.ar    1  UNL1        0.0962
     13 N          -3.1538  -17.6998   23.1629 N.ar    1  UNL1       -0.2426
     14 C          -2.4163  -16.5267   22.5884 C.ar    1  UNL1        0.0988
     15 C          -2.0058  -16.5324   21.1456 C.ar    1  UNL1        0.0243
     16 C          -2.3327  -17.7111   20.2775 C.ar    1  UNL1        0.0721
     17 C          -1.9221  -17.7167   18.8347 C.3     1  UNL1        0.4184
     18 F          -1.5116  -17.7223   17.3920 F       1  UNL1       -0.1659
     19 F          -3.2495  -17.1306   18.4547 F       1  UNL1       -0.1659
     20 F          -0.5947  -18.3028   19.2148 F       1  UNL1       -0.1659
     21 C         -10.1691  -19.3262   19.0641 C.3     1  UNL1        0.0603
     22 C         -10.0785  -20.7969   24.7755 C.3     1  UNL1        0.0307
     23 C         -10.6934  -19.7569   23.8866 C.2     1  UNL1        0.0074
     24 C         -11.5799  -18.6984   24.4726 C.2     1  UNL1        0.2278
     25 N         -12.1948  -17.6584   23.5836 N.2     1  UNL1       -0.0314
     26 C         -11.9232  -17.6769   22.1086 C.2     1  UNL1        0.3716
     27 N         -12.3855  -16.7889   20.9916 N.2     1  UNL1       -0.0311
     28 C         -11.7848  -17.2987   19.7152 C.2     1  UNL1        0.2319
     29 C         -10.9511  -18.5017   20.0433 C.2     1  UNL1        0.0328
     30 C         -11.0366  -18.7354   21.5225 C.2     1  UNL1        0.0704
     31 C         -10.4217  -19.7754   22.4115 C.3     1  UNL1        0.0598
@<TRIPOS>BOND
     1    22    23    1
     2    23    24    2
     3    24    25    1
     4    25    26    2
     5    26    27    1
     6    27    28    2
     7    28    29    1
     8    29    21    1
     9    21     1    1
    10     1     2   ar
    11     2     3   ar
    12     3     4   ar
    13     4     8    1
    14     8    10    1
    15    10    11    1
    16    11    12   ar
    17    12    13   ar
    18    13    14   ar
    19    14    15   ar
    20    15    16   ar
    21    16    17    1
    22    17    18    1
    23    17    19    1
    24    17    20    1
    25     4     5   ar
    26     5     6   ar
    27     6     7    1
    28    29    30    2
    29    30    31    1
    30    31    23    1
    31    30    26    1
    32     6     1   ar
    33    16    11   ar
    34     8     9    1
@<TRIPOS>MOLECULE
*****
 31 34 0 0 0
SMALL
GASTEIGER

@<TRIPOS>ATOM
      1 C          -7.0269  -16.3782   24.0370 C.ar    1  UNL1        0.0284
      2 C          -6.7801  -17.4413   23.0081 C.ar    1  UNL1        0.0027
      3 C          -5.3877  -17.9460   22.7701 C.ar    1  UNL1        0.0339
      4 C          -4.2421  -17.3875   23.5611 C.ar    1  UNL1        0.1311
      5 N          -4.4890  -16.3243   24.5902 N.ar    1  UNL1       -0.2035
      6 C          -5.8814  -15.8197   24.8281 C.ar    1  UNL1        0.2196
      7 F          -6.1281  -14.7566   25.8571 F       1  UNL1       -0.1835
      8 N          -2.8498  -17.8921   23.3231 N.pl3   1  UNL1       -0.3144
      9 H          -2.0990  -17.5315   23.8481 H       1  UNL1        0.1485
     10 C          -2.6013  -18.9463   22.2854 C.3     1  UNL1        0.1169
     11 C          -2.2142  -18.5499   20.8914 C.ar    1  UNL1        0.0205
     12 C          -1.0029  -17.6950   20.6638 C.ar    1  UNL1        0.0962
     13 N          -0.6158  -17.2986   19.2699 N.ar    1  UNL1       -0.2426
     14 C          -1.4400  -17.7572   18.1035 C.ar    1  UNL1        0.0988
     15 C          -2.6514  -18.6121   18.3312 C.ar    1  UNL1        0.0243
     16 C          -3.0384  -19.0085   19.7251 C.ar    1  UNL1        0.0721
     17 C          -4.2497  -19.8635   19.9527 C.3     1  UNL1        0.4184
     18 F          -5.4610  -20.7184   20.1802 F       1  UNL1       -0.1659
     19 F          -5.1343  -18.6859   19.6683 F       1  UNL1       -0.1659
     20 F          -3.3651  -21.0410   20.2369 F       1  UNL1       -0.1659
     21 C          -8.4193  -15.8736   24.2750 C.3     1  UNL1        0.0603
     22 C         -11.7703  -15.7077   19.4237 C.3     1  UNL1        0.0307
     23 C         -11.6948  -16.4600   20.7193 C.2     1  UNL1        0.0074
     24 C         -12.7039  -17.5262   21.0273 C.2     1  UNL1        0.2278
     25 N         -12.6285  -18.2784   22.3229 N.2     1  UNL1       -0.0314
     26 C         -11.5439  -17.9645   23.3104 C.2     1  UNL1        0.3716
     27 N         -11.2188  -18.5346   24.6591 N.2     1  UNL1       -0.0311
     28 C         -10.0087  -17.8207   25.1847 C.2     1  UNL1        0.2319
     29 C          -9.5860  -16.8094   24.1607 C.2     1  UNL1        0.0328
     30 C         -10.5348  -16.8983   23.0023 C.2     1  UNL1        0.0704
     31 C         -10.6103  -16.1460   21.7067 C.3     1  UNL1        0.0598
@<TRIPOS>BOND
     1    22    23    1
     2    23    24    2
     3    24    25    1
     4    25    26    2
     5    26    27    1
     6    27    28    2
     7    28    29    1
     8    29    21    1
     9    21     1    1
    10     1     2   ar
    11     2     3   ar
    12     3     4   ar
    13     4     8    1
    14     8    10    1
    15    10    11    1
    16    11    12   ar
    17    12    13   ar
    18    13    14   ar
    19    14    15   ar
    20    15    16   ar
    21    16    17    1
    22    17    18    1
    23    17    19    1
    24    17    20    1
    25     4     5   ar
    26     5     6   ar
    27     6     7    1
    28    29    30    2
    29    30    31    1
    30    31    23    1
    31    30    26    1
    32     6     1   ar
    33    16    11   ar
    34     8     9    1
@<TRIPOS>MOLECULE
*****
 31 34 0 0 0
SMALL
GASTEIGER

@<TRIPOS>ATOM
      1 C          -8.8964  -17.3248   23.8835 C.ar    1  UNL1        0.0284
      2 C          -8.0654  -18.2084   23.0011 C.ar    1  UNL1        0.0027
      3 C          -6.6068  -17.9168   22.8077 C.ar    1  UNL1        0.0339
      4 C          -5.9791  -16.7414   23.4967 C.ar    1  UNL1        0.1311
      5 N          -6.8102  -15.8578   24.3791 N.ar    1  UNL1       -0.2035
      6 C          -8.2688  -16.1494   24.5725 C.ar    1  UNL1        0.2196
      7 F          -9.0998  -15.2658   25.4549 F       1  UNL1       -0.1835
      8 N          -4.5205  -16.4498   23.3033 N.pl3   1  UNL1       -0.3144
      9 H          -4.1929  -15.5228   23.3544 H       1  UNL1        0.1485
     10 C          -3.5612  -17.5705   23.0321 C.3     1  UNL1        0.1169
     11 C          -2.7624  -17.5832   21.7626 C.ar    1  UNL1        0.0205
     12 C          -1.6743  -16.5727   21.5508 C.ar    1  UNL1        0.0962
     13 N          -0.8755  -16.5854   20.2813 N.ar    1  UNL1       -0.2426
     14 C          -1.1648  -17.6088   19.2234 C.ar    1  UNL1        0.0988
     15 C          -2.2529  -18.6194   19.4352 C.ar    1  UNL1        0.0243
     16 C          -3.0516  -18.6066   20.7047 C.ar    1  UNL1        0.0721
     17 C          -4.1397  -19.6173   20.9164 C.3     1  UNL1        0.4184
     18 F          -5.2277  -20.6279   21.1281 F       1  UNL1       -0.1659
     19 F          -5.0403  -18.8388   20.0039 F       1  UNL1       -0.1659
     20 F          -3.2390  -20.3958   21.8289 F       1  UNL1       -0.1659
     21 C         -10.3550  -17.6165   24.0769 C.3     1  UNL1        0.0603
     22 C          -9.0990  -13.9247   19.6514 C.3     1  UNL1        0.0307
     23 C         -10.1682  -14.9035   20.0369 C.2     1  UNL1        0.0074
     24 C         -11.3423  -15.1274   19.1306 C.2     1  UNL1        0.2278
     25 N         -12.4115  -16.1061   19.5161 N.2     1  UNL1       -0.0314
     26 C         -12.3068  -16.8611   20.8080 C.2     1  UNL1        0.3716
     27 N         -13.1991  -17.8822   21.4490 N.2     1  UNL1       -0.0311
     28 C         -12.5766  -18.2895   22.7516 C.2     1  UNL1        0.2319
     29 C         -11.2995  -17.5201   22.9156 C.2     1  UNL1        0.0328
     30 C         -11.1327  -16.6372   21.7144 C.2     1  UNL1        0.0704
     31 C         -10.0635  -15.6584   21.3288 C.3     1  UNL1        0.0598
@<TRIPOS>BOND
     1    22    23    1
     2    23    24    2
     3    24    25    1
     4    25    26    2
     5    26    27    1
     6    27    28    2
     7    28    29    1
     8    29    21    1
     9    21     1    1
    10     1     2   ar
    11     2     3   ar
    12     3     4   ar
    13     4     8    1
    14     8    10    1
    15    10    11    1
    16    11    12   ar
    17    12    13   ar
    18    13    14   ar
    19    14    15   ar
    20    15    16   ar
    21    16    17    1
    22    17    18    1
    23    17    19    1
    24    17    20    1
    25     4     5   ar
    26     5     6   ar
    27     6     7    1
    28    29    30    2
    29    30    31    1
    30    31    23    1
    31    30    26    1
    32     6     1   ar
    33    16    11   ar
    34     8     9    1
@<TRIPOS>MOLECULE
*****
 31 34 0 0 0
SMALL
GASTEIGER

@<TRIPOS>ATOM
      1 C          -7.3265  -16.3517   23.5042 C.ar    1  UNL1        0.0284
      2 C          -7.0945  -17.5938   22.6959 C.ar    1  UNL1        0.0027
      3 C          -5.7362  -18.2299   22.6713 C.ar    1  UNL1        0.0339
      4 C          -4.6099  -17.6238   23.4550 C.ar    1  UNL1        0.1311
      5 N          -4.8420  -16.3817   24.2633 N.ar    1  UNL1       -0.2035
      6 C          -6.2002  -15.7456   24.2879 C.ar    1  UNL1        0.2196
      7 F          -6.4321  -14.5035   25.0962 F       1  UNL1       -0.1835
      8 N          -3.2517  -18.2599   23.4303 N.pl3   1  UNL1       -0.3144
      9 H          -2.5891  -18.0327   24.1222 H       1  UNL1        0.1485
     10 C          -2.9030  -19.2421   22.3516 C.3     1  UNL1        0.1169
     11 C          -2.4364  -18.7517   21.0131 C.ar    1  UNL1        0.0205
     12 C          -1.2459  -17.8440   20.9201 C.ar    1  UNL1        0.0962
     13 N          -0.7793  -17.3535   19.5815 N.ar    1  UNL1       -0.2426
     14 C          -1.5032  -17.7709   18.3358 C.ar    1  UNL1        0.0988
     15 C          -2.6938  -18.6786   18.4288 C.ar    1  UNL1        0.0243
     16 C          -3.1603  -19.1690   19.7674 C.ar    1  UNL1        0.0721
     17 C          -4.3509  -20.0768   19.8602 C.3     1  UNL1        0.4184
     18 F          -5.5414  -20.9845   19.9531 F       1  UNL1       -0.1659
     19 F          -3.4404  -21.2485   20.0790 F       1  UNL1       -0.1659
     20 F          -5.2614  -18.9050   19.6415 F       1  UNL1       -0.1659
     21 C          -8.6847  -15.7157   23.5288 C.3     1  UNL1        0.0603
     22 C         -13.8215  -18.4700   24.4335 C.3     1  UNL1        0.0307
     23 C         -13.0660  -17.8302   23.3066 C.2     1  UNL1        0.0074
     24 C         -13.6587  -17.7981   21.9291 C.2     1  UNL1        0.2278
     25 N         -12.9032  -17.1582   20.8022 N.2     1  UNL1       -0.0314
     26 C         -11.5549  -16.5506   21.0529 C.2     1  UNL1        0.3716
     27 N         -10.5829  -15.8556   20.1461 N.2     1  UNL1       -0.0311
     28 C          -9.3894  -15.4583   20.9632 C.2     1  UNL1        0.2319
     29 C          -9.6238  -15.9077   22.3750 C.2     1  UNL1        0.0328
     30 C         -10.9622  -16.5827   22.4304 C.2     1  UNL1        0.0704
     31 C         -11.7177  -17.2226   23.5572 C.3     1  UNL1        0.0598
@<TRIPOS>BOND
     1    22    23    1
     2    23    24    2
     3    24    25    1
     4    25    26    2
     5    26    27    1
     6    27    28    2
     7    28    29    1
     8    29    21    1
     9    21     1    1
    10     1     2   ar
    11     2     3   ar
    12     3     4   ar
    13     4     8    1
    14     8    10    1
    15    10    11    1
    16    11    12   ar
    17    12    13   ar
    18    13    14   ar
    19    14    15   ar
    20    15    16   ar
    21    16    17    1
    22    17    18    1
    23    17    19    1
    24    17    20    1
    25     4     5   ar
    26     5     6   ar
    27     6     7    1
    28    29    30    2
    29    30    31    1
    30    31    23    1
    31    30    26    1
    32     6     1   ar
    33    16    11   ar
    34     8     9    1
@<TRIPOS>MOLECULE
*****
 31 34 0 0 0
SMALL
GASTEIGER

@<TRIPOS>ATOM
      1 C          -8.0959  -19.2826   21.2627 C.ar    1  UNL1        0.0284
      2 C          -7.4458  -18.8305   19.9888 C.ar    1  UNL1        0.0027
      3 C          -6.1336  -19.4213   19.5657 C.ar    1  UNL1        0.0339
      4 C          -5.4714  -20.4641   20.4166 C.ar    1  UNL1        0.1311
      5 N          -6.1215  -20.9162   21.6906 N.ar    1  UNL1       -0.2035
      6 C          -7.4338  -20.3255   22.1137 C.ar    1  UNL1        0.2196
      7 F          -8.0838  -20.7776   23.3876 F       1  UNL1       -0.1835
      8 N          -4.1591  -21.0549   19.9935 N.pl3   1  UNL1       -0.3144
      9 H          -4.0849  -22.0229   19.8300 H       1  UNL1        0.1485
     10 C          -2.9600  -20.1708   19.8194 C.3     1  UNL1        0.1169
     11 C          -2.7667  -18.9839   20.7161 C.ar    1  UNL1        0.0205
     12 C          -3.1081  -19.0815   22.1735 C.ar    1  UNL1        0.0962
     13 N          -2.9149  -17.8947   23.0702 N.ar    1  UNL1       -0.2426
     14 C          -2.3802  -16.6102   22.5096 C.ar    1  UNL1        0.0988
     15 C          -2.0388  -16.5127   21.0521 C.ar    1  UNL1        0.0243
     16 C          -2.2320  -17.6995   20.1555 C.ar    1  UNL1        0.0721
     17 C          -1.8906  -17.6019   18.6981 C.3     1  UNL1        0.4184
     18 F          -1.5491  -17.5042   17.2407 F       1  UNL1       -0.1659
     19 F          -0.4841  -18.0275   18.9991 F       1  UNL1       -0.1659
     20 F          -3.2970  -17.1762   18.3972 F       1  UNL1       -0.1659
     21 C          -9.4082  -18.6919   21.6858 C.3     1  UNL1        0.0603
     22 C          -5.3535  -15.1073   24.0316 C.3     1  UNL1        0.0307
     23 C          -6.6466  -15.7593   24.4227 C.2     1  UNL1        0.0074
     24 C          -7.2176  -15.5318   25.7909 C.2     1  UNL1        0.2278
     25 N          -8.5106  -16.1838   26.1819 N.2     1  UNL1       -0.0314
     26 C          -9.2327  -17.0633   25.2047 C.2     1  UNL1        0.3716
     27 N         -10.5156  -17.8340   25.3056 N.2     1  UNL1       -0.0311
     28 C         -10.7375  -18.5379   23.9997 C.2     1  UNL1        0.2319
     29 C          -9.5917  -18.2022   23.0917 C.2     1  UNL1        0.0328
     30 C          -8.6617  -17.2909   23.8365 C.2     1  UNL1        0.0704
     31 C          -7.3686  -16.6389   23.4455 C.3     1  UNL1        0.0598
@<TRIPOS>BOND
     1    22    23    1
     2    23    24    2
     3    24    25    1
     4    25    26    2
     5    26    27    1
     6    27    28    2
     7    28    29    1
     8    29    21    1
     9    21     1    1
    10     1     2   ar
    11     2     3   ar
    12     3     4   ar
    13     4     8    1
    14     8    10    1
    15    10    11    1
    16    11    12   ar
    17    12    13   ar
    18    13    14   ar
    19    14    15   ar
    20    15    16   ar
    21    16    17    1
    22    17    18    1
    23    17    19    1
    24    17    20    1
    25     4     5   ar
    26     5     6   ar
    27     6     7    1
    28    29    30    2
    29    30    31    1
    30    31    23    1
    31    30    26    1
    32     6     1   ar
    33    16    11   ar
    34     8     9    1
@<TRIPOS>MOLECULE
*****
 31 34 0 0 0
SMALL
GASTEIGER

@<TRIPOS>ATOM
      1 C          -8.0937  -18.6497   22.8131 C.ar    1  UNL1        0.0284
      2 C          -7.7610  -20.1119   22.7770 C.ar    1  UNL1        0.0027
      3 C          -6.7801  -20.6332   21.7690 C.ar    1  UNL1        0.0339
      4 C          -6.1319  -19.6924   20.7970 C.ar    1  UNL1        0.1311
      5 N          -6.4647  -18.2301   20.8332 N.ar    1  UNL1       -0.2035
      6 C          -7.4455  -17.7088   21.8412 C.ar    1  UNL1        0.2196
      7 F          -7.7782  -16.2466   21.8772 F       1  UNL1       -0.1835
      8 N          -5.1510  -20.2137   19.7890 N.pl3   1  UNL1       -0.3144
      9 H          -5.4727  -20.6914   18.9906 H       1  UNL1        0.1485
     10 C          -3.6801  -20.0072   19.9976 C.3     1  UNL1        0.1169
     11 C          -3.1964  -18.8899   20.8738 C.ar    1  UNL1        0.0205
     12 C          -3.5312  -18.8847   22.3359 C.ar    1  UNL1        0.0962
     13 N          -3.0475  -17.7674   23.2121 N.ar    1  UNL1       -0.2426
     14 C          -2.2290  -16.6553   22.6262 C.ar    1  UNL1        0.0988
     15 C          -1.8942  -16.6606   21.1640 C.ar    1  UNL1        0.0243
     16 C          -2.3778  -17.7778   20.2879 C.ar    1  UNL1        0.0721
     17 C          -2.0430  -17.7831   18.8256 C.3     1  UNL1        0.4184
     18 F          -1.7082  -17.7883   17.3635 F       1  UNL1       -0.1659
     19 F          -3.3732  -17.1616   18.5188 F       1  UNL1       -0.1659
     20 F          -0.7128  -18.4046   19.1326 F       1  UNL1       -0.1659
     21 C          -9.0746  -18.1284   23.8211 C.3     1  UNL1        0.0603
     22 C         -10.7937  -15.2318   18.9790 C.3     1  UNL1        0.0307
     23 C         -11.4045  -16.0122   20.1049 C.2     1  UNL1        0.0074
     24 C         -12.8907  -16.2064   20.1632 C.2     1  UNL1        0.2278
     25 N         -13.5015  -16.9869   21.2892 N.2     1  UNL1       -0.0314
     26 C         -12.6261  -17.5731   22.3569 C.2     1  UNL1        0.3716
     27 N         -12.9400  -18.3835   23.5795 N.2     1  UNL1       -0.0311
     28 C         -11.6478  -18.6902   24.2768 C.2     1  UNL1        0.2319
     29 C         -10.5353  -18.0693   23.4852 C.2     1  UNL1        0.0328
     30 C         -11.1399  -17.3789   22.2986 C.2     1  UNL1        0.0704
     31 C         -10.5291  -16.5984   21.1726 C.3     1  UNL1        0.0598
@<TRIPOS>BOND
     1    22    23    1
     2    23    24    2
     3    24    25    1
     4    25    26    2
     5    26    27    1
     6    27    28    2
     7    28    29    1
     8    29    21    1
     9    21     1    1
    10     1     2   ar
    11     2     3   ar
    12     3     4   ar
    13     4     8    1
    14     8    10    1
    15    10    11    1
    16    11    12   ar
    17    12    13   ar
    18    13    14   ar
    19    14    15   ar
    20    15    16   ar
    21    16    17    1
    22    17    18    1
    23    17    19    1
    24    17    20    1
    25     4     5   ar
    26     5     6   ar
    27     6     7    1
    28    29    30    2
    29    30    31    1
    30    31    23    1
    31    30    26    1
    32     6     1   ar
    33    16    11   ar
    34     8     9    1
@<TRIPOS>MOLECULE
*****
 31 34 0 0 0
SMALL
GASTEIGER

@<TRIPOS>ATOM
      1 C          -3.8573  -16.7410   24.0466 C.ar    1  UNL1        0.0284
      2 C          -4.6990  -15.8720   23.1599 C.ar    1  UNL1        0.0027
      3 C          -5.9981  -15.3189   23.6663 C.ar    1  UNL1        0.0339
      4 C          -6.4555  -15.6347   25.0595 C.ar    1  UNL1        0.1311
      5 N          -5.6138  -16.5038   25.9462 N.ar    1  UNL1       -0.2035
      6 C          -4.3147  -17.0570   25.4399 C.ar    1  UNL1        0.2196
      7 F          -3.4731  -17.9260   26.3267 F       1  UNL1       -0.1835
      8 N          -7.7546  -15.0816   25.5658 N.pl3   1  UNL1       -0.3144
      9 H          -7.7688  -14.5208   26.3749 H       1  UNL1        0.1485
     10 C          -9.0320  -15.3829   24.8395 C.3     1  UNL1        0.1169
     11 C          -9.4676  -16.8052   24.6469 C.ar    1  UNL1        0.0205
     12 C          -9.3855  -17.7758   25.7875 C.ar    1  UNL1        0.0962
     13 N          -9.8212  -19.1982   25.5948 N.ar    1  UNL1       -0.2426
     14 C         -10.3391  -19.6499   24.2615 C.ar    1  UNL1        0.0988
     15 C         -10.4212  -18.6792   23.1209 C.ar    1  UNL1        0.0243
     16 C          -9.9855  -17.2569   23.3136 C.ar    1  UNL1        0.0721
     17 C         -10.0677  -16.2863   22.1728 C.3     1  UNL1        0.4184
     18 F         -10.1499  -15.3157   21.0321 F       1  UNL1       -0.1659
     19 F          -8.6774  -16.6617   21.7532 F       1  UNL1       -0.1659
     20 F         -11.4580  -15.9109   22.5925 F       1  UNL1       -0.1659
     21 C          -2.5583  -17.2942   23.5403 C.3     1  UNL1        0.0603
     22 C          -7.4311  -20.3048   22.1321 C.3     1  UNL1        0.0307
     23 C          -6.0313  -20.1205   21.6256 C.2     1  UNL1        0.0074
     24 C          -5.5750  -20.8533   20.3989 C.2     1  UNL1        0.2278
     25 N          -4.1752  -20.6690   19.8924 N.2     1  UNL1       -0.0314
     26 C          -3.2317  -19.7518   20.6125 C.2     1  UNL1        0.3716
     27 N          -1.8041  -19.3734   20.3507 N.2     1  UNL1       -0.0311
     28 C          -1.3780  -18.4068   21.4156 C.2     1  UNL1        0.2319
     29 C          -2.5423  -18.1877   22.3355 C.2     1  UNL1        0.0328
     30 C          -3.6880  -19.0190   21.8391 C.2     1  UNL1        0.0704
     31 C          -5.0878  -19.2033   22.3457 C.3     1  UNL1        0.0598
@<TRIPOS>BOND
     1    22    23    1
     2    23    24    2
     3    24    25    1
     4    25    26    2
     5    26    27    1
     6    27    28    2
     7    28    29    1
     8    29    21    1
     9    21     1    1
    10     1     2   ar
    11     2     3   ar
    12     3     4   ar
    13     4     8    1
    14     8    10    1
    15    10    11    1
    16    11    12   ar
    17    12    13   ar
    18    13    14   ar
    19    14    15   ar
    20    15    16   ar
    21    16    17    1
    22    17    18    1
    23    17    19    1
    24    17    20    1
    25     4     5   ar
    26     5     6   ar
    27     6     7    1
    28    29    30    2
    29    30    31    1
    30    31    23    1
    31    30    26    1
    32     6     1   ar
    33    16    11   ar
    34     8     9    1
