@<TRIPOS>MOLECULE
*****
 42 46 0 0 0
SMALL
GASTEIGER

@<TRIPOS>ATOM
      1 C           6.6854   -3.3545   29.8585 C.ar    1  UNL1        0.0611
      2 C           6.8009   -4.2584   31.0499 C.ar    1  UNL1        0.1037
      3 N           6.9775   -5.6621   30.5513 N.ar    1  UNL1       -0.2269
      4 C           6.9710   -5.6256   29.0517 C.ar    1  UNL1        0.1407
      5 N           7.1062   -6.7068   28.0209 N.ar    1  UNL1       -0.3374
      6 C           7.0608   -6.3617   26.5618 C.ar    1  UNL1        0.0735
      7 C           6.8803   -4.9355   26.1337 C.ar    1  UNL1        0.0186
      8 C           6.7451   -3.8543   27.1645 C.ar    1  UNL1        0.0047
      9 C           6.7905   -4.1994   28.6236 C.ar    1  UNL1        0.0386
     10 H           7.2246   -7.6428   28.3019 H       1  UNL1        0.1674
     11 C           6.8349   -4.5905   24.6745 C.ar    1  UNL1        0.0208
     12 C           5.9060   -3.5190   24.1857 C.ar    1  UNL1        0.0064
     13 C           5.8607   -3.1740   22.7266 C.ar    1  UNL1        0.0577
     14 C           6.7442   -3.9005   21.7563 C.ar    1  UNL1        0.2249
     15 N           7.6732   -4.9721   22.2452 N.ar    1  UNL1       -0.2101
     16 C           7.7185   -5.3171   23.7043 C.ar    1  UNL1        0.1021
     17 O           6.6989   -3.5556   20.2973 O.3     1  UNL1       -0.4587
     18 C           5.4709   -3.8615   19.4921 C.3     1  UNL1        0.2244
     19 C           5.1396   -3.0339   18.2857 C.3     1  UNL1        0.1201
     20 N           4.1820   -1.8855   18.4039 N.3     1  UNL1       -0.2696
     21 C           3.3213   -1.5740   19.5922 C.3     1  UNL1        0.0722
     22 C           2.5243   -0.3429   19.2773 C.3     1  UNL1        0.0188
     23 C           2.8923    0.1065   17.8943 C.3     1  UNL1        0.0188
     24 C           3.9169   -0.8469   17.3545 C.3     1  UNL1        0.0722
     25 C           6.4977   -1.8667   29.8955 C.2     1  UNL1        0.2015
     26 O           7.6684   -0.9571   29.6678 O.2     1  UNL1       -0.2864
     27 C           2.7925   -0.5732   29.3046 C.ar    1  UNL1        0.0920
     28 C           2.4220   -0.1322   30.6896 C.ar    1  UNL1        0.0204
     29 C           3.4100   -0.2694   31.8099 C.ar    1  UNL1        0.0312
     30 C           4.7685   -0.8475   31.5453 C.ar    1  UNL1        0.1454
     31 F           5.7565   -0.9847   32.6655 F       1  UNL1       -0.2040
     32 C           5.1390   -1.2885   30.1602 C.ar    1  UNL1        0.0951
     33 C           4.1510   -1.1513   29.0400 C.ar    1  UNL1        0.1598
     34 F           4.5217   -1.5923   27.6550 F       1  UNL1       -0.2026
     35 N           1.8045   -0.4360   28.1843 N.pl3   1  UNL1       -0.2166
     36 H           1.7306   -1.1436   27.5038 H       1  UNL1        0.1734
     37 S           0.9292    0.7793   28.1009 S.O2    1  UNL1        0.0540
     38 O          -0.2553   -0.0459   28.5085 O.2     1  UNL1       -0.1545
     39 O           2.1137    1.6044   27.6933 O.2     1  UNL1       -0.1545
     40 C           0.0540    1.9946   28.0175 C.3     1  UNL1        0.1724
     41 C          -0.7185    2.0410   25.5373 C.3     1  UNL1        0.0019
     42 C          -1.0471    2.0575   27.0007 C.3     1  UNL1        0.0273
@<TRIPOS>BOND
     1    41    42    1
     2    42    40    1
     3    40    37    1
     4    37    38    2
     5    37    39    2
     6    37    35    1
     7    35    27    1
     8    27    28   ar
     9    28    29   ar
    10    29    30   ar
    11    30    31    1
    12    30    32   ar
    13    32    25    1
    14    25    26    2
    15    25     1    1
    16     1     2   ar
    17     2     3   ar
    18     3     4   ar
    19     4     5   ar
    20     5     6   ar
    21     6     7   ar
    22     7    11    1
    23    11    12   ar
    24    12    13   ar
    25    13    14   ar
    26    14    17    1
    27    17    18    1
    28    18    19    1
    29    19    20    1
    30    20    21    1
    31    21    22    1
    32    22    23    1
    33    23    24    1
    34    14    15   ar
    35    15    16   ar
    36     7     8   ar
    37     8     9   ar
    38    32    33   ar
    39    33    34    1
    40    33    27   ar
    41     9     1   ar
    42     9     4    1
    43    16    11   ar
    44    24    20    1
    45    35    36    1
    46     5    10    1
@<TRIPOS>MOLECULE
*****
 42 46 0 0 0
SMALL
GASTEIGER

@<TRIPOS>ATOM
      1 C           7.0343   -3.7615   22.1976 C.ar    1  UNL1        0.0611
      2 C           7.1736   -4.3233   20.8138 C.ar    1  UNL1        0.1037
      3 N           6.0144   -3.8350   19.9965 N.ar    1  UNL1       -0.2269
      4 C           5.1588   -2.9714   20.8753 C.ar    1  UNL1        0.1407
      5 N           3.8871   -2.2206   20.6125 N.ar    1  UNL1       -0.3374
      6 C           3.2458   -1.4244   21.7101 C.ar    1  UNL1        0.0735
      7 C           3.8762   -1.3790   23.0704 C.ar    1  UNL1        0.0186
      8 C           5.1478   -2.1298   23.3332 C.ar    1  UNL1        0.0047
      9 C           5.7891   -2.9260   22.2357 C.ar    1  UNL1        0.0386
     10 H           3.4734   -2.2504   19.7196 H       1  UNL1        0.1674
     11 C           3.2348   -0.5827   24.1680 C.ar    1  UNL1        0.0208
     12 C           3.6603   -0.7892   25.5915 C.ar    1  UNL1        0.0064
     13 C           3.0190    0.0071   26.6891 C.ar    1  UNL1        0.0577
     14 C           1.9521    1.0099   26.3631 C.ar    1  UNL1        0.2249
     15 N           1.5265    1.2163   24.9396 N.ar    1  UNL1       -0.2101
     16 C           2.1679    0.4200   23.8421 C.ar    1  UNL1        0.1021
     17 O           1.3107    1.8061   27.4606 O.3     1  UNL1       -0.4587
     18 C           0.0601    1.3038   28.1192 C.3     1  UNL1        0.2244
     19 C           0.1497    0.3125   29.2414 C.3     1  UNL1        0.1201
     20 N           1.2873    0.3842   30.2165 N.3     1  UNL1       -0.2696
     21 C           2.3944   -0.6184   30.3547 C.3     1  UNL1        0.0722
     22 C           3.3089   -0.1512   31.4481 C.3     1  UNL1        0.0188
     23 C           2.7669    1.1401   31.9856 C.3     1  UNL1        0.0188
     24 C           1.5175    1.4709   31.2244 C.3     1  UNL1        0.0722
     25 C           7.9751   -3.9943   23.3425 C.2     1  UNL1        0.2015
     26 O           9.1730   -3.1094   23.5208 O.2     1  UNL1       -0.2864
     27 C           6.7335   -5.9592   26.5594 C.ar    1  UNL1        0.0920
     28 C           7.2037   -7.3479   26.2423 C.ar    1  UNL1        0.0204
     29 C           7.9310   -7.6187   24.9587 C.ar    1  UNL1        0.0312
     30 C           8.1882   -6.5009   23.9921 C.ar    1  UNL1        0.1454
     31 F           8.9155   -6.7718   22.7085 F       1  UNL1       -0.2040
     32 C           7.7180   -5.1123   24.3091 C.ar    1  UNL1        0.0951
     33 C           6.9907   -4.8414   25.5927 C.ar    1  UNL1        0.1598
     34 F           6.5205   -3.4527   25.9097 F       1  UNL1       -0.2026
     35 N           6.0062   -5.6884   27.8430 N.pl3   1  UNL1       -0.2166
     36 H           5.0491   -5.9053   27.9217 H       1  UNL1        0.1734
     37 S           6.7372   -5.0871   29.0067 S.O2    1  UNL1        0.0540
     38 O           7.4564   -6.3851   29.2256 O.2     1  UNL1       -0.1545
     39 O           6.0179   -3.7891   28.7877 O.2     1  UNL1       -0.1545
     40 C           7.4680   -4.4858   30.1703 C.3     1  UNL1        0.1724
     41 C           6.3950   -3.4234   32.2846 C.3     1  UNL1        0.0019
     42 C           6.9154   -4.6278   31.5576 C.3     1  UNL1        0.0273
@<TRIPOS>BOND
     1    41    42    1
     2    42    40    1
     3    40    37    1
     4    37    38    2
     5    37    39    2
     6    37    35    1
     7    35    27    1
     8    27    28   ar
     9    28    29   ar
    10    29    30   ar
    11    30    31    1
    12    30    32   ar
    13    32    25    1
    14    25    26    2
    15    25     1    1
    16     1     2   ar
    17     2     3   ar
    18     3     4   ar
    19     4     5   ar
    20     5     6   ar
    21     6     7   ar
    22     7    11    1
    23    11    12   ar
    24    12    13   ar
    25    13    14   ar
    26    14    17    1
    27    17    18    1
    28    18    19    1
    29    19    20    1
    30    20    21    1
    31    21    22    1
    32    22    23    1
    33    23    24    1
    34    14    15   ar
    35    15    16   ar
    36     7     8   ar
    37     8     9   ar
    38    32    33   ar
    39    33    34    1
    40    33    27   ar
    41     9     1   ar
    42     9     4    1
    43    16    11   ar
    44    24    20    1
    45    35    36    1
    46     5    10    1
@<TRIPOS>MOLECULE
*****
 42 46 0 0 0
SMALL
GASTEIGER

@<TRIPOS>ATOM
      1 C           7.6770   -3.9161   27.7773 C.ar    1  UNL1        0.0611
      2 C           8.1710   -5.2545   27.3141 C.ar    1  UNL1        0.1037
      3 N           8.0842   -6.2061   28.4704 N.ar    1  UNL1       -0.2269
      4 C           7.5366   -5.4558   29.6482 C.ar    1  UNL1        0.1407
      5 N           7.2346   -5.8785   31.0553 N.ar    1  UNL1       -0.3374
      6 C           6.6810   -4.8858   32.0341 C.ar    1  UNL1        0.0735
      7 C           6.4293   -3.4705   31.6057 C.ar    1  UNL1        0.0186
      8 C           6.7313   -3.0478   30.1986 C.ar    1  UNL1        0.0047
      9 C           7.2850   -4.0404   29.2198 C.ar    1  UNL1        0.0386
     10 H           7.3998   -6.8074   31.3364 H       1  UNL1        0.1674
     11 C           5.8756   -2.4778   32.5846 C.ar    1  UNL1        0.0208
     12 C           6.7357   -1.3532   33.0800 C.ar    1  UNL1        0.0064
     13 C           6.1820   -0.3606   34.0589 C.ar    1  UNL1        0.0577
     14 C           4.7682   -0.4926   34.5423 C.ar    1  UNL1        0.2249
     15 N           3.9081   -1.6173   34.0469 N.ar    1  UNL1       -0.2101
     16 C           4.4618   -2.6098   33.0681 C.ar    1  UNL1        0.1021
     17 O           4.2145    0.5000   35.5211 O.3     1  UNL1       -0.4587
     18 C           4.5070    0.3530   36.9849 C.3     1  UNL1        0.2244
     19 C           4.1654    1.4638   37.9334 C.3     1  UNL1        0.1201
     20 N           2.7843    1.5589   38.5107 N.3     1  UNL1       -0.2696
     21 C           2.0052    0.4329   39.1231 C.3     1  UNL1        0.0722
     22 C           0.6791    0.9748   39.5679 C.3     1  UNL1        0.0188
     23 C           0.6386    2.4358   39.2303 C.3     1  UNL1        0.0188
     24 C           1.9396    2.7968   38.5769 C.3     1  UNL1        0.0722
     25 C           7.5903   -2.6717   26.9443 C.2     1  UNL1        0.2015
     26 O           8.5117   -1.5201   27.2180 O.2     1  UNL1       -0.2864
     27 C           5.8236   -3.1872   23.4281 C.ar    1  UNL1        0.0920
     28 C           4.5661   -2.3932   23.6236 C.ar    1  UNL1        0.0204
     29 C           4.3167   -1.6920   24.9260 C.ar    1  UNL1        0.0312
     30 C           5.3247   -1.7848   26.0329 C.ar    1  UNL1        0.1454
     31 F           5.0753   -1.0836   27.3352 F       1  UNL1       -0.2040
     32 C           6.5822   -2.5788   25.8373 C.ar    1  UNL1        0.0951
     33 C           6.8316   -3.2800   24.5350 C.ar    1  UNL1        0.1598
     34 F           8.0892   -4.0740   24.3396 F       1  UNL1       -0.2026
     35 N           6.0730   -3.8884   22.1258 N.pl3   1  UNL1       -0.2166
     36 H           6.7004   -4.6461   22.0869 H       1  UNL1        0.1734
     37 S           5.3666   -3.4351   20.8826 S.O2    1  UNL1        0.0540
     38 O           4.3609   -4.5348   21.0531 O.2     1  UNL1       -0.1545
     39 O           6.3723   -2.3353   20.7122 O.2     1  UNL1       -0.1545
     40 C           4.6602   -2.9817   19.6395 C.3     1  UNL1        0.1724
     41 C           2.8448   -1.2049   20.1852 C.3     1  UNL1        0.0019
     42 C           3.2177   -2.5753   19.7024 C.3     1  UNL1        0.0273
@<TRIPOS>BOND
     1    41    42    1
     2    42    40    1
     3    40    37    1
     4    37    38    2
     5    37    39    2
     6    37    35    1
     7    35    27    1
     8    27    28   ar
     9    28    29   ar
    10    29    30   ar
    11    30    31    1
    12    30    32   ar
    13    32    25    1
    14    25    26    2
    15    25     1    1
    16     1     2   ar
    17     2     3   ar
    18     3     4   ar
    19     4     5   ar
    20     5     6   ar
    21     6     7   ar
    22     7    11    1
    23    11    12   ar
    24    12    13   ar
    25    13    14   ar
    26    14    17    1
    27    17    18    1
    28    18    19    1
    29    19    20    1
    30    20    21    1
    31    21    22    1
    32    22    23    1
    33    23    24    1
    34    14    15   ar
    35    15    16   ar
    36     7     8   ar
    37     8     9   ar
    38    32    33   ar
    39    33    34    1
    40    33    27   ar
    41     9     1   ar
    42     9     4    1
    43    16    11   ar
    44    24    20    1
    45    35    36    1
    46     5    10    1
@<TRIPOS>MOLECULE
*****
 42 46 0 0 0
SMALL
GASTEIGER

@<TRIPOS>ATOM
      1 C           0.5012    2.3121   22.8205 C.ar    1  UNL1        0.0611
      2 C          -0.6573    2.9005   22.0711 C.ar    1  UNL1        0.1037
      3 N          -0.8350    2.1180   20.8038 N.ar    1  UNL1       -0.2269
      4 C           0.2137    1.0460   20.7699 C.ar    1  UNL1        0.1407
      5 N           0.5233   -0.0238   19.7652 N.ar    1  UNL1       -0.3374
      6 C           1.6587   -0.9737   20.0068 C.ar    1  UNL1        0.0735
      7 C           2.4846   -0.8538   21.2533 C.ar    1  UNL1        0.0186
      8 C           2.1750    0.2161   22.2580 C.ar    1  UNL1        0.0047
      9 C           1.0395    1.1659   22.0164 C.ar    1  UNL1        0.0386
     10 H          -0.0187   -0.1025   18.9471 H       1  UNL1        0.1674
     11 C           3.6201   -1.8037   21.4950 C.ar    1  UNL1        0.0208
     12 C           3.9949   -2.1833   22.8968 C.ar    1  UNL1        0.0064
     13 C           5.1304   -3.1333   23.1385 C.ar    1  UNL1        0.0577
     14 C           5.8910   -3.7036   21.9782 C.ar    1  UNL1        0.2249
     15 N           5.5161   -3.3239   20.5763 N.ar    1  UNL1       -0.2101
     16 C           4.3806   -2.3740   20.3347 C.ar    1  UNL1        0.1021
     17 O           7.0264   -4.6535   22.2198 O.3     1  UNL1       -0.4587
     18 C           7.8272   -4.5589   23.4846 C.3     1  UNL1        0.2244
     19 C           7.6240   -5.5655   24.5780 C.3     1  UNL1        0.1201
     20 N           7.0896   -5.1286   25.9097 N.3     1  UNL1       -0.2696
     21 C           6.8810   -3.7113   26.3542 C.3     1  UNL1        0.0722
     22 C           6.3324   -3.7391   27.7499 C.3     1  UNL1        0.0188
     23 C           6.2018   -5.1737   28.1682 C.3     1  UNL1        0.0188
     24 C           6.6698   -6.0325   27.0309 C.3     1  UNL1        0.0722
     25 C           1.0288    2.7865   24.1421 C.2     1  UNL1        0.2015
     26 O           2.1958    3.7275   24.1897 O.2     1  UNL1       -0.2864
     27 C           0.3841    0.7526   27.4885 C.ar    1  UNL1        0.0920
     28 C          -0.8895    1.3862   27.9643 C.ar    1  UNL1        0.0204
     29 C          -1.5237    2.4866   27.1662 C.ar    1  UNL1        0.0312
     30 C          -0.8843    2.9533   25.8921 C.ar    1  UNL1        0.1454
     31 F          -1.5184    4.0537   25.0939 F       1  UNL1       -0.2040
     32 C           0.3893    2.3197   25.4162 C.ar    1  UNL1        0.0951
     33 C           1.0235    1.2194   26.2144 C.ar    1  UNL1        0.1598
     34 F           2.2971    0.5858   25.7385 F       1  UNL1       -0.2026
     35 N           1.0182   -0.3478   28.2866 N.pl3   1  UNL1       -0.2166
     36 H           0.5374   -1.1957   28.4248 H       1  UNL1        0.1734
     37 S           2.3849   -0.1561   28.8744 S.O2    1  UNL1        0.0540
     38 O           1.8745    0.9981   29.6850 O.2     1  UNL1       -0.1545
     39 O           2.8953   -1.3104   28.0638 O.2     1  UNL1       -0.1545
     40 C           3.7516    0.0354   29.4621 C.3     1  UNL1        0.1724
     41 C           5.4772   -1.5058   30.6442 C.3     1  UNL1        0.0019
     42 C           4.1726   -0.7657   30.6584 C.3     1  UNL1        0.0273
@<TRIPOS>BOND
     1    41    42    1
     2    42    40    1
     3    40    37    1
     4    37    38    2
     5    37    39    2
     6    37    35    1
     7    35    27    1
     8    27    28   ar
     9    28    29   ar
    10    29    30   ar
    11    30    31    1
    12    30    32   ar
    13    32    25    1
    14    25    26    2
    15    25     1    1
    16     1     2   ar
    17     2     3   ar
    18     3     4   ar
    19     4     5   ar
    20     5     6   ar
    21     6     7   ar
    22     7    11    1
    23    11    12   ar
    24    12    13   ar
    25    13    14   ar
    26    14    17    1
    27    17    18    1
    28    18    19    1
    29    19    20    1
    30    20    21    1
    31    21    22    1
    32    22    23    1
    33    23    24    1
    34    14    15   ar
    35    15    16   ar
    36     7     8   ar
    37     8     9   ar
    38    32    33   ar
    39    33    34    1
    40    33    27   ar
    41     9     1   ar
    42     9     4    1
    43    16    11   ar
    44    24    20    1
    45    35    36    1
    46     5    10    1
@<TRIPOS>MOLECULE
*****
 42 46 0 0 0
SMALL
GASTEIGER

@<TRIPOS>ATOM
      1 C           5.0004   -3.3148   22.5500 C.ar    1  UNL1        0.0611
      2 C           6.0619   -3.9398   23.4059 C.ar    1  UNL1        0.1037
      3 N           6.0923   -3.2080   24.7149 N.ar    1  UNL1       -0.2269
      4 C           5.0496   -2.1306   24.6680 C.ar    1  UNL1        0.1407
      5 N           4.6274   -1.0981   25.6707 N.ar    1  UNL1       -0.3374
      6 C           3.5304   -0.1316   25.3355 C.ar    1  UNL1        0.0735
      7 C           2.8556   -0.1976   23.9975 C.ar    1  UNL1        0.0186
      8 C           3.2777   -1.2302   22.9947 C.ar    1  UNL1        0.0047
      9 C           4.3747   -2.1967   23.3300 C.ar    1  UNL1        0.0386
     10 H           5.0703   -1.0547   26.5489 H       1  UNL1        0.1674
     11 C           1.7586    0.7690   23.6622 C.ar    1  UNL1        0.0208
     12 C           1.3182    0.9393   22.2385 C.ar    1  UNL1        0.0064
     13 C           0.2211    1.9059   21.9033 C.ar    1  UNL1        0.0577
     14 C          -0.4355    2.7021   22.9919 C.ar    1  UNL1        0.2249
     15 N           0.0050    2.5317   24.4156 N.ar    1  UNL1       -0.2101
     16 C           1.1019    1.5652   24.7508 C.ar    1  UNL1        0.1021
     17 O          -1.5324    3.6686   22.6567 O.3     1  UNL1       -0.4587
     18 C          -2.3963    3.4346   21.4530 C.3     1  UNL1        0.2244
     19 C          -3.8566    3.7747   21.5003 C.3     1  UNL1        0.1201
     20 N          -4.6644    3.7898   20.2365 N.3     1  UNL1       -0.2696
     21 C          -6.1616    3.7725   20.1469 C.3     1  UNL1        0.0722
     22 C          -6.5394    3.7968   18.6955 C.3     1  UNL1        0.0188
     23 C          -5.2756    3.8291   17.8880 C.3     1  UNL1        0.0188
     24 C          -4.1168    3.8248   18.8404 C.3     1  UNL1        0.0722
     25 C           4.6296   -3.7343   21.1584 C.2     1  UNL1        0.2015
     26 O           3.9148   -5.0334   20.9320 O.2     1  UNL1       -0.2864
     27 C           4.2662   -1.0991   18.2132 C.ar    1  UNL1        0.0920
     28 C           5.6615   -1.0951   17.6627 C.ar    1  UNL1        0.0204
     29 C           6.7128   -1.9708   18.2773 C.ar    1  UNL1        0.0312
     30 C           6.3689   -2.8506   19.4425 C.ar    1  UNL1        0.1454
     31 F           7.4202   -3.7263   20.0572 F       1  UNL1       -0.2040
     32 C           4.9736   -2.8545   19.9931 C.ar    1  UNL1        0.0951
     33 C           3.9223   -1.9788   19.3784 C.ar    1  UNL1        0.1598
     34 F           2.5270   -1.9828   19.9291 F       1  UNL1       -0.2026
     35 N           3.2149   -0.2234   17.5985 N.pl3   1  UNL1       -0.2166
     36 H           2.8064   -0.4741   16.7386 H       1  UNL1        0.1734
     37 S           2.7859    1.0344   18.2941 S.O2    1  UNL1        0.0540
     38 O           1.4019    0.4770   18.4486 O.2     1  UNL1       -0.1545
     39 O           4.1698    1.5919   18.1397 O.2     1  UNL1       -0.1545
     40 C           2.3569    2.2922   18.9897 C.3     1  UNL1        0.1724
     41 C           0.7294    4.3099   19.1646 C.3     1  UNL1        0.0019
     42 C           1.2892    3.1561   18.3866 C.3     1  UNL1        0.0273
@<TRIPOS>BOND
     1    41    42    1
     2    42    40    1
     3    40    37    1
     4    37    38    2
     5    37    39    2
     6    37    35    1
     7    35    27    1
     8    27    28   ar
     9    28    29   ar
    10    29    30   ar
    11    30    31    1
    12    30    32   ar
    13    32    25    1
    14    25    26    2
    15    25     1    1
    16     1     2   ar
    17     2     3   ar
    18     3     4   ar
    19     4     5   ar
    20     5     6   ar
    21     6     7   ar
    22     7    11    1
    23    11    12   ar
    24    12    13   ar
    25    13    14   ar
    26    14    17    1
    27    17    18    1
    28    18    19    1
    29    19    20    1
    30    20    21    1
    31    21    22    1
    32    22    23    1
    33    23    24    1
    34    14    15   ar
    35    15    16   ar
    36     7     8   ar
    37     8     9   ar
    38    32    33   ar
    39    33    34    1
    40    33    27   ar
    41     9     1   ar
    42     9     4    1
    43    16    11   ar
    44    24    20    1
    45    35    36    1
    46     5    10    1
@<TRIPOS>MOLECULE
*****
 42 46 0 0 0
SMALL
GASTEIGER

@<TRIPOS>ATOM
      1 C           4.2313   -2.6500   21.5589 C.ar    1  UNL1        0.0611
      2 C           5.2363   -3.7079   21.9067 C.ar    1  UNL1        0.1037
      3 N           5.5455   -3.5901   23.3698 N.ar    1  UNL1       -0.2269
      4 C           4.7317   -2.4595   23.9261 C.ar    1  UNL1        0.1407
      5 N           4.6254   -1.8841   25.3072 N.ar    1  UNL1       -0.3374
      6 C           3.7067   -0.7276   25.5691 C.ar    1  UNL1        0.0735
      7 C           2.8945   -0.1466   24.4499 C.ar    1  UNL1        0.0186
      8 C           3.0009   -0.7220   23.0688 C.ar    1  UNL1        0.0047
      9 C           3.9195   -1.8785   22.8069 C.ar    1  UNL1        0.0386
     10 H           5.1585   -2.2654   26.0418 H       1  UNL1        0.1674
     11 C           1.9758    1.0100   24.7118 C.ar    1  UNL1        0.0208
     12 C           0.5648    0.9769   24.2041 C.ar    1  UNL1        0.0064
     13 C          -0.3539    2.1335   24.4660 C.ar    1  UNL1        0.0577
     14 C           0.1386    3.3231   25.2357 C.ar    1  UNL1        0.2249
     15 N           1.5498    3.3561   25.7434 N.ar    1  UNL1       -0.2101
     16 C           2.4683    2.1996   25.4814 C.ar    1  UNL1        0.1021
     17 O          -0.7799    4.4796   25.4976 O.3     1  UNL1       -0.4587
     18 C          -1.6809    4.4651   26.6968 C.3     1  UNL1        0.2244
     19 C          -2.9247    3.6266   26.6903 C.3     1  UNL1        0.1201
     20 N          -3.9854    3.8662   25.6571 N.3     1  UNL1       -0.2696
     21 C          -5.2287    4.6844   25.8433 C.3     1  UNL1        0.0722
     22 C          -6.0007    4.6536   24.5576 C.3     1  UNL1        0.0188
     23 C          -5.2345    3.8163   23.5767 C.3     1  UNL1        0.0188
     24 C          -3.9890    3.3297   24.2563 C.3     1  UNL1        0.0722
     25 C           3.6417   -2.4064   20.2013 C.2     1  UNL1        0.2015
     26 O           3.2026   -3.5647   19.3554 O.2     1  UNL1       -0.2864
     27 C           1.9762    1.0097   19.0581 C.ar    1  UNL1        0.0920
     28 C           3.1898    1.7995   18.6662 C.ar    1  UNL1        0.0204
     29 C           4.5539    1.1873   18.7860 C.ar    1  UNL1        0.0312
     30 C           4.7046   -0.2146   19.2977 C.ar    1  UNL1        0.1454
     31 F           6.0687   -0.8268   19.4174 F       1  UNL1       -0.2040
     32 C           3.4911   -1.0044   19.6896 C.ar    1  UNL1        0.0951
     33 C           2.1269   -0.3922   19.5698 C.ar    1  UNL1        0.1598
     34 F           0.9134   -1.1821   19.9617 F       1  UNL1       -0.2026
     35 N           0.6121    1.6219   18.9383 N.pl3   1  UNL1       -0.2166
     36 H           0.0186    1.3606   18.1976 H       1  UNL1        0.1734
     37 S           0.1523    2.6322   19.9472 S.O2    1  UNL1        0.0540
     38 O           0.6190    3.7402   19.0503 O.2     1  UNL1       -0.1545
     39 O          -0.3144    1.5242   20.8441 O.2     1  UNL1       -0.1545
     40 C          -0.3076    3.6425   20.9561 C.3     1  UNL1        0.1724
     41 C           2.0145    3.8536   22.1022 C.3     1  UNL1        0.0019
     42 C           0.6983    4.4585   21.7125 C.3     1  UNL1        0.0273
@<TRIPOS>BOND
     1    41    42    1
     2    42    40    1
     3    40    37    1
     4    37    38    2
     5    37    39    2
     6    37    35    1
     7    35    27    1
     8    27    28   ar
     9    28    29   ar
    10    29    30   ar
    11    30    31    1
    12    30    32   ar
    13    32    25    1
    14    25    26    2
    15    25     1    1
    16     1     2   ar
    17     2     3   ar
    18     3     4   ar
    19     4     5   ar
    20     5     6   ar
    21     6     7   ar
    22     7    11    1
    23    11    12   ar
    24    12    13   ar
    25    13    14   ar
    26    14    17    1
    27    17    18    1
    28    18    19    1
    29    19    20    1
    30    20    21    1
    31    21    22    1
    32    22    23    1
    33    23    24    1
    34    14    15   ar
    35    15    16   ar
    36     7     8   ar
    37     8     9   ar
    38    32    33   ar
    39    33    34    1
    40    33    27   ar
    41     9     1   ar
    42     9     4    1
    43    16    11   ar
    44    24    20    1
    45    35    36    1
    46     5    10    1
@<TRIPOS>MOLECULE
*****
 42 46 0 0 0
SMALL
GASTEIGER

@<TRIPOS>ATOM
      1 C           0.8823    1.3233   22.3765 C.ar    1  UNL1        0.0611
      2 C          -0.0006    2.4215   22.8909 C.ar    1  UNL1        0.1037
      3 N           0.2882    2.6027   24.3516 N.ar    1  UNL1       -0.2269
      4 C           1.3497    1.6165   24.7400 C.ar    1  UNL1        0.1407
      5 N           2.0293    1.3364   26.0475 N.ar    1  UNL1       -0.3374
      6 C           3.0760    0.2656   26.1344 C.ar    1  UNL1        0.0735
      7 C           3.4432   -0.5251   24.9137 C.ar    1  UNL1        0.0186
      8 C           2.7636   -0.2450   23.6062 C.ar    1  UNL1        0.0047
      9 C           1.7168    0.8258   23.5194 C.ar    1  UNL1        0.0386
     10 H           1.7883    1.8554   26.8487 H       1  UNL1        0.1674
     11 C           4.4900   -1.5960   25.0006 C.ar    1  UNL1        0.0208
     12 C           4.7534   -2.4847   23.8213 C.ar    1  UNL1        0.0064
     13 C           5.8003   -3.5556   23.9082 C.ar    1  UNL1        0.0577
     14 C           6.5836   -3.7376   25.1744 C.ar    1  UNL1        0.2249
     15 N           6.3202   -2.8488   26.3537 N.ar    1  UNL1       -0.2101
     16 C           5.2734   -1.7780   26.2668 C.ar    1  UNL1        0.1021
     17 O           7.6304   -4.8084   25.2613 O.3     1  UNL1       -0.4587
     18 C           7.2669   -6.1733   25.7661 C.3     1  UNL1        0.2244
     19 C           8.0492   -6.7913   26.8870 C.3     1  UNL1        0.1201
     20 N           7.8231   -6.3375   28.2987 N.3     1  UNL1       -0.2696
     21 C           6.6736   -5.5049   28.7838 C.3     1  UNL1        0.0722
     22 C           6.8470   -5.2895   30.2581 C.3     1  UNL1        0.0188
     23 C           8.1037   -5.9889   30.6842 C.3     1  UNL1        0.0188
     24 C           8.7070   -6.6366   29.4732 C.3     1  UNL1        0.0722
     25 C           0.9235    0.8124   20.9669 C.2     1  UNL1        0.2015
     26 O          -0.1832   -0.0597   20.4525 O.2     1  UNL1       -0.2864
     27 C           4.3836    0.5992   19.0349 C.ar    1  UNL1        0.0920
     28 C           4.3674    1.8957   18.2806 C.ar    1  UNL1        0.0204
     29 C           3.2033    2.8311   18.4218 C.ar    1  UNL1        0.0312
     30 C           2.0554    2.4700   19.3172 C.ar    1  UNL1        0.1454
     31 F           0.8912    3.4054   19.4584 F       1  UNL1       -0.2040
     32 C           2.0715    1.1735   20.0714 C.ar    1  UNL1        0.0951
     33 C           3.2356    0.2382   19.9302 C.ar    1  UNL1        0.1598
     34 F           3.2517   -1.0584   20.6845 F       1  UNL1       -0.2026
     35 N           5.5477   -0.3361   18.8937 N.pl3   1  UNL1       -0.2166
     36 H           6.4640   -0.0074   19.0406 H       1  UNL1        0.1734
     37 S           5.3157   -1.7724   18.5286 S.O2    1  UNL1        0.0540
     38 O           5.8651   -2.1989   19.8576 O.2     1  UNL1       -0.1545
     39 O           4.7663   -1.3459   17.1996 O.2     1  UNL1       -0.1545
     40 C           5.0837   -3.2086   18.1635 C.3     1  UNL1        0.1724
     41 C           3.5619   -4.8164   19.5234 C.3     1  UNL1        0.0019
     42 C           4.9171   -4.2390   19.2409 C.3     1  UNL1        0.0273
@<TRIPOS>BOND
     1    41    42    1
     2    42    40    1
     3    40    37    1
     4    37    38    2
     5    37    39    2
     6    37    35    1
     7    35    27    1
     8    27    28   ar
     9    28    29   ar
    10    29    30   ar
    11    30    31    1
    12    30    32   ar
    13    32    25    1
    14    25    26    2
    15    25     1    1
    16     1     2   ar
    17     2     3   ar
    18     3     4   ar
    19     4     5   ar
    20     5     6   ar
    21     6     7   ar
    22     7    11    1
    23    11    12   ar
    24    12    13   ar
    25    13    14   ar
    26    14    17    1
    27    17    18    1
    28    18    19    1
    29    19    20    1
    30    20    21    1
    31    21    22    1
    32    22    23    1
    33    23    24    1
    34    14    15   ar
    35    15    16   ar
    36     7     8   ar
    37     8     9   ar
    38    32    33   ar
    39    33    34    1
    40    33    27   ar
    41     9     1   ar
    42     9     4    1
    43    16    11   ar
    44    24    20    1
    45    35    36    1
    46     5    10    1
@<TRIPOS>MOLECULE
*****
 42 46 0 0 0
SMALL
GASTEIGER

@<TRIPOS>ATOM
      1 C           5.3626   -1.2125   31.2474 C.ar    1  UNL1        0.0611
      2 C           4.6871   -0.9808   32.5665 C.ar    1  UNL1        0.1037
      3 N           3.2835   -0.5266   32.2949 N.ar    1  UNL1       -0.2269
      4 C           3.0916   -0.4776   30.8081 C.ar    1  UNL1        0.1407
      5 N           1.9129   -0.1017   29.9601 N.ar    1  UNL1       -0.3374
      6 C           2.0191   -0.1497   28.4646 C.ar    1  UNL1        0.0735
      7 C           3.3040   -0.5736   27.8172 C.ar    1  UNL1        0.0186
      8 C           4.4828   -0.9495   28.6652 C.ar    1  UNL1        0.0047
      9 C           4.3766   -0.9015   30.1606 C.ar    1  UNL1        0.0386
     10 H           1.0695    0.1765   30.3850 H       1  UNL1        0.1674
     11 C           3.4102   -0.6216   26.3217 C.ar    1  UNL1        0.0208
     12 C           4.3106   -1.6259   25.6656 C.ar    1  UNL1        0.0064
     13 C           4.4168   -1.6739   24.1700 C.ar    1  UNL1        0.0577
     14 C           3.6225   -0.7175   23.3307 C.ar    1  UNL1        0.2249
     15 N           2.7220    0.2868   23.9869 N.ar    1  UNL1       -0.2101
     16 C           2.6159    0.3348   25.4823 C.ar    1  UNL1        0.1021
     17 O           3.7286   -0.7655   21.8353 O.3     1  UNL1       -0.4587
     18 C           2.5156   -0.5163   20.9890 C.3     1  UNL1        0.2244
     19 C           2.3838   -1.1836   19.6520 C.3     1  UNL1        0.1201
     20 N           3.4303   -2.1549   19.1922 N.3     1  UNL1       -0.2696
     21 C           4.6830   -1.8116   18.4419 C.3     1  UNL1        0.0722
     22 C           5.4347   -3.0845   18.1879 C.3     1  UNL1        0.0188
     23 C           4.6467   -4.2146   18.7812 C.3     1  UNL1        0.0188
     24 C           3.4079   -3.6400   19.4019 C.3     1  UNL1        0.0722
     25 C           6.7761   -1.6741   31.0498 C.2     1  UNL1        0.2015
     26 O           7.9159   -0.7385   31.3237 O.2     1  UNL1       -0.2864
     27 C           7.9181   -4.6994   28.7489 C.ar    1  UNL1        0.0920
     28 C           7.5968   -5.8663   29.6349 C.ar    1  UNL1        0.0204
     29 C           7.0019   -5.6359   30.9924 C.ar    1  UNL1        0.0312
     30 C           6.7283   -4.2386   31.4641 C.ar    1  UNL1        0.1454
     31 F           6.1335   -4.0081   32.8217 F       1  UNL1       -0.2040
     32 C           7.0496   -3.0716   30.5781 C.ar    1  UNL1        0.0951
     33 C           7.6445   -3.3020   29.2205 C.ar    1  UNL1        0.1598
     34 F           7.9658   -2.1350   28.3346 F       1  UNL1       -0.2026
     35 N           8.5129   -4.9298   27.3913 N.pl3   1  UNL1       -0.2166
     36 H           9.1277   -4.2655   27.0040 H       1  UNL1        0.1734
     37 S           8.1711   -6.1724   26.6238 S.O2    1  UNL1        0.0540
     38 O           9.5296   -6.7323   26.9252 O.2     1  UNL1       -0.1545
     39 O           6.8126   -5.6124   26.3223 O.2     1  UNL1       -0.1545
     40 C           7.8291   -7.4149   25.8562 C.3     1  UNL1        0.1724
     41 C           8.6769   -6.6721   23.5153 C.3     1  UNL1        0.0019
     42 C           8.5444   -7.7256   24.5748 C.3     1  UNL1        0.0273
@<TRIPOS>BOND
     1    41    42    1
     2    42    40    1
     3    40    37    1
     4    37    38    2
     5    37    39    2
     6    37    35    1
     7    35    27    1
     8    27    28   ar
     9    28    29   ar
    10    29    30   ar
    11    30    31    1
    12    30    32   ar
    13    32    25    1
    14    25    26    2
    15    25     1    1
    16     1     2   ar
    17     2     3   ar
    18     3     4   ar
    19     4     5   ar
    20     5     6   ar
    21     6     7   ar
    22     7    11    1
    23    11    12   ar
    24    12    13   ar
    25    13    14   ar
    26    14    17    1
    27    17    18    1
    28    18    19    1
    29    19    20    1
    30    20    21    1
    31    21    22    1
    32    22    23    1
    33    23    24    1
    34    14    15   ar
    35    15    16   ar
    36     7     8   ar
    37     8     9   ar
    38    32    33   ar
    39    33    34    1
    40    33    27   ar
    41     9     1   ar
    42     9     4    1
    43    16    11   ar
    44    24    20    1
    45    35    36    1
    46     5    10    1
@<TRIPOS>MOLECULE
*****
 42 46 0 0 0
SMALL
GASTEIGER

@<TRIPOS>ATOM
      1 C           6.7346   -3.2544   30.4558 C.ar    1  UNL1        0.0611
      2 C           6.8074   -3.9927   31.7594 C.ar    1  UNL1        0.1037
      3 N           7.1036   -5.4325   31.4608 N.ar    1  UNL1       -0.2269
      4 C           7.2139   -5.5840   29.9725 C.ar    1  UNL1        0.1407
      5 N           7.4925   -6.7739   29.1027 N.ar    1  UNL1       -0.3374
      6 C           7.5431   -6.6175   27.6118 C.ar    1  UNL1        0.0735
      7 C           7.3151   -5.2713   26.9907 C.ar    1  UNL1        0.0186
      8 C           7.0365   -4.0815   27.8604 C.ar    1  UNL1        0.0047
      9 C           6.9859   -4.2378   29.3514 C.ar    1  UNL1        0.0386
     10 H           7.6422   -7.6574   29.5104 H       1  UNL1        0.1674
     11 C           7.3657   -5.1151   25.4996 C.ar    1  UNL1        0.0208
     12 C           6.7125   -3.9331   24.8468 C.ar    1  UNL1        0.0064
     13 C           6.7631   -3.7768   23.3558 C.ar    1  UNL1        0.0577
     14 C           7.4670   -4.8025   22.5176 C.ar    1  UNL1        0.2249
     15 N           8.1202   -5.9845   23.1705 N.ar    1  UNL1       -0.2101
     16 C           8.0696   -6.1408   24.6615 C.ar    1  UNL1        0.1021
     17 O           7.5176   -4.6463   21.0267 O.3     1  UNL1       -0.4587
     18 C           8.1553   -3.4311   20.4212 C.3     1  UNL1        0.2244
     19 C           7.3175   -2.4416   19.6668 C.3     1  UNL1        0.1201
     20 N           5.8212   -2.5352   19.7143 N.3     1  UNL1       -0.2696
     21 C           4.9660   -3.4249   18.8617 C.3     1  UNL1        0.0722
     22 C           3.5336   -3.1952   19.2433 C.3     1  UNL1        0.0188
     23 C           3.5036   -2.1634   20.3317 C.3     1  UNL1        0.0188
     24 C           4.9174   -1.7556   20.6228 C.3     1  UNL1        0.0722
     25 C           6.4590   -1.7897   30.2862 C.2     1  UNL1        0.2015
     26 O           7.5819   -0.7996   30.3786 O.2     1  UNL1       -0.2864
     27 C           3.1631   -0.7175   28.3528 C.ar    1  UNL1        0.0920
     28 C           2.2631   -0.3660   29.5002 C.ar    1  UNL1        0.0204
     29 C           2.7618   -0.4890   30.9095 C.ar    1  UNL1        0.0312
     30 C           4.1603   -0.9635   31.1716 C.ar    1  UNL1        0.1454
     31 F           4.6590   -1.0866   32.5809 F       1  UNL1       -0.2040
     32 C           5.0603   -1.3151   30.0242 C.ar    1  UNL1        0.0951
     33 C           4.5617   -1.1920   28.6149 C.ar    1  UNL1        0.1598
     34 F           5.4618   -1.5436   27.4675 F       1  UNL1       -0.2026
     35 N           2.6645   -0.5944   26.9435 N.pl3   1  UNL1       -0.2166
     36 H           1.7714   -0.9338   26.7059 H       1  UNL1        0.1734
     37 S           3.5266    0.0457   25.8962 S.O2    1  UNL1        0.0540
     38 O           3.5693   -1.2491   25.1400 O.2     1  UNL1       -0.1545
     39 O           3.4838    1.3404   26.6523 O.2     1  UNL1       -0.1545
     40 C           4.3887    0.6859   24.8489 C.3     1  UNL1        0.1724
     41 C           6.8010   -0.0056   24.1759 C.3     1  UNL1        0.0019
     42 C           5.3163   -0.1559   24.0237 C.3     1  UNL1        0.0273
@<TRIPOS>BOND
     1    41    42    1
     2    42    40    1
     3    40    37    1
     4    37    38    2
     5    37    39    2
     6    37    35    1
     7    35    27    1
     8    27    28   ar
     9    28    29   ar
    10    29    30   ar
    11    30    31    1
    12    30    32   ar
    13    32    25    1
    14    25    26    2
    15    25     1    1
    16     1     2   ar
    17     2     3   ar
    18     3     4   ar
    19     4     5   ar
    20     5     6   ar
    21     6     7   ar
    22     7    11    1
    23    11    12   ar
    24    12    13   ar
    25    13    14   ar
    26    14    17    1
    27    17    18    1
    28    18    19    1
    29    19    20    1
    30    20    21    1
    31    21    22    1
    32    22    23    1
    33    23    24    1
    34    14    15   ar
    35    15    16   ar
    36     7     8   ar
    37     8     9   ar
    38    32    33   ar
    39    33    34    1
    40    33    27   ar
    41     9     1   ar
    42     9     4    1
    43    16    11   ar
    44    24    20    1
    45    35    36    1
    46     5    10    1
