@<TRIPOS>MOLECULE
*****
 28 31 0 0 0
SMALL
GASTEIGER

@<TRIPOS>ATOM
      1 C           5.6557   -3.3404   18.6094 C.3     1  UNL1        0.0298
      2 C           5.3159   -2.9587   20.0197 C.3     1  UNL1        0.1343
      3 C           6.0425   -3.5981   21.1657 C.ar    1  UNL1        0.1615
      4 N           7.1320   -4.6278   21.2140 N.ar    1  UNL1       -0.1316
      5 N           7.4656   -4.8825   22.6541 N.ar    1  UNL1       -0.1268
      6 C           6.5821   -4.0101   23.4958 C.ar    1  UNL1        0.1917
      7 N           5.7026   -3.2163   22.5759 N.ar    1  UNL1       -0.2940
      8 C           4.6361   -2.1951   22.8402 C.3     1  UNL1        0.1302
      9 C           3.9095   -1.5557   21.6942 C.3     1  UNL1        0.1186
     10 N           4.2494   -1.9375   20.2841 N.am    1  UNL1       -0.2688
     11 C           3.5227   -1.2980   19.1380 C.2     1  UNL1        0.2494
     12 O           3.8626   -1.6798   17.7278 O.2     1  UNL1       -0.2699
     13 C           2.4563   -0.2769   19.4023 C.ar    1  UNL1        0.0537
     14 C           2.6375    1.1358   18.9318 C.ar    1  UNL1        0.0068
     15 C           1.5710    2.1570   19.1961 C.ar    1  UNL1        0.0298
     16 C           0.3233    1.7655   19.9308 C.ar    1  UNL1        0.1401
     17 F          -0.7432    2.7866   20.1952 F       1  UNL1       -0.2042
     18 C           0.1421    0.3527   20.4014 C.ar    1  UNL1        0.0298
     19 C           1.2085   -0.6685   20.1371 C.ar    1  UNL1        0.0068
     20 C           6.5789   -3.9433   24.9943 C.ar    1  UNL1        0.1655
     21 N           6.7558   -5.1031   25.9290 N.ar    1  UNL1       -0.2116
     22 C           6.6844   -4.5815   27.3336 C.ar    1  UNL1        0.2429
     23 N           6.4632   -3.0993   27.2670 N.ar    1  UNL1       -0.1848
     24 S           6.3980   -2.7050   25.8213 S.2     1  UNL1        0.0372
     25 C           6.8117   -5.3986   28.5850 C.3     1  UNL1        0.4529
     26 F           6.9390   -6.2157   29.8365 F       1  UNL1       -0.1631
     27 F           6.3359   -4.2301   29.3964 F       1  UNL1       -0.1631
     28 F           7.2875   -6.5671   27.7737 F       1  UNL1       -0.1631
@<TRIPOS>BOND
     1     2     1    1
     2     2     3    1
     3     3     4   ar
     4     4     5   ar
     5     5     6   ar
     6     6    20    1
     7    20    21   ar
     8    21    22   ar
     9    22    25    1
    10    25    26    1
    11    25    27    1
    12    25    28    1
    13    22    23   ar
    14    23    24   ar
    15     6     7   ar
    16     7     8    1
    17     8     9    1
    18     9    10    1
    19    10    11   am
    20    11    12    2
    21    11    13    1
    22    13    14   ar
    23    14    15   ar
    24    15    16   ar
    25    16    17    1
    26    16    18   ar
    27    18    19   ar
    28    10     2    1
    29    19    13   ar
    30     7     3   ar
    31    24    20   ar
@<TRIPOS>MOLECULE
*****
 28 31 0 0 0
SMALL
GASTEIGER

@<TRIPOS>ATOM
      1 C           2.1396    2.2772   33.9431 C.3     1  UNL1        0.0298
      2 C           2.7714    1.3310   32.9655 C.3     1  UNL1        0.1343
      3 C           3.9324    0.4805   33.3880 C.ar    1  UNL1        0.1615
      4 N           4.6654    0.3584   34.6910 N.ar    1  UNL1       -0.1316
      5 N           5.7501   -0.6632   34.5187 N.ar    1  UNL1       -0.1268
      6 C           5.6875   -1.1726   33.1092 C.ar    1  UNL1        0.1917
      7 N           4.5641   -0.4657   32.4104 N.ar    1  UNL1       -0.2940
      8 C           4.0347   -0.5613   31.0102 C.3     1  UNL1        0.1302
      9 C           2.8737    0.2892   30.5876 C.3     1  UNL1        0.1186
     10 N           2.2420    1.2353   31.5652 N.am    1  UNL1       -0.2688
     11 C           1.0809    2.0858   31.1426 C.2     1  UNL1        0.2494
     12 O           0.4492    3.0320   32.1202 O.2     1  UNL1       -0.2699
     13 C           0.5515    1.9902   29.7424 C.ar    1  UNL1        0.0537
     14 C          -0.4124    0.9003   29.3778 C.ar    1  UNL1        0.0068
     15 C          -0.9417    0.8046   27.9775 C.ar    1  UNL1        0.0298
     16 C          -0.5072    1.7989   26.9419 C.ar    1  UNL1        0.1401
     17 F          -1.0365    1.7033   25.5417 F       1  UNL1       -0.2042
     18 C           0.4568    2.8889   27.3065 C.ar    1  UNL1        0.0298
     19 C           0.9861    2.9845   28.7067 C.ar    1  UNL1        0.0068
     20 C           6.5899   -2.2071   32.5047 C.ar    1  UNL1        0.1655
     21 N           6.1570   -3.3729   31.6659 N.ar    1  UNL1       -0.2116
     22 C           7.3832   -4.1437   31.2756 C.ar    1  UNL1        0.2429
     23 N           8.5739   -3.4544   31.8732 N.ar    1  UNL1       -0.1848
     24 S           8.0835   -2.2574   32.6327 S.2     1  UNL1        0.0372
     25 C           7.4134   -5.3859   30.4353 C.3     1  UNL1        0.4529
     26 F           7.4436   -6.6281   29.5950 F       1  UNL1       -0.1631
     27 F           7.9303   -4.5883   29.2749 F       1  UNL1       -0.1631
     28 F           6.8965   -6.1835   31.5958 F       1  UNL1       -0.1631
@<TRIPOS>BOND
     1     2     1    1
     2     2     3    1
     3     3     4   ar
     4     4     5   ar
     5     5     6   ar
     6     6    20    1
     7    20    21   ar
     8    21    22   ar
     9    22    25    1
    10    25    26    1
    11    25    27    1
    12    25    28    1
    13    22    23   ar
    14    23    24   ar
    15     6     7   ar
    16     7     8    1
    17     8     9    1
    18     9    10    1
    19    10    11   am
    20    11    12    2
    21    11    13    1
    22    13    14   ar
    23    14    15   ar
    24    15    16   ar
    25    16    17    1
    26    16    18   ar
    27    18    19   ar
    28    10     2    1
    29    19    13   ar
    30     7     3   ar
    31    24    20   ar
@<TRIPOS>MOLECULE
*****
 28 31 0 0 0
SMALL
GASTEIGER

@<TRIPOS>ATOM
      1 C          -1.3692    3.4915   22.7538 C.3     1  UNL1        0.0298
      2 C          -0.2828    2.4741   22.9406 C.3     1  UNL1        0.1343
      3 C           0.3689    1.8446   21.7452 C.ar    1  UNL1        0.1615
      4 N           0.1523    2.0263   20.2720 N.ar    1  UNL1       -0.1316
      5 N           1.1049    1.1212   19.5485 N.ar    1  UNL1       -0.1268
      6 C           1.9101    0.3802   20.5744 C.ar    1  UNL1        0.1917
      7 N           1.4553    0.8273   21.9320 N.ar    1  UNL1       -0.2940
      8 C           1.8899    0.4395   23.3143 C.3     1  UNL1        0.1302
      9 C           1.2382    1.0690   24.5097 C.3     1  UNL1        0.1186
     10 N           0.1519    2.0863   24.3229 N.am    1  UNL1       -0.2688
     11 C          -0.4998    2.7158   25.5183 C.2     1  UNL1        0.2494
     12 O          -1.5861    3.7332   25.3315 O.2     1  UNL1       -0.2699
     13 C          -0.0651    2.3280   26.9006 C.ar    1  UNL1        0.0537
     14 C          -0.7680    1.2178   27.6240 C.ar    1  UNL1        0.0068
     15 C          -0.3333    0.8300   29.0063 C.ar    1  UNL1        0.0298
     16 C           0.8042    1.5524   29.6651 C.ar    1  UNL1        0.1401
     17 F           1.2389    1.1647   31.0474 F       1  UNL1       -0.2042
     18 C           1.5071    2.6628   28.9417 C.ar    1  UNL1        0.0298
     19 C           1.0724    3.0506   27.5594 C.ar    1  UNL1        0.0068
     20 C           2.9820   -0.6304   20.2922 C.ar    1  UNL1        0.1655
     21 N           2.7743   -1.9960   19.7072 N.ar    1  UNL1       -0.2116
     22 C           4.1138   -2.6624   19.5989 C.ar    1  UNL1        0.2429
     23 N           5.1493   -1.7088   20.1169 N.ar    1  UNL1       -0.1848
     24 S           4.4498   -0.4530   20.5454 S.2     1  UNL1        0.0372
     25 C           4.3723   -4.0406   19.0661 C.3     1  UNL1        0.4529
     26 F           4.6308   -5.4187   18.5333 F       1  UNL1       -0.1631
     27 F           5.8471   -3.8331   19.2449 F       1  UNL1       -0.1631
     28 F           2.8975   -4.2481   18.8873 F       1  UNL1       -0.1631
@<TRIPOS>BOND
     1     2     1    1
     2     2     3    1
     3     3     4   ar
     4     4     5   ar
     5     5     6   ar
     6     6    20    1
     7    20    21   ar
     8    21    22   ar
     9    22    25    1
    10    25    26    1
    11    25    27    1
    12    25    28    1
    13    22    23   ar
    14    23    24   ar
    15     6     7   ar
    16     7     8    1
    17     8     9    1
    18     9    10    1
    19    10    11   am
    20    11    12    2
    21    11    13    1
    22    13    14   ar
    23    14    15   ar
    24    15    16   ar
    25    16    17    1
    26    16    18   ar
    27    18    19   ar
    28    10     2    1
    29    19    13   ar
    30     7     3   ar
    31    24    20   ar
@<TRIPOS>MOLECULE
*****
 28 31 0 0 0
SMALL
GASTEIGER

@<TRIPOS>ATOM
      1 C           0.9890    1.6493   18.4001 C.3     1  UNL1        0.0298
      2 C           1.2250    1.2795   19.8346 C.3     1  UNL1        0.1343
      3 C           0.4475    1.9596   20.9222 C.ar    1  UNL1        0.1615
      4 N          -0.6089    3.0238   20.8857 N.ar    1  UNL1       -0.1316
      5 N          -1.0257    3.3118   22.2976 N.ar    1  UNL1       -0.1268
      6 C          -0.2269    2.4255   23.2067 C.ar    1  UNL1        0.1917
      7 N           0.6837    1.5898   22.3566 N.ar    1  UNL1       -0.2940
      8 C           1.6973    0.5399   22.7034 C.3     1  UNL1        0.1302
      9 C           2.4747   -0.1402   21.6158 C.3     1  UNL1        0.1186
     10 N           2.2387    0.2295   20.1815 N.am    1  UNL1       -0.2688
     11 C           3.0162   -0.4506   19.0938 C.2     1  UNL1        0.2494
     12 O           2.7801   -0.0808   17.6594 O.2     1  UNL1       -0.2699
     13 C           4.0298   -1.5005   19.4405 C.ar    1  UNL1        0.0537
     14 C           5.4559   -1.1113   19.6948 C.ar    1  UNL1        0.0068
     15 C           6.4695   -2.1613   20.0416 C.ar    1  UNL1        0.0298
     16 C           6.0570   -3.6004   20.1341 C.ar    1  UNL1        0.1401
     17 F           7.0705   -4.6504   20.4808 F       1  UNL1       -0.2042
     18 C           4.6308   -3.9897   19.8798 C.ar    1  UNL1        0.0298
     19 C           3.6172   -2.9397   19.5330 C.ar    1  UNL1        0.0068
     20 C          -0.3219    2.3825   24.7030 C.ar    1  UNL1        0.1655
     21 N          -0.2672    1.1491   25.5549 N.ar    1  UNL1       -0.2116
     22 C          -0.3998    1.5697   26.9886 C.ar    1  UNL1        0.2429
     23 N          -0.5365    3.0631   27.0228 N.ar    1  UNL1       -0.1848
     24 S          -0.4883    3.5654   25.6103 S.2     1  UNL1        0.0372
     25 C          -0.3964    0.6571   28.1791 C.3     1  UNL1        0.4529
     26 F          -0.3930   -0.2555   29.3695 F       1  UNL1       -0.1631
     27 F          -1.8444    0.9660   28.4200 F       1  UNL1       -0.1631
     28 F           1.0516    0.3483   27.9382 F       1  UNL1       -0.1631
@<TRIPOS>BOND
     1     2     1    1
     2     2     3    1
     3     3     4   ar
     4     4     5   ar
     5     5     6   ar
     6     6    20    1
     7    20    21   ar
     8    21    22   ar
     9    22    25    1
    10    25    26    1
    11    25    27    1
    12    25    28    1
    13    22    23   ar
    14    23    24   ar
    15     6     7   ar
    16     7     8    1
    17     8     9    1
    18     9    10    1
    19    10    11   am
    20    11    12    2
    21    11    13    1
    22    13    14   ar
    23    14    15   ar
    24    15    16   ar
    25    16    17    1
    26    16    18   ar
    27    18    19   ar
    28    10     2    1
    29    19    13   ar
    30     7     3   ar
    31    24    20   ar
@<TRIPOS>MOLECULE
*****
 28 31 0 0 0
SMALL
GASTEIGER

@<TRIPOS>ATOM
      1 C           2.2640    5.4889   17.5353 C.3     1  UNL1        0.0298
      2 C           1.8819    4.1098   17.9849 C.3     1  UNL1        0.1343
      3 C           2.9466    3.0972   18.2863 C.ar    1  UNL1        0.1615
      4 N           4.4439    3.1686   18.2315 N.ar    1  UNL1       -0.1316
      5 N           4.9871    1.8336   18.6472 N.ar    1  UNL1       -0.1268
      6 C           3.8255    0.9372   18.9589 C.ar    1  UNL1        0.1917
      7 N           2.5644    1.7181   18.7359 N.ar    1  UNL1       -0.2940
      8 C           1.1174    1.3517   18.8840 C.3     1  UNL1        0.1302
      9 C           0.0527    2.3643   18.5826 C.3     1  UNL1        0.1186
     10 N           0.4349    3.7433   18.1330 N.am    1  UNL1       -0.2688
     11 C          -0.6300    4.7560   17.8316 C.2     1  UNL1        0.2494
     12 O          -0.2478    6.1350   17.3820 O.2     1  UNL1       -0.2699
     13 C          -2.0770    4.3895   17.9797 C.ar    1  UNL1        0.0537
     14 C          -2.8844    4.0194   16.7710 C.ar    1  UNL1        0.0068
     15 C          -4.3315    3.6529   16.9193 C.ar    1  UNL1        0.0298
     16 C          -4.9709    3.6567   18.2760 C.ar    1  UNL1        0.1401
     17 F          -6.4179    3.2902   18.4243 F       1  UNL1       -0.2042
     18 C          -4.1634    4.0268   19.4848 C.ar    1  UNL1        0.0298
     19 C          -2.7164    4.3933   19.3367 C.ar    1  UNL1        0.0068
     20 C           3.9102   -0.4897   19.4138 C.ar    1  UNL1        0.1655
     21 N           4.2234   -1.6739   18.5482 N.ar    1  UNL1       -0.2116
     22 C           4.2033   -2.8989   19.4137 C.ar    1  UNL1        0.2429
     23 N           3.8776   -2.4718   20.8142 N.ar    1  UNL1       -0.1848
     24 S           3.6965   -0.9827   20.8143 S.2     1  UNL1        0.0372
     25 C           4.4633   -4.3044   18.9585 C.3     1  UNL1        0.4529
     26 F           4.7232   -5.7098   18.5033 F       1  UNL1       -0.1631
     27 F           2.9898   -4.5174   18.7750 F       1  UNL1       -0.1631
     28 F           5.9367   -4.0913   19.1420 F       1  UNL1       -0.1631
@<TRIPOS>BOND
     1     2     1    1
     2     2     3    1
     3     3     4   ar
     4     4     5   ar
     5     5     6   ar
     6     6    20    1
     7    20    21   ar
     8    21    22   ar
     9    22    25    1
    10    25    26    1
    11    25    27    1
    12    25    28    1
    13    22    23   ar
    14    23    24   ar
    15     6     7   ar
    16     7     8    1
    17     8     9    1
    18     9    10    1
    19    10    11   am
    20    11    12    2
    21    11    13    1
    22    13    14   ar
    23    14    15   ar
    24    15    16   ar
    25    16    17    1
    26    16    18   ar
    27    18    19   ar
    28    10     2    1
    29    19    13   ar
    30     7     3   ar
    31    24    20   ar
@<TRIPOS>MOLECULE
*****
 28 31 0 0 0
SMALL
GASTEIGER

@<TRIPOS>ATOM
      1 C           9.5050   -7.2966   24.8972 C.3     1  UNL1        0.0298
      2 C           8.5917   -6.1074   24.8550 C.3     1  UNL1        0.1343
      3 C           8.1195   -5.5708   23.5363 C.ar    1  UNL1        0.1615
      4 N           8.3847   -6.0019   22.1243 N.ar    1  UNL1       -0.1316
      5 N           7.6353   -5.0791   21.2094 N.ar    1  UNL1       -0.1268
      6 C           6.9069   -4.0778   22.0560 C.ar    1  UNL1        0.1917
      7 N           7.2062   -4.3816   23.4941 N.ar    1  UNL1       -0.2940
      8 C           6.7650   -3.7292   24.7707 C.3     1  UNL1        0.1302
      9 C           7.2372   -4.2658   26.0894 C.3     1  UNL1        0.1186
     10 N           8.1505   -5.4549   26.1316 N.am    1  UNL1       -0.2688
     11 C           8.6227   -5.9916   27.4504 C.2     1  UNL1        0.2494
     12 O           9.5360   -7.1807   27.4925 O.2     1  UNL1       -0.2699
     13 C           8.1815   -5.3391   28.7270 C.ar    1  UNL1        0.0537
     14 C           8.5759   -3.9219   29.0202 C.ar    1  UNL1        0.0068
     15 C           8.1347   -3.2695   30.2968 C.ar    1  UNL1        0.0298
     16 C           7.2992   -4.0342   31.2801 C.ar    1  UNL1        0.1401
     17 F           6.8579   -3.3818   32.5567 F       1  UNL1       -0.2042
     18 C           6.9047   -5.4514   30.9868 C.ar    1  UNL1        0.0298
     19 C           7.3459   -6.1039   29.7103 C.ar    1  UNL1        0.0068
     20 C           6.0327   -2.9675   21.5529 C.ar    1  UNL1        0.1655
     21 N           4.5704   -3.0715   21.2355 N.ar    1  UNL1       -0.2116
     22 C           4.1014   -1.7266   20.7652 C.ar    1  UNL1        0.2429
     23 N           5.2738   -0.7913   20.7919 N.ar    1  UNL1       -0.1848
     24 S           6.4674   -1.5583   21.2787 S.2     1  UNL1        0.0372
     25 C           2.7050   -1.3781   20.3424 C.3     1  UNL1        0.4529
     26 F           1.3087   -1.0296   19.9196 F       1  UNL1       -0.1631
     27 F           3.0605   -1.6825   18.9173 F       1  UNL1       -0.1631
     28 F           2.3495   -1.0736   21.7675 F       1  UNL1       -0.1631
@<TRIPOS>BOND
     1     2     1    1
     2     2     3    1
     3     3     4   ar
     4     4     5   ar
     5     5     6   ar
     6     6    20    1
     7    20    21   ar
     8    21    22   ar
     9    22    25    1
    10    25    26    1
    11    25    27    1
    12    25    28    1
    13    22    23   ar
    14    23    24   ar
    15     6     7   ar
    16     7     8    1
    17     8     9    1
    18     9    10    1
    19    10    11   am
    20    11    12    2
    21    11    13    1
    22    13    14   ar
    23    14    15   ar
    24    15    16   ar
    25    16    17    1
    26    16    18   ar
    27    18    19   ar
    28    10     2    1
    29    19    13   ar
    30     7     3   ar
    31    24    20   ar
@<TRIPOS>MOLECULE
*****
 28 31 0 0 0
SMALL
GASTEIGER

@<TRIPOS>ATOM
      1 C           9.3867   -8.0635   27.4755 C.3     1  UNL1        0.0298
      2 C           8.7372   -6.7914   27.0172 C.3     1  UNL1        0.1343
      3 C           8.4594   -6.5739   25.5593 C.ar    1  UNL1        0.1615
      4 N           8.7115   -7.4269   24.3514 N.ar    1  UNL1       -0.1316
      5 N           8.2179   -6.6818   23.1467 N.ar    1  UNL1       -0.1268
      6 C           7.6607   -5.3685   23.6101 C.ar    1  UNL1        0.1917
      7 N           7.8099   -5.3018   25.1011 N.ar    1  UNL1       -0.2940
      8 C           7.4384   -4.2471   26.1008 C.3     1  UNL1        0.1302
      9 C           7.7162   -4.4645   27.5588 C.3     1  UNL1        0.1186
     10 N           8.3656   -5.7365   28.0169 N.am    1  UNL1       -0.2688
     11 C           8.6435   -5.9539   29.4749 C.2     1  UNL1        0.2494
     12 O           9.2929   -7.2261   29.9331 O.2     1  UNL1       -0.2699
     13 C           8.2719   -4.8992   30.4747 C.ar    1  UNL1        0.0537
     14 C           9.2616   -3.8344   30.8444 C.ar    1  UNL1        0.0068
     15 C           8.8899   -2.7796   31.8441 C.ar    1  UNL1        0.0298
     16 C           7.5288   -2.7897   32.4741 C.ar    1  UNL1        0.1401
     17 F           7.1571   -1.7351   33.4739 F       1  UNL1       -0.2042
     18 C           6.5390   -3.8546   32.1044 C.ar    1  UNL1        0.0298
     19 C           6.9106   -4.9094   31.1046 C.ar    1  UNL1        0.0068
     20 C           7.0598   -4.3080   22.7358 C.ar    1  UNL1        0.1655
     21 N           5.6536   -4.2878   22.2142 N.ar    1  UNL1       -0.2116
     22 C           5.4843   -3.0488   21.3856 C.ar    1  UNL1        0.2429
     23 N           6.7860   -2.3034   21.3952 N.ar    1  UNL1       -0.1848
     24 S           7.7596   -3.0817   22.2296 S.2     1  UNL1        0.0372
     25 C           4.2331   -2.6291   20.6728 C.3     1  UNL1        0.4529
     26 F           2.9819   -2.2093   19.9599 F       1  UNL1       -0.1631
     27 F           4.8145   -3.1025   19.3736 F       1  UNL1       -0.1631
     28 F           3.6517   -2.1556   21.9719 F       1  UNL1       -0.1631
@<TRIPOS>BOND
     1     2     1    1
     2     2     3    1
     3     3     4   ar
     4     4     5   ar
     5     5     6   ar
     6     6    20    1
     7    20    21   ar
     8    21    22   ar
     9    22    25    1
    10    25    26    1
    11    25    27    1
    12    25    28    1
    13    22    23   ar
    14    23    24   ar
    15     6     7   ar
    16     7     8    1
    17     8     9    1
    18     9    10    1
    19    10    11   am
    20    11    12    2
    21    11    13    1
    22    13    14   ar
    23    14    15   ar
    24    15    16   ar
    25    16    17    1
    26    16    18   ar
    27    18    19   ar
    28    10     2    1
    29    19    13   ar
    30     7     3   ar
    31    24    20   ar
@<TRIPOS>MOLECULE
*****
 28 31 0 0 0
SMALL
GASTEIGER

@<TRIPOS>ATOM
      1 C           2.9261    2.7210   19.7558 C.3     1  UNL1        0.0298
      2 C           2.7936    1.7541   20.8950 C.3     1  UNL1        0.1343
      3 C           2.3076    2.2314   22.2314 C.ar    1  UNL1        0.1615
      4 N           1.8876    3.5854   22.7215 N.ar    1  UNL1       -0.1316
      5 N           1.4956    3.4553   24.1635 N.ar    1  UNL1       -0.1268
      6 C           1.6733    2.0208   24.5646 C.ar    1  UNL1        0.1917
      7 N           2.1752    1.2644   23.3704 N.ar    1  UNL1       -0.2940
      8 C           2.5287   -0.1799   23.1731 C.3     1  UNL1        0.1302
      9 C           3.0147   -0.6572   21.8367 C.3     1  UNL1        0.1186
     10 N           3.1471    0.3097   20.6977 N.am    1  UNL1       -0.2688
     11 C           3.6331   -0.1677   19.3612 C.2     1  UNL1        0.2494
     12 O           3.7656    0.7993   18.2222 O.2     1  UNL1       -0.2699
     13 C           3.9867   -1.6120   19.1639 C.ar    1  UNL1        0.0537
     14 C           5.3809   -1.9951   18.7646 C.ar    1  UNL1        0.0068
     15 C           5.7344   -3.4395   18.5672 C.ar    1  UNL1        0.0298
     16 C           4.6938   -4.5007   18.7692 C.ar    1  UNL1        0.1401
     17 F           5.0472   -5.9450   18.5719 F       1  UNL1       -0.2042
     18 C           3.2995   -4.1176   19.1686 C.ar    1  UNL1        0.0298
     19 C           2.9460   -2.6732   19.3659 C.ar    1  UNL1        0.0068
     20 C           1.3976    1.4441   25.9215 C.ar    1  UNL1        0.1655
     21 N           0.0536    1.3425   26.5798 N.ar    1  UNL1       -0.2116
     22 C           0.2428    0.7033   27.9236 C.ar    1  UNL1        0.2429
     23 N           1.7038    0.4099   28.0958 N.ar    1  UNL1       -0.1848
     24 S           2.4174    0.8677   26.8584 S.2     1  UNL1        0.0372
     25 C          -0.8389    0.4092   28.9202 C.3     1  UNL1        0.4529
     26 F          -1.9207    0.1150   29.9168 F       1  UNL1       -0.1631
     27 F          -1.2754   -0.7678   28.0991 F       1  UNL1       -0.1631
     28 F          -0.4025    1.5861   29.7413 F       1  UNL1       -0.1631
@<TRIPOS>BOND
     1     2     1    1
     2     2     3    1
     3     3     4   ar
     4     4     5   ar
     5     5     6   ar
     6     6    20    1
     7    20    21   ar
     8    21    22   ar
     9    22    25    1
    10    25    26    1
    11    25    27    1
    12    25    28    1
    13    22    23   ar
    14    23    24   ar
    15     6     7   ar
    16     7     8    1
    17     8     9    1
    18     9    10    1
    19    10    11   am
    20    11    12    2
    21    11    13    1
    22    13    14   ar
    23    14    15   ar
    24    15    16   ar
    25    16    17    1
    26    16    18   ar
    27    18    19   ar
    28    10     2    1
    29    19    13   ar
    30     7     3   ar
    31    24    20   ar
@<TRIPOS>MOLECULE
*****
 28 31 0 0 0
SMALL
GASTEIGER

@<TRIPOS>ATOM
      1 C           7.6741   -4.8740   24.7102 C.3     1  UNL1        0.0298
      2 C           6.6354   -3.7990   24.8357 C.3     1  UNL1        0.1343
      3 C           6.2666   -3.2666   26.1886 C.ar    1  UNL1        0.1615
      4 N           6.7530   -3.6043   27.5668 N.ar    1  UNL1       -0.1316
      5 N           6.0149   -2.7381   28.5440 N.ar    1  UNL1       -0.1268
      6 C           5.0724   -1.8650   27.7697 C.ar    1  UNL1        0.1917
      7 N           5.2280   -2.1916   26.3140 N.ar    1  UNL1       -0.2940
      8 C           4.5581   -1.6491   25.0865 C.3     1  UNL1        0.1302
      9 C           4.9269   -2.1816   23.7335 C.3     1  UNL1        0.1186
     10 N           5.9654   -3.2564   23.6081 N.am    1  UNL1       -0.2688
     11 C           6.3342   -3.7889   22.2550 C.2     1  UNL1        0.2494
     12 O           7.3729   -4.8638   22.1297 O.2     1  UNL1       -0.2699
     13 C           5.6643   -3.2464   21.0275 C.ar    1  UNL1        0.0537
     14 C           4.4040   -3.8807   20.5185 C.ar    1  UNL1        0.0068
     15 C           3.7341   -3.3382   19.2909 C.ar    1  UNL1        0.0298
     16 C           4.3245   -2.1614   18.5724 C.ar    1  UNL1        0.1401
     17 F           3.6547   -1.6188   17.3448 F       1  UNL1       -0.2042
     18 C           5.5850   -1.5270   19.0814 C.ar    1  UNL1        0.0298
     19 C           6.2549   -2.0695   20.3089 C.ar    1  UNL1        0.0068
     20 C           4.1383   -0.8445   28.3494 C.ar    1  UNL1        0.1655
     21 N           2.6416   -0.9378   28.3836 N.ar    1  UNL1       -0.2116
     22 C           2.1153    0.2976   29.0520 C.ar    1  UNL1        0.2429
     23 N           3.2867    1.1544   29.4311 N.ar    1  UNL1       -0.1848
     24 S           4.5370    0.4486   28.9968 S.2     1  UNL1        0.0372
     25 C           0.6711    0.6196   29.2982 C.3     1  UNL1        0.4529
     26 F          -0.7731    0.9415   29.5445 F       1  UNL1       -0.1631
     27 F           0.2796   -0.7247   28.7600 F       1  UNL1       -0.1631
     28 F           1.0626    1.9638   29.8365 F       1  UNL1       -0.1631
@<TRIPOS>BOND
     1     2     1    1
     2     2     3    1
     3     3     4   ar
     4     4     5   ar
     5     5     6   ar
     6     6    20    1
     7    20    21   ar
     8    21    22   ar
     9    22    25    1
    10    25    26    1
    11    25    27    1
    12    25    28    1
    13    22    23   ar
    14    23    24   ar
    15     6     7   ar
    16     7     8    1
    17     8     9    1
    18     9    10    1
    19    10    11   am
    20    11    12    2
    21    11    13    1
    22    13    14   ar
    23    14    15   ar
    24    15    16   ar
    25    16    17    1
    26    16    18   ar
    27    18    19   ar
    28    10     2    1
    29    19    13   ar
    30     7     3   ar
    31    24    20   ar
