@<TRIPOS>MOLECULE
*****
 28 29 0 0 0
SMALL
GASTEIGER

@<TRIPOS>ATOM
      1 C          -7.3472  -18.7339   21.5885 C.ar    1  UNL1        0.0312
      2 C          -6.3680  -18.3979   22.6739 C.ar    1  UNL1        0.0321
      3 C          -4.8946  -18.5077   22.4151 C.ar    1  UNL1        0.1446
      4 F          -3.9153  -18.1716   23.5006 F       1  UNL1       -0.2040
      5 C          -4.4004  -18.9535   21.0709 C.ar    1  UNL1        0.0845
      6 C          -5.3796  -19.2895   19.9855 C.ar    1  UNL1        0.0365
      7 C          -6.8530  -19.1797   20.2443 C.ar    1  UNL1        0.1404
      8 F          -7.8323  -19.5158   19.1588 F       1  UNL1       -0.2042
      9 C         -11.7675  -18.4045   22.3649 C.ar    1  UNL1        0.2357
     10 N         -10.9813  -19.5288   22.9712 N.ar    1  UNL1       -0.2094
     11 C          -9.5078  -19.6386   22.7124 C.ar    1  UNL1        0.1021
     12 C          -8.8207  -18.6241   21.8473 C.ar    1  UNL1        0.0225
     13 C          -9.6069  -17.4997   21.2411 C.ar    1  UNL1        0.0177
     14 C         -11.0803  -17.3899   21.4999 C.ar    1  UNL1        0.1107
     15 CL        -11.8665  -16.2655   20.8935 Cl      1  UNL1       -0.0774
     16 O         -13.2409  -18.2947   22.6238 O.3     1  UNL1       -0.4597
     17 C         -13.7350  -17.6453   23.8824 C.3     1  UNL1        0.2070
     18 C         -16.0358  -18.8316   24.1040 C.3     1  UNL1        0.0038
     19 C         -14.7652  -18.3343   24.7273 C.3     1  UNL1        0.0438
     20 C         -14.5250  -18.5259   26.1954 C.3     1  UNL1        0.0038
     21 C          -2.9270  -19.0633   20.8121 C.2     1  UNL1        0.2662
     22 O          -2.1968  -20.3270   21.1581 O.2     1  UNL1       -0.2685
     23 N          -2.1837  -17.9094   20.2072 N.am    1  UNL1       -0.1851
     24 H          -2.6629  -17.0799   19.9801 H       1  UNL1        0.1765
     25 S          -0.7103  -18.0192   19.9484 S.O2    1  UNL1        0.0581
     26 C           0.7631  -18.1290   19.6896 C.3     1  UNL1        0.1997
     27 O          -0.4445  -17.9256   21.4217 O.2     1  UNL1       -0.1543
     28 O          -0.9760  -18.1127   18.4751 O.2     1  UNL1       -0.1543
@<TRIPOS>BOND
     1    18    19    1
     2    19    20    1
     3    19    17    1
     4    17    16    1
     5    16     9    1
     6     9    10   ar
     7    10    11   ar
     8    11    12   ar
     9    12     1    1
    10     1     2   ar
    11     2     3   ar
    12     3     4    1
    13     3     5   ar
    14     5    21    1
    15    21    22    2
    16    21    23   am
    17    23    25    1
    18    25    26    1
    19    25    27    2
    20    25    28    2
    21     5     6   ar
    22     6     7   ar
    23     7     8    1
    24    12    13   ar
    25    13    14   ar
    26    14    15    1
    27    14     9   ar
    28     7     1   ar
    29    23    24    1
@<TRIPOS>MOLECULE
*****
 28 29 0 0 0
SMALL
GASTEIGER

@<TRIPOS>ATOM
      1 C          -7.2745  -18.8722   21.7393 C.ar    1  UNL1        0.0312
      2 C          -6.7395  -19.8445   20.7302 C.ar    1  UNL1        0.0321
      3 C          -5.2626  -19.9323   20.4830 C.ar    1  UNL1        0.1446
      4 F          -4.7275  -20.9047   19.4738 F       1  UNL1       -0.2040
      5 C          -4.3207  -19.0479   21.2450 C.ar    1  UNL1        0.0845
      6 C          -4.8558  -18.0756   22.2541 C.ar    1  UNL1        0.0365
      7 C          -6.3327  -17.9878   22.5012 C.ar    1  UNL1        0.1404
      8 F          -6.8677  -17.0155   23.5104 F       1  UNL1       -0.2042
      9 C         -11.7052  -18.6088   22.4807 C.ar    1  UNL1        0.2357
     10 N         -10.8595  -19.5297   23.3094 N.ar    1  UNL1       -0.2094
     11 C          -9.3826  -19.6175   23.0622 C.ar    1  UNL1        0.1021
     12 C          -8.7514  -18.7844   21.9864 C.ar    1  UNL1        0.0225
     13 C          -9.5970  -17.8635   21.1578 C.ar    1  UNL1        0.0177
     14 C         -11.0739  -17.7757   21.4049 C.ar    1  UNL1        0.1107
     15 CL        -11.9196  -16.8547   20.5762 Cl      1  UNL1       -0.0774
     16 O         -13.1821  -18.5210   22.7279 O.3     1  UNL1       -0.4597
     17 C         -13.7004  -17.7600   23.9120 C.3     1  UNL1        0.2070
     18 C         -14.5764  -18.4658   26.2539 C.3     1  UNL1        0.0038
     19 C         -14.7772  -18.3528   24.7717 C.3     1  UNL1        0.0438
     20 C         -16.0547  -18.8327   24.1492 C.3     1  UNL1        0.0038
     21 C          -2.8438  -19.1357   20.9978 C.2     1  UNL1        0.2662
     22 O          -2.0766  -20.3395   21.4585 O.2     1  UNL1       -0.2685
     23 N          -2.1342  -18.0198   20.2900 N.am    1  UNL1       -0.1851
     24 H          -2.6378  -17.2297   19.9876 H       1  UNL1        0.1765
     25 S          -0.6573  -18.1076   20.0429 S.O2    1  UNL1        0.0581
     26 C           0.8196  -18.1954   19.7957 C.3     1  UNL1        0.1997
     27 O          -0.4065  -18.0478   21.5205 O.2     1  UNL1       -0.1543
     28 O          -0.9081  -18.1674   18.5652 O.2     1  UNL1       -0.1543
@<TRIPOS>BOND
     1    18    19    1
     2    19    20    1
     3    19    17    1
     4    17    16    1
     5    16     9    1
     6     9    10   ar
     7    10    11   ar
     8    11    12   ar
     9    12     1    1
    10     1     2   ar
    11     2     3   ar
    12     3     4    1
    13     3     5   ar
    14     5    21    1
    15    21    22    2
    16    21    23   am
    17    23    25    1
    18    25    26    1
    19    25    27    2
    20    25    28    2
    21     5     6   ar
    22     6     7   ar
    23     7     8    1
    24    12    13   ar
    25    13    14   ar
    26    14    15    1
    27    14     9   ar
    28     7     1   ar
    29    23    24    1
@<TRIPOS>MOLECULE
*****
 28 29 0 0 0
SMALL
GASTEIGER

@<TRIPOS>ATOM
      1 C          -7.2246  -18.6244   22.3016 C.ar    1  UNL1        0.0312
      2 C          -8.2834  -19.6439   22.0023 C.ar    1  UNL1        0.0321
      3 C          -9.7185  -19.3523   22.3271 C.ar    1  UNL1        0.1446
      4 F         -10.7773  -20.3719   22.0278 F       1  UNL1       -0.2040
      5 C         -10.0948  -18.0412   22.9511 C.ar    1  UNL1        0.0845
      6 C          -9.0360  -17.0217   23.2503 C.ar    1  UNL1        0.0365
      7 C          -7.6009  -17.3133   22.9256 C.ar    1  UNL1        0.1404
      8 F          -6.5421  -16.2937   23.2248 F       1  UNL1       -0.2042
      9 C          -2.9193  -19.4992   21.3273 C.ar    1  UNL1        0.2357
     10 N          -4.0131  -20.0881   20.4867 N.ar    1  UNL1       -0.2094
     11 C          -5.4482  -19.7965   20.8114 C.ar    1  UNL1        0.1021
     12 C          -5.7895  -18.9160   21.9768 C.ar    1  UNL1        0.0225
     13 C          -4.6957  -18.3271   22.8175 C.ar    1  UNL1        0.0177
     14 C          -3.2606  -18.6187   22.4927 C.ar    1  UNL1        0.1107
     15 CL         -2.1668  -18.0297   23.3335 Cl      1  UNL1       -0.0774
     16 O          -1.4842  -19.7908   21.0026 O.3     1  UNL1       -0.4597
     17 C          -0.7013  -18.8410   20.1452 C.3     1  UNL1        0.2070
     18 C          -2.1557  -17.4766   18.4799 C.3     1  UNL1        0.0038
     19 C          -1.3115  -17.5389   19.7183 C.3     1  UNL1        0.0438
     20 C          -1.0775  -16.2992   20.5297 C.3     1  UNL1        0.0038
     21 C         -11.5299  -17.7496   23.2758 C.2     1  UNL1        0.2662
     22 O         -12.1467  -16.4509   22.8482 O.2     1  UNL1       -0.2685
     23 N         -12.3482  -18.7567   24.0282 N.am    1  UNL1       -0.1851
     24 H         -11.9434  -19.6091   24.3088 H       1  UNL1        0.1765
     25 S         -13.7833  -18.4651   24.3529 S.O2    1  UNL1        0.0581
     26 C         -15.2184  -18.1735   24.6777 C.3     1  UNL1        0.1997
     27 O         -13.4882  -18.6391   25.8133 O.2     1  UNL1       -0.1543
     28 O         -14.0784  -18.2911   22.8926 O.2     1  UNL1       -0.1543
@<TRIPOS>BOND
     1    18    19    1
     2    19    20    1
     3    19    17    1
     4    17    16    1
     5    16     9    1
     6     9    10   ar
     7    10    11   ar
     8    11    12   ar
     9    12     1    1
    10     1     2   ar
    11     2     3   ar
    12     3     4    1
    13     3     5   ar
    14     5    21    1
    15    21    22    2
    16    21    23   am
    17    23    25    1
    18    25    26    1
    19    25    27    2
    20    25    28    2
    21     5     6   ar
    22     6     7   ar
    23     7     8    1
    24    12    13   ar
    25    13    14   ar
    26    14    15    1
    27    14     9   ar
    28     7     1   ar
    29    23    24    1
@<TRIPOS>MOLECULE
*****
 28 29 0 0 0
SMALL
GASTEIGER

@<TRIPOS>ATOM
      1 C          -7.3049  -18.6405   22.3769 C.ar    1  UNL1        0.0312
      2 C          -7.8658  -17.2669   22.1570 C.ar    1  UNL1        0.0321
      3 C          -9.3066  -16.9868   22.4662 C.ar    1  UNL1        0.1446
      4 F          -9.8676  -15.6131   22.2463 F       1  UNL1       -0.2040
      5 C         -10.1865  -18.0804   22.9953 C.ar    1  UNL1        0.0845
      6 C          -9.6255  -19.4540   23.2152 C.ar    1  UNL1        0.0365
      7 C          -8.1847  -19.7341   22.9060 C.ar    1  UNL1        0.1404
      8 F          -7.6238  -21.1078   23.1260 F       1  UNL1       -0.2042
      9 C          -2.9824  -19.4808   21.4494 C.ar    1  UNL1        0.2357
     10 N          -3.3442  -18.6259   22.6275 N.ar    1  UNL1       -0.2094
     11 C          -4.7850  -18.3458   22.9367 C.ar    1  UNL1        0.1021
     12 C          -5.8640  -18.9206   22.0677 C.ar    1  UNL1        0.0225
     13 C          -5.5023  -19.7755   20.8896 C.ar    1  UNL1        0.0177
     14 C          -4.0615  -20.0556   20.5804 C.ar    1  UNL1        0.1107
     15 CL         -3.6997  -20.9106   19.4021 Cl      1  UNL1       -0.0774
     16 O          -1.5416  -19.7609   21.1402 O.3     1  UNL1       -0.4597
     17 C          -0.7722  -18.8335   20.2470 C.3     1  UNL1        0.2070
     18 C          -1.2867  -16.3204   20.6588 C.3     1  UNL1        0.0038
     19 C          -1.3894  -17.5430   19.7957 C.3     1  UNL1        0.0438
     20 C          -2.1093  -17.4750   18.4816 C.3     1  UNL1        0.0038
     21 C         -11.6273  -17.8003   23.3045 C.2     1  UNL1        0.2662
     22 O         -12.2725  -16.5442   22.7987 O.2     1  UNL1       -0.2685
     23 N         -12.4229  -18.7762   24.1196 N.am    1  UNL1       -0.1851
     24 H         -11.9995  -19.6007   24.4516 H       1  UNL1        0.1765
     25 S         -13.8637  -18.4962   24.4288 S.O2    1  UNL1        0.0581
     26 C         -15.3046  -18.2161   24.7380 C.3     1  UNL1        0.1997
     27 O         -13.5890  -18.6959   25.8898 O.2     1  UNL1       -0.1543
     28 O         -14.1384  -18.2964   22.9678 O.2     1  UNL1       -0.1543
@<TRIPOS>BOND
     1    18    19    1
     2    19    20    1
     3    19    17    1
     4    17    16    1
     5    16     9    1
     6     9    10   ar
     7    10    11   ar
     8    11    12   ar
     9    12     1    1
    10     1     2   ar
    11     2     3   ar
    12     3     4    1
    13     3     5   ar
    14     5    21    1
    15    21    22    2
    16    21    23   am
    17    23    25    1
    18    25    26    1
    19    25    27    2
    20    25    28    2
    21     5     6   ar
    22     6     7   ar
    23     7     8    1
    24    12    13   ar
    25    13    14   ar
    26    14    15    1
    27    14     9   ar
    28     7     1   ar
    29    23    24    1
@<TRIPOS>MOLECULE
*****
 28 29 0 0 0
SMALL
GASTEIGER

@<TRIPOS>ATOM
      1 C          -6.5748  -18.4313   22.6836 C.ar    1  UNL1        0.0312
      2 C          -5.9636  -19.4292   21.7452 C.ar    1  UNL1        0.0321
      3 C          -4.5006  -19.3567   21.4221 C.ar    1  UNL1        0.1446
      4 F          -3.8894  -20.3547   20.4836 F       1  UNL1       -0.2040
      5 C          -3.6488  -18.2863   22.0373 C.ar    1  UNL1        0.0845
      6 C          -4.2600  -17.2884   22.9757 C.ar    1  UNL1        0.0365
      7 C          -5.7230  -17.3609   23.2988 C.ar    1  UNL1        0.1404
      8 F          -6.3341  -16.3629   24.2373 F       1  UNL1       -0.2042
      9 C         -10.9637  -18.6488   23.6529 C.ar    1  UNL1        0.2357
     10 N         -10.0743  -17.7072   24.4094 N.ar    1  UNL1       -0.2094
     11 C          -8.6114  -17.6347   24.0863 C.ar    1  UNL1        0.1021
     12 C          -8.0378  -18.5038   23.0067 C.ar    1  UNL1        0.0225
     13 C          -8.9272  -19.4453   22.2502 C.ar    1  UNL1        0.0177
     14 C         -10.3901  -19.5178   22.5733 C.ar    1  UNL1        0.1107
     15 CL        -11.2796  -20.4595   21.8167 Cl      1  UNL1       -0.0774
     16 O         -12.4267  -18.7213   23.9760 O.3     1  UNL1       -0.4597
     17 C         -13.3970  -17.8246   23.2658 C.3     1  UNL1        0.2070
     18 C         -12.4898  -15.4413   22.7689 C.3     1  UNL1        0.0038
     19 C         -12.8966  -16.8028   22.2883 C.3     1  UNL1        0.0438
     20 C         -12.8031  -17.1424   20.8303 C.3     1  UNL1        0.0038
     21 C          -2.1858  -18.2138   21.7142 C.2     1  UNL1        0.2662
     22 O          -1.1755  -18.7432   22.6883 O.2     1  UNL1       -0.2685
     23 N          -1.7332  -17.6118   20.4170 N.am    1  UNL1       -0.1851
     24 H          -2.3963  -17.2643   19.7777 H       1  UNL1        0.1765
     25 S          -0.2702  -17.5393   20.0939 S.O2    1  UNL1        0.0581
     26 C           1.1928  -17.4668   19.7708 C.3     1  UNL1        0.1997
     27 O          -0.2819  -18.9907   19.7150 O.2     1  UNL1       -0.1543
     28 O          -0.2584  -16.0880   20.4727 O.2     1  UNL1       -0.1543
@<TRIPOS>BOND
     1    18    19    1
     2    19    20    1
     3    19    17    1
     4    17    16    1
     5    16     9    1
     6     9    10   ar
     7    10    11   ar
     8    11    12   ar
     9    12     1    1
    10     1     2   ar
    11     2     3   ar
    12     3     4    1
    13     3     5   ar
    14     5    21    1
    15    21    22    2
    16    21    23   am
    17    23    25    1
    18    25    26    1
    19    25    27    2
    20    25    28    2
    21     5     6   ar
    22     6     7   ar
    23     7     8    1
    24    12    13   ar
    25    13    14   ar
    26    14    15    1
    27    14     9   ar
    28     7     1   ar
    29    23    24    1
@<TRIPOS>MOLECULE
*****
 28 29 0 0 0
SMALL
GASTEIGER

@<TRIPOS>ATOM
      1 C           6.4357   -3.4361   23.0527 C.ar    1  UNL1        0.0312
      2 C           5.8360   -2.6664   24.1920 C.ar    1  UNL1        0.0321
      3 C           6.2305   -2.9864   25.6033 C.ar    1  UNL1        0.1446
      4 F           5.6308   -2.2167   26.7426 F       1  UNL1       -0.2040
      5 C           7.2248   -4.0760   25.8755 C.ar    1  UNL1        0.0845
      6 C           7.8245   -4.8457   24.7362 C.ar    1  UNL1        0.0365
      7 C           7.4300   -4.5257   23.3249 C.ar    1  UNL1        0.1404
      8 F           8.0298   -5.2955   22.1856 F       1  UNL1       -0.2042
      9 C           5.2520   -2.4762   18.8186 C.ar    1  UNL1        0.2357
     10 N           6.4530   -1.8170   19.4295 N.ar    1  UNL1       -0.2094
     11 C           6.8475   -2.1370   20.8408 C.ar    1  UNL1        0.1021
     12 C           6.0411   -3.1162   21.6414 C.ar    1  UNL1        0.0225
     13 C           4.8402   -3.7754   21.0305 C.ar    1  UNL1        0.0177
     14 C           4.4457   -3.4554   19.6192 C.ar    1  UNL1        0.1107
     15 CL          3.2447   -4.1147   19.0083 Cl      1  UNL1       -0.0774
     16 O           4.8575   -2.1563   17.4073 O.3     1  UNL1       -0.4597
     17 C           3.9190   -1.0195   17.1302 C.3     1  UNL1        0.2070
     18 C           2.4408   -0.2654   19.1293 C.3     1  UNL1        0.0038
     19 C           3.6024   -0.0280   18.2104 C.3     1  UNL1        0.0438
     20 C           4.4473    1.2008   18.3717 C.3     1  UNL1        0.0038
     21 C           7.6194   -4.3960   27.2868 C.2     1  UNL1        0.2662
     22 O           8.9821   -4.0198   27.7883 O.2     1  UNL1       -0.2685
     23 N           6.6512   -5.0921   28.1968 N.am    1  UNL1       -0.1851
     24 H           5.7568   -5.3390   27.8677 H       1  UNL1        0.1765
     25 S           7.0458   -5.4121   29.6081 S.O2    1  UNL1        0.0581
     26 C           7.4403   -5.7320   31.0195 C.3     1  UNL1        0.1997
     27 O           6.4210   -4.1302   30.0734 O.2     1  UNL1       -0.1543
     28 O           7.6705   -6.6939   29.1429 O.2     1  UNL1       -0.1543
@<TRIPOS>BOND
     1    18    19    1
     2    19    20    1
     3    19    17    1
     4    17    16    1
     5    16     9    1
     6     9    10   ar
     7    10    11   ar
     8    11    12   ar
     9    12     1    1
    10     1     2   ar
    11     2     3   ar
    12     3     4    1
    13     3     5   ar
    14     5    21    1
    15    21    22    2
    16    21    23   am
    17    23    25    1
    18    25    26    1
    19    25    27    2
    20    25    28    2
    21     5     6   ar
    22     6     7   ar
    23     7     8    1
    24    12    13   ar
    25    13    14   ar
    26    14    15    1
    27    14     9   ar
    28     7     1   ar
    29    23    24    1
@<TRIPOS>MOLECULE
*****
 28 29 0 0 0
SMALL
GASTEIGER

@<TRIPOS>ATOM
      1 C           1.8711    0.8825   19.5007 C.ar    1  UNL1        0.0312
      2 C           1.1451    1.7871   18.5496 C.ar    1  UNL1        0.0321
      3 C          -0.0629    2.5469   19.0115 C.ar    1  UNL1        0.1446
      4 F          -0.7889    3.4515   18.0603 F       1  UNL1       -0.2040
      5 C          -0.5449    2.4022   20.4245 C.ar    1  UNL1        0.0845
      6 C           0.1811    1.4976   21.3756 C.ar    1  UNL1        0.0365
      7 C           1.3891    0.7378   20.9137 C.ar    1  UNL1        0.1404
      8 F           2.1150   -0.1669   21.8649 F       1  UNL1       -0.2042
      9 C           5.4951   -1.3971   18.1150 C.ar    1  UNL1        0.2357
     10 N           5.4796    0.1012   18.0452 N.ar    1  UNL1       -0.2094
     11 C           4.2716    0.8610   18.5071 C.ar    1  UNL1        0.1021
     12 C           3.0791    0.1226   19.0388 C.ar    1  UNL1        0.0225
     13 C           3.0946   -1.3756   19.1085 C.ar    1  UNL1        0.0177
     14 C           4.3026   -2.1355   18.6466 C.ar    1  UNL1        0.1107
     15 CL          4.3181   -3.6338   18.7163 Cl      1  UNL1       -0.0774
     16 O           6.7031   -2.1569   17.6531 O.3     1  UNL1       -0.4597
     17 C           7.8926   -2.2954   18.5563 C.3     1  UNL1        0.2070
     18 C           7.3442   -3.7743   20.6208 C.3     1  UNL1        0.0038
     19 C           7.6977   -2.4386   20.0366 C.3     1  UNL1        0.0438
     20 C           7.8562   -1.2463   20.9328 C.3     1  UNL1        0.0038
     21 C          -1.7529    3.1621   20.8864 C.2     1  UNL1        0.2662
     22 O          -1.6041    4.2736   21.8825 O.2     1  UNL1       -0.2685
     23 N          -3.1097    2.8103   20.3522 N.am    1  UNL1       -0.1851
     24 H          -3.2074    2.0808   19.6984 H       1  UNL1        0.1765
     25 S          -4.3177    3.5702   20.8141 S.O2    1  UNL1        0.0581
     26 C          -5.5257    4.3300   21.2760 C.3     1  UNL1        0.1997
     27 O          -4.5583    2.5407   21.8782 O.2     1  UNL1       -0.1543
     28 O          -4.0770    4.5996   19.7500 O.2     1  UNL1       -0.1543
@<TRIPOS>BOND
     1    18    19    1
     2    19    20    1
     3    19    17    1
     4    17    16    1
     5    16     9    1
     6     9    10   ar
     7    10    11   ar
     8    11    12   ar
     9    12     1    1
    10     1     2   ar
    11     2     3   ar
    12     3     4    1
    13     3     5   ar
    14     5    21    1
    15    21    22    2
    16    21    23   am
    17    23    25    1
    18    25    26    1
    19    25    27    2
    20    25    28    2
    21     5     6   ar
    22     6     7   ar
    23     7     8    1
    24    12    13   ar
    25    13    14   ar
    26    14    15    1
    27    14     9   ar
    28     7     1   ar
    29    23    24    1
@<TRIPOS>MOLECULE
*****
 28 29 0 0 0
SMALL
GASTEIGER

@<TRIPOS>ATOM
      1 C           6.3587   -3.4499   23.0453 C.ar    1  UNL1        0.0312
      2 C           7.2521   -4.6227   23.3213 C.ar    1  UNL1        0.0321
      3 C           7.6601   -4.9398   24.7295 C.ar    1  UNL1        0.1446
      4 F           8.5536   -6.1127   25.0054 F       1  UNL1       -0.2040
      5 C           7.1746   -4.0841   25.8617 C.ar    1  UNL1        0.0845
      6 C           6.2812   -2.9113   25.5858 C.ar    1  UNL1        0.0365
      7 C           5.8732   -2.5942   24.1776 C.ar    1  UNL1        0.1404
      8 F           4.9797   -1.4213   23.9017 F       1  UNL1       -0.2042
      9 C           5.1349   -2.4985   18.8207 C.ar    1  UNL1        0.2357
     10 N           6.3311   -1.8246   19.4249 N.ar    1  UNL1       -0.2094
     11 C           6.7390   -2.1418   20.8330 C.ar    1  UNL1        0.1021
     12 C           5.9508   -3.1327   21.6371 C.ar    1  UNL1        0.0225
     13 C           4.7545   -3.8066   21.0330 C.ar    1  UNL1        0.0177
     14 C           4.3466   -3.4894   19.6248 C.ar    1  UNL1        0.1107
     15 CL          3.1503   -4.1633   19.0207 Cl      1  UNL1       -0.0774
     16 O           4.7269   -2.1813   17.4126 O.3     1  UNL1       -0.4597
     17 C           3.9977   -0.9054   17.1122 C.3     1  UNL1        0.2070
     18 C           2.4238   -0.2642   19.0774 C.3     1  UNL1        0.0038
     19 C           3.6253    0.0260   18.2275 C.3     1  UNL1        0.0438
     20 C           4.4544    1.2475   18.4930 C.3     1  UNL1        0.0038
     21 C           7.5825   -4.4012   27.2699 C.2     1  UNL1        0.2662
     22 O           8.9629   -4.0583   27.7461 O.2     1  UNL1       -0.2685
     23 N           6.6101   -5.0613   28.2019 N.am    1  UNL1       -0.1851
     24 H           5.7041   -5.2864   27.8893 H       1  UNL1        0.1765
     25 S           7.0181   -5.3784   29.6101 S.O2    1  UNL1        0.0581
     26 C           7.4260   -5.6956   31.0183 C.3     1  UNL1        0.1997
     27 O           6.3973   -4.0959   30.0787 O.2     1  UNL1       -0.1543
     28 O           7.6388   -6.6610   29.1414 O.2     1  UNL1       -0.1543
@<TRIPOS>BOND
     1    18    19    1
     2    19    20    1
     3    19    17    1
     4    17    16    1
     5    16     9    1
     6     9    10   ar
     7    10    11   ar
     8    11    12   ar
     9    12     1    1
    10     1     2   ar
    11     2     3   ar
    12     3     4    1
    13     3     5   ar
    14     5    21    1
    15    21    22    2
    16    21    23   am
    17    23    25    1
    18    25    26    1
    19    25    27    2
    20    25    28    2
    21     5     6   ar
    22     6     7   ar
    23     7     8    1
    24    12    13   ar
    25    13    14   ar
    26    14    15    1
    27    14     9   ar
    28     7     1   ar
    29    23    24    1
@<TRIPOS>MOLECULE
*****
 28 29 0 0 0
SMALL
GASTEIGER

@<TRIPOS>ATOM
      1 C           2.4217   -0.4055   20.6273 C.ar    1  UNL1        0.0312
      2 C           1.8899    0.1446   19.3372 C.ar    1  UNL1        0.0321
      3 C           0.8148    1.1904   19.3543 C.ar    1  UNL1        0.1446
      4 F           0.2830    1.7405   18.0640 F       1  UNL1       -0.2040
      5 C           0.2715    1.6862   20.6615 C.ar    1  UNL1        0.0845
      6 C           0.8033    1.1362   21.9517 C.ar    1  UNL1        0.0365
      7 C           1.8784    0.0903   21.9346 C.ar    1  UNL1        0.1404
      8 F           2.4102   -0.4598   23.2249 F       1  UNL1       -0.2042
      9 C           5.6471   -3.5431   20.5761 C.ar    1  UNL1        0.2357
     10 N           5.7918   -2.3330   21.4505 N.ar    1  UNL1       -0.2094
     11 C           4.7167   -1.2871   21.4675 C.ar    1  UNL1        0.1021
     12 C           3.4968   -1.4514   20.6103 C.ar    1  UNL1        0.0225
     13 C           3.3521   -2.6615   19.7359 C.ar    1  UNL1        0.0177
     14 C           4.4273   -3.7074   19.7188 C.ar    1  UNL1        0.1107
     15 CL          4.2825   -4.9175   18.8443 Cl      1  UNL1       -0.0774
     16 O           6.7222   -4.5890   20.5590 O.3     1  UNL1       -0.4597
     17 C           7.9554   -4.4106   21.3940 C.3     1  UNL1        0.2070
     18 C           7.3525   -4.6057   23.9136 C.3     1  UNL1        0.0038
     19 C           8.0807   -5.1225   22.7083 C.3     1  UNL1        0.0438
     20 C           8.9341   -6.3512   22.8174 C.3     1  UNL1        0.0038
     21 C          -0.8036    2.7321   20.6786 C.2     1  UNL1        0.2662
     22 O          -0.4581    4.1578   20.9914 O.2     1  UNL1       -0.2685
     23 N          -2.2242    2.3522   20.3830 N.am    1  UNL1       -0.1851
     24 H          -2.4510    1.4165   20.1777 H       1  UNL1        0.1765
     25 S          -3.2993    3.3981   20.4001 S.O2    1  UNL1        0.0581
     26 C          -4.3745    4.4440   20.4172 C.3     1  UNL1        0.1997
     27 O          -2.9689    3.7610   18.9826 O.2     1  UNL1       -0.1543
     28 O          -3.6298    3.0353   21.8175 O.2     1  UNL1       -0.1543
@<TRIPOS>BOND
     1    18    19    1
     2    19    20    1
     3    19    17    1
     4    17    16    1
     5    16     9    1
     6     9    10   ar
     7    10    11   ar
     8    11    12   ar
     9    12     1    1
    10     1     2   ar
    11     2     3   ar
    12     3     4    1
    13     3     5   ar
    14     5    21    1
    15    21    22    2
    16    21    23   am
    17    23    25    1
    18    25    26    1
    19    25    27    2
    20    25    28    2
    21     5     6   ar
    22     6     7   ar
    23     7     8    1
    24    12    13   ar
    25    13    14   ar
    26    14    15    1
    27    14     9   ar
    28     7     1   ar
    29    23    24    1
