@<TRIPOS>MOLECULE
*****
 16 18 0 0 0
SMALL
GASTEIGER

@<TRIPOS>ATOM
      1 O          -9.1167  -18.5031   19.8484 O.3     1  UNL1       -0.4724
      2 CL        -11.7485  -18.7104   24.3239 Cl      1  UNL1       -0.0805
      3 C         -11.6521  -18.2718   22.8927 C.ar    1  UNL1        0.0798
      4 C         -12.7753  -17.4983   22.2681 C.ar    1  UNL1        0.1104
      5 N         -12.6789  -17.0597   20.8369 N.ar    1  UNL1       -0.2383
      6 C         -11.4594  -17.3946   20.0303 C.ar    1  UNL1        0.1357
      7 C         -10.3363  -18.1681   20.6549 C.ar    1  UNL1        0.1585
      8 C         -10.4326  -18.6067   22.0862 C.ar    1  UNL1        0.0515
      9 C          -8.3345  -19.7462   20.1525 C.3     1  UNL1        0.2210
     10 C          -6.8354  -19.7199   20.1040 C.3     1  UNL1        0.0983
     11 C          -5.9245  -20.8841   20.3585 C.3     1  UNL1        0.0209
     12 C          -4.5102  -20.4084   20.2043 C.3     1  UNL1        0.0172
     13 C          -3.2306  -19.6565   19.9873 C.3     1  UNL1        0.0171
     14 C          -4.5472  -18.9502   19.8544 C.3     1  UNL1        0.0541
     15 N          -5.9843  -18.5247   19.7925 N.3     1  UNL1       -0.2966
     16 H          -6.2027  -18.1782   18.8583 H       1  UNL1        0.1233
@<TRIPOS>BOND
     1     2     3    1
     2     3     4   ar
     3     4     5   ar
     4     5     6   ar
     5     6     7   ar
     6     7     1    1
     7     1     9    1
     8    10     9    1
     9    10    11    1
    10    12    11    1
    11    12    13    1
    12    14    13    1
    13    14    15    1
    14     7     8   ar
    15     8     3   ar
    16    15    10    1
    17    14    12    1
    18    15    16    1
@<TRIPOS>MOLECULE
*****
 16 18 0 0 0
SMALL
GASTEIGER

@<TRIPOS>ATOM
      1 O          -7.9910  -15.6055   22.3851 O.3     1  UNL1       -0.4724
      2 CL         -8.3635  -15.7328   27.5664 Cl      1  UNL1       -0.0805
      3 C          -7.5342  -15.5692   26.3272 C.ar    1  UNL1        0.0798
      4 C          -6.0619  -15.3057   26.4395 C.ar    1  UNL1        0.1104
      5 N          -5.2325  -15.1421   25.2004 N.ar    1  UNL1       -0.2383
      6 C          -5.8756  -15.2420   23.8490 C.ar    1  UNL1        0.1357
      7 C          -7.3479  -15.5055   23.7366 C.ar    1  UNL1        0.1585
      8 C          -8.1773  -15.6691   24.9758 C.ar    1  UNL1        0.0515
      9 C          -8.6730  -16.8757   21.9712 C.3     1  UNL1        0.2210
     10 C         -10.0706  -17.1622   22.4349 C.3     1  UNL1        0.0983
     11 C         -11.2927  -16.3599   22.0990 C.3     1  UNL1        0.0209
     12 C         -12.4688  -17.0031   22.7724 C.3     1  UNL1        0.0172
     13 C         -13.4313  -17.8510   23.5499 C.3     1  UNL1        0.0171
     14 C         -11.9733  -18.2028   23.5244 C.3     1  UNL1        0.0541
     15 N         -10.4912  -18.3010   23.3158 N.3     1  UNL1       -0.2966
     16 H         -10.2628  -19.1882   22.8672 H       1  UNL1        0.1233
@<TRIPOS>BOND
     1     2     3    1
     2     3     4   ar
     3     4     5   ar
     4     5     6   ar
     5     6     7   ar
     6     7     1    1
     7     1     9    1
     8    10     9    1
     9    10    11    1
    10    12    11    1
    11    12    13    1
    12    14    13    1
    13    14    15    1
    14     7     8   ar
    15     8     3   ar
    16    15    10    1
    17    14    12    1
    18    15    16    1
@<TRIPOS>MOLECULE
*****
 16 18 0 0 0
SMALL
GASTEIGER

@<TRIPOS>ATOM
      1 O          -8.5782  -16.4314   21.6543 O.3     1  UNL1       -0.4724
      2 CL        -12.7015  -18.4135   24.1180 Cl      1  UNL1       -0.0805
      3 C         -12.0988  -17.7703   22.9043 C.ar    1  UNL1        0.0798
      4 C         -12.9552  -17.4750   21.7087 C.ar    1  UNL1        0.1104
      5 N         -12.3526  -16.8318   20.4950 N.ar    1  UNL1       -0.2383
      6 C         -10.8936  -16.4839   20.4768 C.ar    1  UNL1        0.1357
      7 C         -10.0373  -16.7793   21.6724 C.ar    1  UNL1        0.1585
      8 C         -10.6399  -17.4225   22.8861 C.ar    1  UNL1        0.0515
      9 C          -8.0952  -15.1876   22.3395 C.3     1  UNL1        0.2210
     10 C          -7.6338  -15.2480   23.7656 C.3     1  UNL1        0.0983
     11 C          -8.4722  -15.6346   24.9478 C.3     1  UNL1        0.0209
     12 C          -7.6095  -15.5579   26.1727 C.3     1  UNL1        0.0172
     13 C          -6.5243  -15.3932   27.1950 C.3     1  UNL1        0.0171
     14 C          -6.2381  -15.1239   25.7473 C.3     1  UNL1        0.0541
     15 N          -6.2531  -14.9324   24.2597 N.3     1  UNL1       -0.2966
     16 H          -5.5775  -15.5595   23.8231 H       1  UNL1        0.1233
@<TRIPOS>BOND
     1     2     3    1
     2     3     4   ar
     3     4     5   ar
     4     5     6   ar
     5     6     7   ar
     6     7     1    1
     7     1     9    1
     8    10     9    1
     9    10    11    1
    10    12    11    1
    11    12    13    1
    12    14    13    1
    13    14    15    1
    14     7     8   ar
    15     8     3   ar
    16    15    10    1
    17    14    12    1
    18    15    16    1
@<TRIPOS>MOLECULE
*****
 16 18 0 0 0
SMALL
GASTEIGER

@<TRIPOS>ATOM
      1 O          -7.7714  -16.3405   22.3819 O.3     1  UNL1       -0.4724
      2 CL         -8.3491  -15.8187   27.5194 Cl      1  UNL1       -0.0805
      3 C          -7.5038  -15.6872   26.2872 C.ar    1  UNL1        0.0798
      4 C          -6.1023  -15.1632   26.3916 C.ar    1  UNL1        0.1104
      5 N          -5.2571  -15.0316   25.1594 N.ar    1  UNL1       -0.2383
      6 C          -5.8134  -15.4241   23.8228 C.ar    1  UNL1        0.1357
      7 C          -7.2150  -15.9481   23.7185 C.ar    1  UNL1        0.1585
      8 C          -8.0602  -16.0796   24.9507 C.ar    1  UNL1        0.0515
      9 C          -7.8512  -17.7885   21.9986 C.3     1  UNL1        0.2210
     10 C          -6.6494  -18.4801   21.4262 C.3     1  UNL1        0.0983
     11 C          -5.6107  -19.2316   22.2049 C.3     1  UNL1        0.0209
     12 C          -4.5946  -19.7576   21.2347 C.3     1  UNL1        0.0172
     13 C          -3.7593  -20.1433   20.0500 C.3     1  UNL1        0.0171
     14 C          -5.0055  -19.3311   19.8565 C.3     1  UNL1        0.0541
     15 N          -6.2754  -18.5416   19.9749 N.3     1  UNL1       -0.2966
     16 H          -7.0178  -18.9986   19.4453 H       1  UNL1        0.1233
@<TRIPOS>BOND
     1     2     3    1
     2     3     4   ar
     3     4     5   ar
     4     5     6   ar
     5     6     7   ar
     6     7     1    1
     7     1     9    1
     8    10     9    1
     9    10    11    1
    10    12    11    1
    11    12    13    1
    12    14    13    1
    13    14    15    1
    14     7     8   ar
    15     8     3   ar
    16    15    10    1
    17    14    12    1
    18    15    16    1
@<TRIPOS>MOLECULE
*****
 16 18 0 0 0
SMALL
GASTEIGER

@<TRIPOS>ATOM
      1 O          -7.1276  -18.2107   20.5530 O.3     1  UNL1       -0.4724
      2 CL         -9.6060  -20.7014   24.3810 Cl      1  UNL1       -0.0805
      3 C          -9.2838  -19.4297   23.6538 C.ar    1  UNL1        0.0798
      4 C          -9.8784  -18.1316   24.1134 C.ar    1  UNL1        0.1104
      5 N          -9.5562  -16.8598   23.3861 N.ar    1  UNL1       -0.2383
      6 C          -8.6393  -16.8862   22.1994 C.ar    1  UNL1        0.1357
      7 C          -8.0446  -18.1843   21.7398 C.ar    1  UNL1        0.1585
      8 C          -8.3668  -19.4560   22.4670 C.ar    1  UNL1        0.0515
      9 C          -6.1836  -19.3602   20.3600 C.3     1  UNL1        0.2210
     10 C          -4.7120  -19.1066   20.2176 C.3     1  UNL1        0.0983
     11 C          -3.6247  -19.7448   21.0303 C.3     1  UNL1        0.0209
     12 C          -2.3101  -19.2028   20.5525 C.3     1  UNL1        0.0172
     13 C          -1.1731  -18.4965   19.8753 C.3     1  UNL1        0.0171
     14 C          -2.5850  -18.2296   19.4446 C.3     1  UNL1        0.0541
     15 N          -4.0695  -18.1702   19.2377 N.3     1  UNL1       -0.2966
     16 H          -4.2979  -18.4555   18.2854 H       1  UNL1        0.1233
@<TRIPOS>BOND
     1     2     3    1
     2     3     4   ar
     3     4     5   ar
     4     5     6   ar
     5     6     7   ar
     6     7     1    1
     7     1     9    1
     8    10     9    1
     9    10    11    1
    10    12    11    1
    11    12    13    1
    12    14    13    1
    13    14    15    1
    14     7     8   ar
    15     8     3   ar
    16    15    10    1
    17    14    12    1
    18    15    16    1
@<TRIPOS>MOLECULE
*****
 16 18 0 0 0
SMALL
GASTEIGER

@<TRIPOS>ATOM
      1 O          -8.7543  -18.0937   23.3745 O.3     1  UNL1       -0.4724
      2 CL        -13.9123  -18.0511   24.0018 Cl      1  UNL1       -0.0805
      3 C         -12.7109  -17.9305   23.1119 C.ar    1  UNL1        0.0798
      4 C         -12.8870  -17.6679   21.6456 C.ar    1  UNL1        0.1104
      5 N         -11.6856  -17.5473   20.7556 N.ar    1  UNL1       -0.2383
      6 C         -10.3080  -17.6892   21.3319 C.ar    1  UNL1        0.1357
      7 C         -10.1319  -17.9518   22.7982 C.ar    1  UNL1        0.1585
      8 C         -11.3333  -18.0724   23.6881 C.ar    1  UNL1        0.0515
      9 C          -7.5695  -17.5581   22.6266 C.3     1  UNL1        0.2210
     10 C          -6.6611  -18.4968   21.8891 C.3     1  UNL1        0.0983
     11 C          -7.0833  -19.7271   21.1419 C.3     1  UNL1        0.0209
     12 C          -5.8542  -20.3607   20.5604 C.3     1  UNL1        0.0172
     13 C          -4.4768  -20.7542   20.1156 C.3     1  UNL1        0.0171
     14 C          -4.6726  -19.5219   20.9482 C.3     1  UNL1        0.0541
     15 N          -5.1713  -18.3700   21.7694 N.3     1  UNL1       -0.2966
     16 H          -4.9345  -17.4900   21.3111 H       1  UNL1        0.1233
@<TRIPOS>BOND
     1     2     3    1
     2     3     4   ar
     3     4     5   ar
     4     5     6   ar
     5     6     7   ar
     6     7     1    1
     7     1     9    1
     8    10     9    1
     9    10    11    1
    10    12    11    1
    11    12    13    1
    12    14    13    1
    13    14    15    1
    14     7     8   ar
    15     8     3   ar
    16    15    10    1
    17    14    12    1
    18    15    16    1
@<TRIPOS>MOLECULE
*****
 16 18 0 0 0
SMALL
GASTEIGER

@<TRIPOS>ATOM
      1 O          -9.1677  -19.5107   21.1413 O.3     1  UNL1       -0.4724
      2 CL        -12.1298  -15.6622   19.2933 Cl      1  UNL1       -0.0805
      3 C         -11.5858  -16.4395   20.4551 C.ar    1  UNL1        0.0798
      4 C         -11.9787  -16.0699   21.8547 C.ar    1  UNL1        0.1104
      5 N         -11.4347  -16.8473   23.0165 N.ar    1  UNL1       -0.2383
      6 C         -10.4977  -17.9942   22.7787 C.ar    1  UNL1        0.1357
      7 C         -10.1048  -18.3638   21.3791 C.ar    1  UNL1        0.1585
      8 C         -10.6488  -17.5864   20.2173 C.ar    1  UNL1        0.0515
      9 C          -8.3402  -19.5563   19.8911 C.3     1  UNL1        0.2210
     10 C          -6.8455  -19.6423   19.9837 C.3     1  UNL1        0.0983
     11 C          -6.0502  -20.8795   20.2787 C.3     1  UNL1        0.0209
     12 C          -4.5969  -20.5081   20.2749 C.3     1  UNL1        0.0172
     13 C          -3.2510  -19.8493   20.2065 C.3     1  UNL1        0.0171
     14 C          -4.4940  -19.0414   19.9777 C.3     1  UNL1        0.0541
     15 N          -5.8837  -18.5063   19.7977 N.3     1  UNL1       -0.2966
     16 H          -5.9858  -18.1163   18.8608 H       1  UNL1        0.1233
@<TRIPOS>BOND
     1     2     3    1
     2     3     4   ar
     3     4     5   ar
     4     5     6   ar
     5     6     7   ar
     6     7     1    1
     7     1     9    1
     8    10     9    1
     9    10    11    1
    10    12    11    1
    11    12    13    1
    12    14    13    1
    13    14    15    1
    14     7     8   ar
    15     8     3   ar
    16    15    10    1
    17    14    12    1
    18    15    16    1
@<TRIPOS>MOLECULE
*****
 16 18 0 0 0
SMALL
GASTEIGER

@<TRIPOS>ATOM
      1 O          -7.3441  -18.7222   20.3652 O.3     1  UNL1       -0.4724
      2 CL        -12.4165  -18.0577   21.2756 Cl      1  UNL1       -0.0805
      3 C         -11.0792  -18.5884   21.6997 C.ar    1  UNL1        0.0798
      4 C         -10.9408  -19.3176   23.0032 C.ar    1  UNL1        0.1104
      5 N          -9.6034  -19.8482   23.4274 N.ar    1  UNL1       -0.2383
      6 C          -8.4046  -19.6498   22.5481 C.ar    1  UNL1        0.1357
      7 C          -8.5430  -18.9207   21.2446 C.ar    1  UNL1        0.1585
      8 C          -9.8803  -18.3900   20.8204 C.ar    1  UNL1        0.0515
      9 C          -6.2293  -19.7256   20.3793 C.3     1  UNL1        0.2210
     10 C          -4.8175  -19.2818   20.1344 C.3     1  UNL1        0.0983
     11 C          -3.5866  -19.8766   20.7518 C.3     1  UNL1        0.0209
     12 C          -2.3971  -19.1276   20.2281 C.3     1  UNL1        0.0172
     13 C          -1.4224  -18.2144   19.5455 C.3     1  UNL1        0.0171
     14 C          -2.8929  -18.0699   19.2870 C.3     1  UNL1        0.0541
     15 N          -4.3888  -18.1652   19.2291 N.3     1  UNL1       -0.2966
     16 H          -4.6864  -18.3609   18.2733 H       1  UNL1        0.1233
@<TRIPOS>BOND
     1     2     3    1
     2     3     4   ar
     3     4     5   ar
     4     5     6   ar
     5     6     7   ar
     6     7     1    1
     7     1     9    1
     8    10     9    1
     9    10    11    1
    10    12    11    1
    11    12    13    1
    12    14    13    1
    13    14    15    1
    14     7     8   ar
    15     8     3   ar
    16    15    10    1
    17    14    12    1
    18    15    16    1
@<TRIPOS>MOLECULE
*****
 16 18 0 0 0
SMALL
GASTEIGER

@<TRIPOS>ATOM
      1 O          -8.7516  -18.9373   19.4098 O.3     1  UNL1       -0.4724
      2 CL         -3.8718  -20.4979   20.2774 Cl      1  UNL1       -0.0805
      3 C          -5.0823  -19.7211   20.7031 C.ar    1  UNL1        0.0798
      4 C          -5.0636  -18.9479   21.9883 C.ar    1  UNL1        0.1104
      5 N          -6.2741  -18.1711   22.4140 N.ar    1  UNL1       -0.2383
      6 C          -7.5034  -18.1676   21.5546 C.ar    1  UNL1        0.1357
      7 C          -7.5222  -18.9408   20.2694 C.ar    1  UNL1        0.1585
      8 C          -6.3117  -19.7176   19.8437 C.ar    1  UNL1        0.0515
      9 C          -9.9801  -19.6739   19.8550 C.3     1  UNL1        0.2210
     10 C         -10.9197  -19.0402   20.8377 C.3     1  UNL1        0.0983
     11 C         -10.9967  -19.3427   22.3049 C.3     1  UNL1        0.0209
     12 C         -12.0719  -18.4822   22.8997 C.3     1  UNL1        0.0172
     13 C         -13.1792  -17.5163   23.2010 C.3     1  UNL1        0.0171
     14 C         -12.6592  -17.6479   21.8001 C.3     1  UNL1        0.0541
     15 N         -11.9471  -17.9927   20.5258 N.3     1  UNL1       -0.2966
     16 H         -11.4910  -17.1621   20.1484 H       1  UNL1        0.1233
@<TRIPOS>BOND
     1     2     3    1
     2     3     4   ar
     3     4     5   ar
     4     5     6   ar
     5     6     7   ar
     6     7     1    1
     7     1     9    1
     8    10     9    1
     9    10    11    1
    10    12    11    1
    11    12    13    1
    12    14    13    1
    13    14    15    1
    14     7     8   ar
    15     8     3   ar
    16    15    10    1
    17    14    12    1
    18    15    16    1
