@<TRIPOS>MOLECULE
*****
 34 35 0 0 0
SMALL
GASTEIGER

@<TRIPOS>ATOM
      1 C         -11.1943  -16.7546   21.1330 C.3     1  UNL1        0.0813
      2 C         -10.6057  -15.6301   20.3337 C.2     1  UNL1        0.2439
      3 O         -11.1820  -15.2806   18.9935 O.2     1  UNL1       -0.2731
      4 N          -9.4410  -14.8549   20.8744 N.am    1  UNL1       -0.1970
      5 O          -8.8524  -13.7304   20.0751 O.3     1  UNL1       -0.2952
      6 H          -9.0628  -15.0843   21.7540 H       1  UNL1        0.1822
      7 H          -9.3383  -13.6378   19.2407 H       1  UNL1        0.2414
      8 C         -11.5832  -18.0342   20.4539 C.3     1  UNL1        0.0093
      9 C         -10.5610  -18.8137   19.6809 C.3     1  UNL1        0.0019
     10 C          -9.2369  -19.1401   20.3055 C.3     1  UNL1        0.0171
     11 C          -8.0250  -19.3246   19.4412 C.3     1  UNL1        0.0688
     12 N          -6.7251  -18.6821   19.8250 N.3     1  UNL1       -0.2951
     13 H          -6.3117  -18.3181   18.9665 H       1  UNL1        0.1235
     14 C          -5.6622  -19.4900   20.5088 C.3     1  UNL1        0.0768
     15 C          -4.2327  -19.0374   20.4666 C.ar    1  UNL1       -0.0079
     16 C          -3.6217  -18.6027   19.1676 C.ar    1  UNL1       -0.0007
     17 C          -2.1922  -18.1501   19.1254 C.ar    1  UNL1        0.0294
     18 C          -1.3737  -18.1323   20.3822 C.ar    1  UNL1        0.1401
     19 F           0.0558  -17.6798   20.3400 F       1  UNL1       -0.2042
     20 C          -1.9847  -18.5671   21.6814 C.ar    1  UNL1        0.0294
     21 C          -3.4142  -19.0196   21.7236 C.ar    1  UNL1       -0.0007
     22 C          -6.8160  -20.6797   22.5096 C.3     1  UNL1        0.0018
     23 C          -6.0287  -20.7503   21.2348 C.3     1  UNL1        0.0202
     24 C         -11.3940  -16.5995   22.6116 C.3     1  UNL1        0.0433
     25 C         -10.4747  -17.2971   23.5698 C.3     1  UNL1        0.1380
     26 C          -9.0961  -16.7586   23.8133 C.ar    1  UNL1        0.0047
     27 C          -8.8731  -15.7184   24.8707 C.ar    1  UNL1        0.0004
     28 C          -7.4944  -15.1798   25.1142 C.ar    1  UNL1        0.0294
     29 C          -6.3387  -15.6816   24.3002 C.ar    1  UNL1        0.1401
     30 F          -4.9601  -15.1430   24.5436 F       1  UNL1       -0.2042
     31 C          -6.5617  -16.7218   23.2427 C.ar    1  UNL1        0.0294
     32 C          -7.9403  -17.2603   22.9993 C.ar    1  UNL1        0.0004
     33 O         -10.9341  -18.5333   24.2846 O.3     1  UNL1       -0.3492
     34 C         -10.6862  -19.8842   23.6816 C.3     1  UNL1        0.1745
@<TRIPOS>BOND
     1    22    23    1
     2    23    14    1
     3    14    12    1
     4    12    11    1
     5    11    10    1
     6    10     9    1
     7     9     8    1
     8     1     8    1
     9     1    24    1
    10    25    24    1
    11    25    33    1
    12    33    34    1
    13    25    26    1
    14    26    27   ar
    15    27    28   ar
    16    28    29   ar
    17    29    30    1
    18    29    31   ar
    19    31    32   ar
    20     1     2    1
    21     2     3    2
    22     2     4   am
    23     4     5    1
    24    14    15    1
    25    15    16   ar
    26    16    17   ar
    27    17    18   ar
    28    18    19    1
    29    18    20   ar
    30    20    21   ar
    31    32    26   ar
    32    21    15   ar
    33    12    13    1
    34     4     6    1
    35     5     7    1
@<TRIPOS>MOLECULE
*****
 34 35 0 0 0
SMALL
GASTEIGER

@<TRIPOS>ATOM
      1 C          -4.0621  -18.9441   21.6401 C.3     1  UNL1        0.0813
      2 C          -2.8456  -19.1073   20.7777 C.2     1  UNL1        0.2439
      3 O          -1.7521  -20.0462   21.1934 O.2     1  UNL1       -0.2731
      4 N          -2.7226  -18.3315   19.4999 N.am    1  UNL1       -0.1970
      5 O          -1.5062  -18.4947   18.6375 O.3     1  UNL1       -0.2952
      6 H          -3.4403  -17.7153   19.2271 H       1  UNL1        0.1822
      7 H          -0.9023  -19.1334   19.0478 H       1  UNL1        0.2414
      8 C          -5.3957  -19.4304   21.1554 C.3     1  UNL1        0.0093
      9 C          -6.3193  -20.1472   22.0950 C.3     1  UNL1        0.0019
     10 C          -7.7488  -19.7101   22.2207 C.3     1  UNL1        0.0171
     11 C          -8.4482  -19.0867   21.0493 C.3     1  UNL1        0.0688
     12 N          -9.1381  -17.7639   21.2049 N.3     1  UNL1       -0.2951
     13 H          -8.8796  -17.4032   22.1233 H       1  UNL1        0.1235
     14 C         -10.6331  -17.6823   21.1127 C.3     1  UNL1        0.0768
     15 C         -11.4752  -17.9545   22.3238 C.ar    1  UNL1       -0.0079
     16 C         -10.8646  -18.6005   23.5321 C.ar    1  UNL1       -0.0007
     17 C         -11.7067  -18.8726   24.7432 C.ar    1  UNL1        0.0294
     18 C         -13.1593  -18.4987   24.7461 C.ar    1  UNL1        0.1401
     19 F         -14.0014  -18.7709   25.9573 F       1  UNL1       -0.2042
     20 C         -13.7699  -17.8527   23.5379 C.ar    1  UNL1        0.0294
     21 C         -12.9279  -17.5805   22.3267 C.ar    1  UNL1       -0.0007
     22 C         -11.5662  -15.8932   19.4761 C.3     1  UNL1        0.0018
     23 C         -11.2859  -17.3286   19.8094 C.3     1  UNL1        0.0202
     24 C          -3.9449  -18.2947   22.9872 C.3     1  UNL1        0.0433
     25 C          -4.2472  -16.8339   23.1443 C.3     1  UNL1        0.1380
     26 C          -5.3449  -16.3900   24.0652 C.ar    1  UNL1        0.0047
     27 C          -5.0169  -15.9205   25.4515 C.ar    1  UNL1        0.0004
     28 C          -6.1146  -15.4766   26.3724 C.ar    1  UNL1        0.0294
     29 C          -7.5403  -15.5022   25.9069 C.ar    1  UNL1        0.1401
     30 F          -8.6380  -15.0583   26.8278 F       1  UNL1       -0.2042
     31 C          -7.8683  -15.9718   24.5206 C.ar    1  UNL1        0.0294
     32 C          -6.7706  -16.4157   23.5997 C.ar    1  UNL1        0.0004
     33 O          -3.4518  -15.8170   22.3806 O.3     1  UNL1       -0.3492
     34 C          -2.0219  -16.0968   22.0241 C.3     1  UNL1        0.1745
@<TRIPOS>BOND
     1    22    23    1
     2    23    14    1
     3    14    12    1
     4    12    11    1
     5    11    10    1
     6    10     9    1
     7     9     8    1
     8     1     8    1
     9     1    24    1
    10    25    24    1
    11    25    33    1
    12    33    34    1
    13    25    26    1
    14    26    27   ar
    15    27    28   ar
    16    28    29   ar
    17    29    30    1
    18    29    31   ar
    19    31    32   ar
    20     1     2    1
    21     2     3    2
    22     2     4   am
    23     4     5    1
    24    14    15    1
    25    15    16   ar
    26    16    17   ar
    27    17    18   ar
    28    18    19    1
    29    18    20   ar
    30    20    21   ar
    31    32    26   ar
    32    21    15   ar
    33    12    13    1
    34     4     6    1
    35     5     7    1
@<TRIPOS>MOLECULE
*****
 34 35 0 0 0
SMALL
GASTEIGER

@<TRIPOS>ATOM
      1 C          -4.1480  -19.1043   22.2095 C.3     1  UNL1        0.0813
      2 C          -3.1237  -19.3183   21.1348 C.2     1  UNL1        0.2439
      3 O          -2.0075  -20.2977   21.3469 O.2     1  UNL1       -0.2731
      4 N          -3.2156  -18.5530   19.8480 N.am    1  UNL1       -0.1970
      5 O          -2.1913  -18.7670   18.7733 O.3     1  UNL1       -0.2952
      6 H          -3.9482  -17.9102   19.7089 H       1  UNL1        0.1822
      7 H          -1.5453  -19.4273   19.0692 H       1  UNL1        0.2414
      8 C          -5.4857  -19.7763   22.1152 C.3     1  UNL1        0.0093
      9 C          -6.6517  -19.0454   21.5186 C.3     1  UNL1        0.0019
     10 C          -8.0503  -19.5122   21.7944 C.3     1  UNL1        0.0171
     11 C          -8.5645  -19.5493   23.2030 C.3     1  UNL1        0.0688
     12 N          -9.9950  -19.9132   23.4699 N.3     1  UNL1       -0.2951
     13 H         -10.2358  -20.6590   22.8171 H       1  UNL1        0.1235
     14 C         -11.0682  -18.8718   23.3526 C.3     1  UNL1        0.0768
     15 C         -11.0772  -17.9325   22.1831 C.ar    1  UNL1       -0.0079
     16 C         -10.5853  -16.5251   22.3477 C.ar    1  UNL1       -0.0007
     17 C         -10.5943  -15.5858   21.1783 C.ar    1  UNL1        0.0294
     18 C         -11.0950  -16.0540   19.8441 C.ar    1  UNL1        0.1401
     19 F         -11.1040  -15.1147   18.6746 F       1  UNL1       -0.2042
     20 C         -11.5869  -17.4615   19.6794 C.ar    1  UNL1        0.0294
     21 C         -11.5780  -18.4007   20.8489 C.ar    1  UNL1       -0.0007
     22 C         -13.4331  -18.0907   24.0925 C.3     1  UNL1        0.0018
     23 C         -12.1324  -18.7697   24.4047 C.3     1  UNL1        0.0202
     24 C          -3.8345  -18.2182   23.3786 C.3     1  UNL1        0.0433
     25 C          -4.2500  -16.7770   23.3600 C.3     1  UNL1        0.1380
     26 C          -5.3677  -16.3073   24.2430 C.ar    1  UNL1        0.0047
     27 C          -6.7615  -16.2044   23.6981 C.ar    1  UNL1        0.0004
     28 C          -7.8793  -15.7346   24.5813 C.ar    1  UNL1        0.0294
     29 C          -7.6033  -15.3677   26.0092 C.ar    1  UNL1        0.1401
     30 F          -8.7211  -14.8979   26.8923 F       1  UNL1       -0.2042
     31 C          -6.2096  -15.4705   26.5542 C.ar    1  UNL1        0.0294
     32 C          -5.0918  -15.9403   25.6711 C.ar    1  UNL1        0.0004
     33 O          -3.5476  -15.8056   22.4582 O.3     1  UNL1       -0.3492
     34 C          -2.1556  -16.0967   21.9812 C.3     1  UNL1        0.1745
@<TRIPOS>BOND
     1    22    23    1
     2    23    14    1
     3    14    12    1
     4    12    11    1
     5    11    10    1
     6    10     9    1
     7     9     8    1
     8     1     8    1
     9     1    24    1
    10    25    24    1
    11    25    33    1
    12    33    34    1
    13    25    26    1
    14    26    27   ar
    15    27    28   ar
    16    28    29   ar
    17    29    30    1
    18    29    31   ar
    19    31    32   ar
    20     1     2    1
    21     2     3    2
    22     2     4   am
    23     4     5    1
    24    14    15    1
    25    15    16   ar
    26    16    17   ar
    27    17    18   ar
    28    18    19    1
    29    18    20   ar
    30    20    21   ar
    31    32    26   ar
    32    21    15   ar
    33    12    13    1
    34     4     6    1
    35     5     7    1
@<TRIPOS>MOLECULE
*****
 34 35 0 0 0
SMALL
GASTEIGER

@<TRIPOS>ATOM
      1 C          -7.3460  -17.8813   22.4632 C.3     1  UNL1        0.0813
      2 C          -7.4015  -16.3992   22.6878 C.2     1  UNL1        0.2439
      3 O          -7.8296  -15.4877   21.5761 O.2     1  UNL1       -0.2731
      4 N          -7.0289  -15.8287   24.0241 N.am    1  UNL1       -0.1970
      5 O          -7.0844  -14.3466   24.2487 O.3     1  UNL1       -0.2952
      6 H          -6.7479  -16.4270   24.7537 H       1  UNL1        0.1822
      7 H          -7.3782  -13.9072   23.4354 H       1  UNL1        0.2414
      8 C          -8.6107  -18.6516   22.2249 C.3     1  UNL1        0.0093
      9 C          -8.7489  -20.0486   22.7533 C.3     1  UNL1        0.0019
     10 C          -9.5195  -20.3004   24.0153 C.3     1  UNL1        0.0171
     11 C         -10.1445  -19.1541   24.7538 C.3     1  UNL1        0.0688
     12 N         -11.6050  -19.1881   25.0940 N.3     1  UNL1       -0.2951
     13 H         -11.8767  -20.1707   25.1273 H       1  UNL1        0.1235
     14 C         -12.5976  -18.4941   24.2091 C.3     1  UNL1        0.0768
     15 C         -12.1383  -17.8238   22.9482 C.ar    1  UNL1       -0.0079
     16 C         -11.6478  -16.4069   22.9879 C.ar    1  UNL1       -0.0007
     17 C         -11.1884  -15.7367   21.7270 C.ar    1  UNL1        0.0294
     18 C         -11.2196  -16.4834   20.4265 C.ar    1  UNL1        0.1401
     19 F         -10.7603  -15.8132   19.1656 F       1  UNL1       -0.2042
     20 C         -11.7101  -17.9004   20.3868 C.ar    1  UNL1        0.0294
     21 C         -12.1695  -18.5706   21.6477 C.ar    1  UNL1       -0.0007
     22 C         -14.4495  -18.4363   26.0304 C.3     1  UNL1        0.0018
     23 C         -14.0495  -18.4702   24.5851 C.3     1  UNL1        0.0202
     24 C          -6.0256  -18.5930   22.4770 C.3     1  UNL1        0.0433
     25 C          -5.4275  -19.0890   21.1940 C.3     1  UNL1        0.1380
     26 C          -3.9985  -18.7761   20.8623 C.ar    1  UNL1        0.0047
     27 C          -2.9993  -18.5771   21.9631 C.ar    1  UNL1        0.0004
     28 C          -1.5702  -18.2642   21.6314 C.ar    1  UNL1        0.0294
     29 C          -1.1405  -18.1502   20.1988 C.ar    1  UNL1        0.1401
     30 F           0.2884  -17.8373   19.8671 F       1  UNL1       -0.2042
     31 C          -2.1398  -18.3492   19.0979 C.ar    1  UNL1        0.0294
     32 C          -3.5687  -18.6621   19.4296 C.ar    1  UNL1        0.0004
     33 O          -6.2585  -19.8980   20.2426 O.3     1  UNL1       -0.3492
     34 C          -6.1662  -21.3951   20.2524 C.3     1  UNL1        0.1745
@<TRIPOS>BOND
     1    22    23    1
     2    23    14    1
     3    14    12    1
     4    12    11    1
     5    11    10    1
     6    10     9    1
     7     9     8    1
     8     1     8    1
     9     1    24    1
    10    25    24    1
    11    25    33    1
    12    33    34    1
    13    25    26    1
    14    26    27   ar
    15    27    28   ar
    16    28    29   ar
    17    29    30    1
    18    29    31   ar
    19    31    32   ar
    20     1     2    1
    21     2     3    2
    22     2     4   am
    23     4     5    1
    24    14    15    1
    25    15    16   ar
    26    16    17   ar
    27    17    18   ar
    28    18    19    1
    29    18    20   ar
    30    20    21   ar
    31    32    26   ar
    32    21    15   ar
    33    12    13    1
    34     4     6    1
    35     5     7    1
@<TRIPOS>MOLECULE
*****
 34 35 0 0 0
SMALL
GASTEIGER

@<TRIPOS>ATOM
      1 C         -11.3633  -16.3564   21.5165 C.3     1  UNL1        0.0813
      2 C         -10.6817  -15.4914   20.4980 C.2     1  UNL1        0.2439
      3 O         -11.2381  -15.3880   19.1088 O.2     1  UNL1       -0.2731
      4 N          -9.4437  -14.7299   20.8687 N.am    1  UNL1       -0.1970
      5 O          -8.7621  -13.8649   19.8503 O.3     1  UNL1       -0.2952
      6 H          -9.0786  -14.7978   21.7805 H       1  UNL1        0.1822
      7 H          -9.2468  -13.9102   19.0113 H       1  UNL1        0.2414
      8 C         -12.1569  -17.5505   21.0758 C.3     1  UNL1        0.0093
      9 C         -11.4674  -18.7066   20.4140 C.3     1  UNL1        0.0019
     10 C         -10.7377  -19.7201   21.2450 C.3     1  UNL1        0.0171
     11 C          -9.3154  -19.4725   21.6520 C.3     1  UNL1        0.0688
     12 N          -8.3622  -18.8255   20.6914 N.3     1  UNL1       -0.2951
     13 H          -8.9198  -18.4831   19.9089 H       1  UNL1        0.1235
     14 C          -7.2342  -19.6209   20.1039 C.3     1  UNL1        0.0768
     15 C          -5.8360  -19.4270   20.6113 C.ar    1  UNL1       -0.0079
     16 C          -5.5725  -19.3871   22.0874 C.ar    1  UNL1       -0.0007
     17 C          -4.1743  -19.1932   22.5947 C.ar    1  UNL1        0.0294
     18 C          -3.0395  -19.0392   21.6260 C.ar    1  UNL1        0.1401
     19 F          -1.6413  -18.8453   22.1333 F       1  UNL1       -0.2042
     20 C          -3.3030  -19.0790   20.1498 C.ar    1  UNL1        0.0294
     21 C          -4.7012  -19.2729   19.6424 C.ar    1  UNL1       -0.0007
     22 C          -8.8021  -20.5619   18.2583 C.3     1  UNL1        0.0018
     23 C          -7.5044  -20.6100   19.0092 C.3     1  UNL1        0.0202
     24 C         -11.2514  -16.0272   22.9756 C.3     1  UNL1        0.0433
     25 C         -10.4130  -16.8855   23.8759 C.3     1  UNL1        0.1380
     26 C          -9.0430  -16.4307   24.2833 C.ar    1  UNL1        0.0047
     27 C          -7.8893  -16.5848   23.3371 C.ar    1  UNL1        0.0004
     28 C          -6.5192  -16.1299   23.7445 C.ar    1  UNL1        0.0294
     29 C          -6.3027  -15.5210   25.0981 C.ar    1  UNL1        0.1401
     30 F          -4.9327  -15.0662   25.5055 F       1  UNL1       -0.2042
     31 C          -7.4564  -15.3669   26.0444 C.ar    1  UNL1        0.0294
     32 C          -8.8265  -15.8217   25.6370 C.ar    1  UNL1        0.0004
     33 O         -10.9448  -18.1986   24.3689 O.3     1  UNL1       -0.3492
     34 C         -10.0427  -19.1445   25.1047 C.3     1  UNL1        0.1745
@<TRIPOS>BOND
     1    22    23    1
     2    23    14    1
     3    14    12    1
     4    12    11    1
     5    11    10    1
     6    10     9    1
     7     9     8    1
     8     1     8    1
     9     1    24    1
    10    25    24    1
    11    25    33    1
    12    33    34    1
    13    25    26    1
    14    26    27   ar
    15    27    28   ar
    16    28    29   ar
    17    29    30    1
    18    29    31   ar
    19    31    32   ar
    20     1     2    1
    21     2     3    2
    22     2     4   am
    23     4     5    1
    24    14    15    1
    25    15    16   ar
    26    16    17   ar
    27    17    18   ar
    28    18    19    1
    29    18    20   ar
    30    20    21   ar
    31    32    26   ar
    32    21    15   ar
    33    12    13    1
    34     4     6    1
    35     5     7    1
@<TRIPOS>MOLECULE
*****
 34 35 0 0 0
SMALL
GASTEIGER

@<TRIPOS>ATOM
      1 C          -7.6103  -16.8250   23.1521 C.3     1  UNL1        0.0813
      2 C          -7.5514  -18.0129   22.2380 C.2     1  UNL1        0.2439
      3 O          -7.9043  -19.3758   22.7557 O.2     1  UNL1       -0.2731
      4 N          -7.1395  -17.8379   20.8064 N.am    1  UNL1       -0.1970
      5 O          -7.0805  -19.0258   19.8923 O.3     1  UNL1       -0.2952
      6 H          -6.9078  -16.9434   20.4667 H       1  UNL1        0.1822
      7 H          -7.3370  -19.8232   20.3815 H       1  UNL1        0.2414
      8 C          -8.8680  -16.5257   23.9127 C.3     1  UNL1        0.0093
      9 C          -8.8953  -16.6746   25.4050 C.3     1  UNL1        0.0019
     10 C          -9.6290  -17.8236   26.0309 C.3     1  UNL1        0.0171
     11 C          -9.8223  -19.0975   25.2629 C.3     1  UNL1        0.0688
     12 N         -11.2065  -19.6119   24.9998 N.3     1  UNL1       -0.2951
     13 H         -11.1081  -20.4226   24.3887 H       1  UNL1        0.1235
     14 C         -12.2321  -18.7167   24.3698 C.3     1  UNL1        0.0768
     15 C         -11.9732  -18.1121   23.0217 C.ar    1  UNL1       -0.0079
     16 C         -11.3599  -18.9417   21.9329 C.ar    1  UNL1       -0.0007
     17 C         -11.1010  -18.3371   20.5848 C.ar    1  UNL1        0.0294
     18 C         -11.4554  -16.9028   20.3255 C.ar    1  UNL1        0.1401
     19 F         -11.1964  -16.2982   18.9774 F       1  UNL1       -0.2042
     20 C         -12.0687  -16.0731   21.4143 C.ar    1  UNL1        0.0294
     21 C         -12.3276  -16.6777   22.7624 C.ar    1  UNL1       -0.0007
     22 C         -14.8108  -18.4021   24.3299 C.3     1  UNL1        0.0018
     23 C         -13.5166  -18.4262   25.0879 C.3     1  UNL1        0.0202
     24 C          -6.4115  -15.9365   23.3055 C.3     1  UNL1        0.0433
     25 C          -5.1485  -16.4782   23.9066 C.3     1  UNL1        0.1380
     26 C          -4.1122  -17.1139   23.0279 C.ar    1  UNL1        0.0047
     27 C          -4.1230  -18.5977   22.8084 C.ar    1  UNL1        0.0004
     28 C          -3.0866  -19.2333   21.9297 C.ar    1  UNL1        0.0294
     29 C          -2.0397  -18.3852   21.2706 C.ar    1  UNL1        0.1401
     30 F          -1.0034  -19.0208   20.3919 F       1  UNL1       -0.2042
     31 C          -2.0289  -16.9014   21.4902 C.ar    1  UNL1        0.0294
     32 C          -3.0652  -16.2657   22.3688 C.ar    1  UNL1        0.0004
     33 O          -4.9218  -16.3842   25.3864 O.3     1  UNL1       -0.3492
     34 C          -5.6183  -15.3234   26.1860 C.3     1  UNL1        0.1745
@<TRIPOS>BOND
     1    22    23    1
     2    23    14    1
     3    14    12    1
     4    12    11    1
     5    11    10    1
     6    10     9    1
     7     9     8    1
     8     1     8    1
     9     1    24    1
    10    25    24    1
    11    25    33    1
    12    33    34    1
    13    25    26    1
    14    26    27   ar
    15    27    28   ar
    16    28    29   ar
    17    29    30    1
    18    29    31   ar
    19    31    32   ar
    20     1     2    1
    21     2     3    2
    22     2     4   am
    23     4     5    1
    24    14    15    1
    25    15    16   ar
    26    16    17   ar
    27    17    18   ar
    28    18    19    1
    29    18    20   ar
    30    20    21   ar
    31    32    26   ar
    32    21    15   ar
    33    12    13    1
    34     4     6    1
    35     5     7    1
@<TRIPOS>MOLECULE
*****
 34 35 0 0 0
SMALL
GASTEIGER

@<TRIPOS>ATOM
      1 C          -3.7710  -17.7320   22.8250 C.3     1  UNL1        0.0813
      2 C          -2.5763  -17.3106   22.0218 C.2     1  UNL1        0.2439
      3 O          -2.5136  -15.9299   21.4389 O.2     1  UNL1       -0.2731
      4 N          -1.4444  -18.2699   21.8015 N.am    1  UNL1       -0.1970
      5 O          -0.2497  -17.8485   20.9983 O.3     1  UNL1       -0.2952
      6 H          -1.4856  -19.1761   22.1841 H       1  UNL1        0.1822
      7 H          -0.3686  -16.9340   20.6976 H       1  UNL1        0.2414
      8 C          -4.2943  -19.1332   22.7121 C.3     1  UNL1        0.0093
      9 C          -4.4156  -19.7823   21.3653 C.3     1  UNL1        0.0019
     10 C          -5.3500  -19.2125   20.3395 C.3     1  UNL1        0.0171
     11 C          -6.6908  -19.8454   20.1126 C.3     1  UNL1        0.0688
     12 N          -7.6761  -19.2020   19.1825 N.3     1  UNL1       -0.2951
     13 H          -7.7386  -18.2205   19.4528 H       1  UNL1        0.1235
     14 C          -9.0818  -19.7198   19.1038 C.3     1  UNL1        0.0768
     15 C         -10.1258  -19.2020   20.0482 C.ar    1  UNL1       -0.0079
     16 C         -10.8620  -17.9344   19.7305 C.ar    1  UNL1       -0.0007
     17 C         -11.9060  -17.4166   20.6749 C.ar    1  UNL1        0.0294
     18 C         -12.2138  -18.1664   21.9370 C.ar    1  UNL1        0.1401
     19 F         -13.2578  -17.6486   22.8814 F       1  UNL1       -0.2042
     20 C         -11.4775  -19.4341   22.2548 C.ar    1  UNL1        0.0294
     21 C         -10.4335  -19.9519   21.3104 C.ar    1  UNL1       -0.0007
     22 C          -8.5491  -21.9402   17.8642 C.3     1  UNL1        0.0018
     23 C          -9.4433  -20.7554   18.0806 C.3     1  UNL1        0.0202
     24 C          -4.4424  -16.7522   23.7412 C.3     1  UNL1        0.0433
     25 C          -5.9280  -16.5569   23.6716 C.3     1  UNL1        0.1380
     26 C          -6.6718  -16.0298   24.8627 C.ar    1  UNL1        0.0047
     27 C          -8.1571  -15.8327   24.7925 C.ar    1  UNL1        0.0004
     28 C          -8.9009  -15.3055   25.9838 C.ar    1  UNL1        0.0294
     29 C          -8.1593  -14.9755   27.2452 C.ar    1  UNL1        0.1401
     30 F          -8.9031  -14.4484   28.4363 F       1  UNL1       -0.2042
     31 C          -6.6740  -15.1726   27.3154 C.ar    1  UNL1        0.0294
     32 C          -5.9302  -15.6998   26.1242 C.ar    1  UNL1        0.0004
     33 O          -6.6699  -16.8889   22.4108 O.3     1  UNL1       -0.3492
     34 C          -7.9543  -17.6607   22.4774 C.3     1  UNL1        0.1745
@<TRIPOS>BOND
     1    22    23    1
     2    23    14    1
     3    14    12    1
     4    12    11    1
     5    11    10    1
     6    10     9    1
     7     9     8    1
     8     1     8    1
     9     1    24    1
    10    25    24    1
    11    25    33    1
    12    33    34    1
    13    25    26    1
    14    26    27   ar
    15    27    28   ar
    16    28    29   ar
    17    29    30    1
    18    29    31   ar
    19    31    32   ar
    20     1     2    1
    21     2     3    2
    22     2     4   am
    23     4     5    1
    24    14    15    1
    25    15    16   ar
    26    16    17   ar
    27    17    18   ar
    28    18    19    1
    29    18    20   ar
    30    20    21   ar
    31    32    26   ar
    32    21    15   ar
    33    12    13    1
    34     4     6    1
    35     5     7    1
@<TRIPOS>MOLECULE
*****
 34 35 0 0 0
SMALL
GASTEIGER

@<TRIPOS>ATOM
      1 C          -9.1000  -16.7619   25.0825 C.3     1  UNL1        0.0813
      2 C          -8.5020  -16.2593   26.3630 C.2     1  UNL1        0.2439
      3 O          -8.6725  -17.0449   27.6295 O.2     1  UNL1       -0.2731
      4 N          -7.7336  -14.9712   26.3772 N.am    1  UNL1       -0.1970
      5 O          -7.1356  -14.4686   27.6578 O.3     1  UNL1       -0.2952
      6 H          -7.6217  -14.4556   25.5460 H       1  UNL1        0.1822
      7 H          -7.3372  -15.0903   28.3746 H       1  UNL1        0.2414
      8 C          -8.6649  -16.1773   23.7714 C.3     1  UNL1        0.0093
      9 C          -7.2472  -16.3425   23.3102 C.3     1  UNL1        0.0019
     10 C          -6.1948  -15.3719   23.7582 C.3     1  UNL1        0.0171
     11 C          -4.7443  -15.7419   23.6638 C.3     1  UNL1        0.0688
     12 N          -4.3239  -17.1736   23.8177 N.3     1  UNL1       -0.2951
     13 H          -3.7095  -17.2142   24.6309 H       1  UNL1        0.1235
     14 C          -3.6076  -17.8694   22.6985 C.3     1  UNL1        0.0768
     15 C          -4.3181  -18.9114   21.8864 C.ar    1  UNL1       -0.0079
     16 C          -3.6026  -19.6055   20.7656 C.ar    1  UNL1       -0.0007
     17 C          -4.3131  -20.6475   19.9536 C.ar    1  UNL1        0.0294
     18 C          -5.7391  -20.9953   20.2623 C.ar    1  UNL1        0.1401
     19 F          -6.4496  -22.0373   19.4502 F       1  UNL1       -0.2042
     20 C          -6.4547  -20.3012   21.3831 C.ar    1  UNL1        0.0294
     21 C          -5.7442  -19.2592   22.1952 C.ar    1  UNL1       -0.0007
     22 C          -1.8671  -16.3662   21.4897 C.3     1  UNL1        0.0018
     23 C          -2.1808  -17.5233   22.3913 C.3     1  UNL1        0.0202
     24 C         -10.1330  -17.8490   25.1130 C.3     1  UNL1        0.0433
     25 C         -10.4676  -18.6012   23.8591 C.3     1  UNL1        0.1380
     26 C         -10.9142  -17.8578   22.6352 C.ar    1  UNL1        0.0047
     27 C         -11.9886  -16.8163   22.7406 C.ar    1  UNL1        0.0004
     28 C         -12.4352  -16.0730   21.5167 C.ar    1  UNL1        0.0294
     29 C         -11.8075  -16.3711   20.1874 C.ar    1  UNL1        0.1401
     30 F         -12.2542  -15.6277   18.9635 F       1  UNL1       -0.2042
     31 C         -10.7332  -17.4126   20.0819 C.ar    1  UNL1        0.0294
     32 C         -10.2866  -18.1559   21.3058 C.ar    1  UNL1        0.0004
     33 O         -10.3555  -20.0967   23.8290 O.3     1  UNL1       -0.3492
     34 C          -9.0137  -20.7513   23.9743 C.3     1  UNL1        0.1745
@<TRIPOS>BOND
     1    22    23    1
     2    23    14    1
     3    14    12    1
     4    12    11    1
     5    11    10    1
     6    10     9    1
     7     9     8    1
     8     1     8    1
     9     1    24    1
    10    25    24    1
    11    25    33    1
    12    33    34    1
    13    25    26    1
    14    26    27   ar
    15    27    28   ar
    16    28    29   ar
    17    29    30    1
    18    29    31   ar
    19    31    32   ar
    20     1     2    1
    21     2     3    2
    22     2     4   am
    23     4     5    1
    24    14    15    1
    25    15    16   ar
    26    16    17   ar
    27    17    18   ar
    28    18    19    1
    29    18    20   ar
    30    20    21   ar
    31    32    26   ar
    32    21    15   ar
    33    12    13    1
    34     4     6    1
    35     5     7    1
@<TRIPOS>MOLECULE
*****
 34 35 0 0 0
SMALL
GASTEIGER

@<TRIPOS>ATOM
      1 C          -7.4020  -18.4510   21.2765 C.3     1  UNL1        0.0813
      2 C          -7.2140  -17.1384   21.9779 C.2     1  UNL1        0.2439
      3 O          -6.3318  -17.0544   23.1882 O.2     1  UNL1       -0.2731
      4 N          -7.9082  -15.9100   21.4690 N.am    1  UNL1       -0.1970
      5 O          -7.7202  -14.5974   22.1704 O.3     1  UNL1       -0.2952
      6 H          -8.4872  -15.9652   20.6747 H       1  UNL1        0.1822
      7 H          -7.1248  -14.7173   22.9267 H       1  UNL1        0.2414
      8 C          -8.5095  -19.3724   21.6938 C.3     1  UNL1        0.0093
      9 C          -9.6224  -19.6880   20.7389 C.3     1  UNL1        0.0019
     10 C         -10.1142  -18.6381   19.7870 C.3     1  UNL1        0.0171
     11 C         -11.1679  -17.6640   20.2239 C.3     1  UNL1        0.0688
     12 N         -10.9688  -16.8526   21.4697 N.3     1  UNL1       -0.2951
     13 H          -9.9836  -16.5900   21.4957 H       1  UNL1        0.1235
     14 C         -11.2952  -17.4430   22.8095 C.3     1  UNL1        0.0768
     15 C         -10.3937  -17.1883   23.9810 C.ar    1  UNL1       -0.0079
     16 C         -10.1089  -18.2874   24.9611 C.ar    1  UNL1       -0.0007
     17 C          -9.2074  -18.0327   26.1326 C.ar    1  UNL1        0.0294
     18 C          -8.5907  -16.6788   26.3240 C.ar    1  UNL1        0.1401
     19 F          -7.6892  -16.4241   27.4955 F       1  UNL1       -0.2042
     20 C          -8.8755  -15.5796   25.3438 C.ar    1  UNL1        0.0294
     21 C          -9.7770  -15.8343   24.1723 C.ar    1  UNL1       -0.0007
     22 C         -13.6278  -17.8336   23.8847 C.3     1  UNL1        0.0018
     23 C         -12.5229  -18.2881   22.9777 C.3     1  UNL1        0.0202
     24 C          -6.4823  -18.8420   20.1579 C.3     1  UNL1        0.0433
     25 C          -5.2420  -19.6339   20.4487 C.3     1  UNL1        0.1380
     26 C          -3.8991  -18.9671   20.4055 C.ar    1  UNL1        0.0047
     27 C          -3.2689  -18.6347   19.0856 C.ar    1  UNL1        0.0004
     28 C          -1.9259  -17.9679   19.0424 C.ar    1  UNL1        0.0294
     29 C          -1.2132  -17.6335   20.3192 C.ar    1  UNL1        0.1401
     30 F           0.1297  -16.9667   20.2761 F       1  UNL1       -0.2042
     31 C          -1.8435  -17.9659   21.6392 C.ar    1  UNL1        0.0294
     32 C          -3.1864  -18.6327   21.6824 C.ar    1  UNL1        0.0004
     33 O          -5.3447  -21.0927   20.7827 O.3     1  UNL1       -0.3492
     34 C          -6.2234  -21.9899   19.9624 C.3     1  UNL1        0.1745
@<TRIPOS>BOND
     1    22    23    1
     2    23    14    1
     3    14    12    1
     4    12    11    1
     5    11    10    1
     6    10     9    1
     7     9     8    1
     8     1     8    1
     9     1    24    1
    10    25    24    1
    11    25    33    1
    12    33    34    1
    13    25    26    1
    14    26    27   ar
    15    27    28   ar
    16    28    29   ar
    17    29    30    1
    18    29    31   ar
    19    31    32   ar
    20     1     2    1
    21     2     3    2
    22     2     4   am
    23     4     5    1
    24    14    15    1
    25    15    16   ar
    26    16    17   ar
    27    17    18   ar
    28    18    19    1
    29    18    20   ar
    30    20    21   ar
    31    32    26   ar
    32    21    15   ar
    33    12    13    1
    34     4     6    1
    35     5     7    1
