@<TRIPOS>MOLECULE
*****
 38 42 0 0 0
SMALL
GASTEIGER

@<TRIPOS>ATOM
      1 C           5.8110   -1.5575   29.8580 C.3     1  UNL1        0.1524
      2 C           5.6594   -0.6683   31.0564 C.3     1  UNL1        0.0353
      3 C           6.0454   -1.4585   32.2717 C.3     1  UNL1        0.0443
      4 C           6.4356   -2.8361   31.8241 C.3     1  UNL1        0.0982
      5 N           6.2906   -2.8972   30.3323 N.am    1  UNL1       -0.2723
      6 C           6.5754   -4.0887   29.4669 C.2     1  UNL1        0.2320
      7 O           6.3835   -4.0002   27.9819 O.2     1  UNL1       -0.2744
      8 C           6.0420   -0.9589   33.6860 C.ar    1  UNL1       -0.0208
      9 C           7.3084   -0.4427   34.3022 C.ar    1  UNL1       -0.0042
     10 C           7.3049    0.0569   35.7165 C.ar    1  UNL1       -0.0003
     11 C           6.0350    0.0402   36.5147 C.ar    1  UNL1       -0.0000
     12 C           4.7686   -0.4761   35.8985 C.ar    1  UNL1       -0.0003
     13 C           4.7721   -0.9757   34.4842 C.ar    1  UNL1       -0.0042
     14 O           6.5323   -0.3623   27.6667 O.2     1  UNL1       -0.2730
     15 C           5.5318   -1.1741   28.4348 C.2     1  UNL1        0.2442
     16 N           4.2522   -1.6026   27.7799 N.am    1  UNL1       -0.2826
     17 H           3.5956   -2.1354   28.2840 H       1  UNL1        0.1549
     18 C           3.9730   -1.2193   26.3568 C.ar    1  UNL1        0.0505
     19 C           4.5522   -2.0287   25.2346 C.ar    1  UNL1        0.0178
     20 C           4.2731   -1.6453   23.8116 C.ar    1  UNL1        0.0388
     21 C           3.4147   -0.4526   23.5107 C.ar    1  UNL1        0.1454
     22 C           2.8354    0.3568   24.6329 C.ar    1  UNL1        0.0388
     23 C           3.1146   -0.0265   26.0559 C.ar    1  UNL1        0.0178
     24 O           3.1355   -0.0692   22.0876 O.3     1  UNL1       -0.4535
     25 C           3.8363   -0.7802   20.9681 C.ar    1  UNL1        0.1454
     26 C           5.2088   -0.3459   20.5465 C.ar    1  UNL1        0.0398
     27 C           5.9095   -1.0569   19.4269 C.ar    1  UNL1        0.0328
     28 C           5.2379   -2.2022   18.7290 C.ar    1  UNL1        0.1403
     29 F           5.9387   -2.9132   17.6095 F       1  UNL1       -0.2042
     30 C           3.8654   -2.6365   19.1506 C.ar    1  UNL1        0.0328
     31 C           3.1646   -1.9255   20.2701 C.ar    1  UNL1        0.0398
     32 C           7.0521   -5.3690   30.0865 C.3     1  UNL1        0.1303
     33 C           7.7864   -6.3775   29.2536 C.ar    1  UNL1        0.0634
     34 C           9.1054   -7.0071   29.5909 C.ar    1  UNL1        0.1136
     35 N           9.4647   -7.9523   28.4829 N.ar    1  UNL1       -0.2229
     36 C           8.3677   -7.9068   27.4609 C.ar    1  UNL1        0.1748
     37 N           7.3304   -6.9336   27.9372 N.ar    1  UNL1       -0.3378
     38 H           6.4967   -6.7007   27.4682 H       1  UNL1        0.1672
@<TRIPOS>BOND
     1    14    15    2
     2    15    16   am
     3    16    18    1
     4    18    19   ar
     5    19    20   ar
     6    20    21   ar
     7    21    24    1
     8    24    25    1
     9    25    26   ar
    10    26    27   ar
    11    27    28   ar
    12    28    29    1
    13    28    30   ar
    14    30    31   ar
    15    21    22   ar
    16    22    23   ar
    17     1    15    1
    18     1     2    1
    19     2     3    1
    20     3     8    1
    21     8     9   ar
    22     9    10   ar
    23    10    11   ar
    24    11    12   ar
    25    12    13   ar
    26     3     4    1
    27     4     5    1
    28     5     6   am
    29     6     7    2
    30     6    32    1
    31    32    33    1
    32    33    34   ar
    33    34    35   ar
    34    35    36   ar
    35    36    37   ar
    36    23    18   ar
    37     5     1    1
    38    37    33   ar
    39    31    25   ar
    40    13     8   ar
    41    16    17    1
    42    37    38    1
@<TRIPOS>MOLECULE
*****
 38 42 0 0 0
SMALL
GASTEIGER

@<TRIPOS>ATOM
      1 C           6.2410   -3.3946   25.2459 C.3     1  UNL1        0.1524
      2 C           7.0614   -4.6467   25.3413 C.3     1  UNL1        0.0353
      3 C           7.2493   -4.9682   26.7944 C.3     1  UNL1        0.0443
      4 C           6.5449   -3.9146   27.5970 C.3     1  UNL1        0.0982
      5 N           5.9218   -2.9422   26.6399 N.am    1  UNL1       -0.2723
      6 C           5.1202   -1.7301   27.0116 C.2     1  UNL1        0.2320
      7 O           4.5567   -0.8457   25.9391 O.2     1  UNL1       -0.2744
      8 C           8.0082   -6.1377   27.3478 C.ar    1  UNL1       -0.0208
      9 C           7.9984   -7.4499   26.6210 C.ar    1  UNL1       -0.0042
     10 C           8.7573   -8.6194   27.1744 C.ar    1  UNL1       -0.0003
     11 C           9.5261   -8.4767   28.4544 C.ar    1  UNL1       -0.0000
     12 C           9.5360   -7.1645   29.1812 C.ar    1  UNL1       -0.0003
     13 C           8.7770   -5.9950   28.6278 C.ar    1  UNL1       -0.0042
     14 O           6.7210   -1.7159   23.3220 O.2     1  UNL1       -0.2730
     15 C           5.8146   -2.7144   23.9788 C.2     1  UNL1        0.2442
     16 N           4.4819   -3.0326   23.3685 N.am    1  UNL1       -0.2826
     17 H           3.8870   -3.6880   23.7996 H       1  UNL1        0.1549
     18 C           4.0555   -2.3524   22.1014 C.ar    1  UNL1        0.0505
     19 C           3.1606   -1.1501   22.1601 C.ar    1  UNL1        0.0178
     20 C           2.7343   -0.4699   20.8930 C.ar    1  UNL1        0.0388
     21 C           3.2028   -0.9921   19.5672 C.ar    1  UNL1        0.1454
     22 C           4.0977   -2.1944   19.5085 C.ar    1  UNL1        0.0388
     23 C           4.5240   -2.8746   20.7756 C.ar    1  UNL1        0.0178
     24 O           2.7764   -0.3118   18.3001 O.3     1  UNL1       -0.4535
     25 C           2.3170    1.1157   18.3331 C.ar    1  UNL1        0.1454
     26 C           3.3238    2.2273   18.3545 C.ar    1  UNL1        0.0398
     27 C           2.8643    3.6549   18.3875 C.ar    1  UNL1        0.0328
     28 C           1.3980    3.9707   18.3993 C.ar    1  UNL1        0.1403
     29 F           0.9386    5.3982   18.4323 F       1  UNL1       -0.2042
     30 C           0.3912    2.8590   18.3779 C.ar    1  UNL1        0.0328
     31 C           0.8506    1.4316   18.3449 C.ar    1  UNL1        0.0398
     32 C           4.8820   -1.4023   28.4559 C.3     1  UNL1        0.1303
     33 C           3.5262   -0.9469   28.9080 C.ar    1  UNL1        0.0634
     34 C           3.1219   -0.6502   30.3217 C.ar    1  UNL1        0.1136
     35 N           1.6825   -0.2281   30.3132 N.ar    1  UNL1       -0.2229
     36 C           1.1973   -0.2641   28.8943 C.ar    1  UNL1        0.1748
     37 N           2.3368   -0.7083   28.0258 N.ar    1  UNL1       -0.3378
     38 H           2.3089   -0.8231   27.0485 H       1  UNL1        0.1672
@<TRIPOS>BOND
     1    14    15    2
     2    15    16   am
     3    16    18    1
     4    18    19   ar
     5    19    20   ar
     6    20    21   ar
     7    21    24    1
     8    24    25    1
     9    25    26   ar
    10    26    27   ar
    11    27    28   ar
    12    28    29    1
    13    28    30   ar
    14    30    31   ar
    15    21    22   ar
    16    22    23   ar
    17     1    15    1
    18     1     2    1
    19     2     3    1
    20     3     8    1
    21     8     9   ar
    22     9    10   ar
    23    10    11   ar
    24    11    12   ar
    25    12    13   ar
    26     3     4    1
    27     4     5    1
    28     5     6   am
    29     6     7    2
    30     6    32    1
    31    32    33    1
    32    33    34   ar
    33    34    35   ar
    34    35    36   ar
    35    36    37   ar
    36    23    18   ar
    37     5     1    1
    38    37    33   ar
    39    31    25   ar
    40    13     8   ar
    41    16    17    1
    42    37    38    1
@<TRIPOS>MOLECULE
*****
 38 42 0 0 0
SMALL
GASTEIGER

@<TRIPOS>ATOM
      1 C          -1.3612    3.3412   21.6911 C.3     1  UNL1        0.1524
      2 C          -1.7738    3.4321   23.1303 C.3     1  UNL1        0.0353
      3 C          -3.0112    4.2769   23.2053 C.3     1  UNL1        0.0443
      4 C          -3.3632    4.7079   21.8123 C.3     1  UNL1        0.0982
      5 N          -2.3435    4.1296   20.8765 N.am    1  UNL1       -0.2723
      6 C          -2.3115    4.3083   19.3875 C.2     1  UNL1        0.2320
      7 O          -1.2241    3.6662   18.5782 O.2     1  UNL1       -0.2744
      8 C          -3.7642    4.6287   24.4539 C.ar    1  UNL1       -0.0208
      9 C          -4.8023    5.7111   24.4238 C.ar    1  UNL1       -0.0042
     10 C          -5.5553    6.0630   25.6724 C.ar    1  UNL1       -0.0003
     11 C          -5.2703    5.3325   26.9512 C.ar    1  UNL1       -0.0000
     12 C          -4.2322    4.2501   26.9812 C.ar    1  UNL1       -0.0003
     13 C          -3.4791    3.8983   25.7326 C.ar    1  UNL1       -0.0042
     14 O           1.2090    3.1312   21.3744 O.2     1  UNL1       -0.2730
     15 C          -0.1746    2.5930   21.1597 C.2     1  UNL1        0.2442
     16 N          -0.3716    1.3067   20.4137 N.am    1  UNL1       -0.2826
     17 H          -1.2796    0.9535   20.2728 H       1  UNL1        0.1549
     18 C           0.8151    0.5586   19.8823 C.ar    1  UNL1        0.0505
     19 C           1.4264    0.9555   18.5713 C.ar    1  UNL1        0.0178
     20 C           2.6129    0.2074   18.0400 C.ar    1  UNL1        0.0388
     21 C           3.1882   -0.9377   18.8197 C.ar    1  UNL1        0.1454
     22 C           2.5769   -1.3346   20.1307 C.ar    1  UNL1        0.0388
     23 C           1.3903   -0.5865   20.6620 C.ar    1  UNL1        0.0178
     24 O           4.3748   -1.6858   18.2884 O.3     1  UNL1       -0.4535
     25 C           5.4802   -2.0952   19.2160 C.ar    1  UNL1        0.1454
     26 C           5.6255   -3.5320   19.6215 C.ar    1  UNL1        0.0398
     27 C           6.7310   -3.9414   20.5491 C.ar    1  UNL1        0.0328
     28 C           7.6910   -2.9139   21.0713 C.ar    1  UNL1        0.1403
     29 F           8.7964   -3.3233   21.9989 F       1  UNL1       -0.2042
     30 C           7.5457   -1.4771   20.6658 C.ar    1  UNL1        0.0328
     31 C           6.4403   -1.0677   19.7382 C.ar    1  UNL1        0.0398
     32 C          -3.3671    5.1292   18.7079 C.3     1  UNL1        0.1303
     33 C          -4.7741    4.6169   18.6189 C.ar    1  UNL1        0.0634
     34 C          -5.9641    5.3884   18.1302 C.ar    1  UNL1        0.1136
     35 N          -7.1636    4.4914   18.2123 N.ar    1  UNL1       -0.2229
     36 C          -6.7149    3.1657   18.7517 C.ar    1  UNL1        0.1748
     37 N          -5.2382    3.2432   19.0030 N.ar    1  UNL1       -0.3378
     38 H          -4.6728    2.5195   19.3578 H       1  UNL1        0.1672
@<TRIPOS>BOND
     1    14    15    2
     2    15    16   am
     3    16    18    1
     4    18    19   ar
     5    19    20   ar
     6    20    21   ar
     7    21    24    1
     8    24    25    1
     9    25    26   ar
    10    26    27   ar
    11    27    28   ar
    12    28    29    1
    13    28    30   ar
    14    30    31   ar
    15    21    22   ar
    16    22    23   ar
    17     1    15    1
    18     1     2    1
    19     2     3    1
    20     3     8    1
    21     8     9   ar
    22     9    10   ar
    23    10    11   ar
    24    11    12   ar
    25    12    13   ar
    26     3     4    1
    27     4     5    1
    28     5     6   am
    29     6     7    2
    30     6    32    1
    31    32    33    1
    32    33    34   ar
    33    34    35   ar
    34    35    36   ar
    35    36    37   ar
    36    23    18   ar
    37     5     1    1
    38    37    33   ar
    39    31    25   ar
    40    13     8   ar
    41    16    17    1
    42    37    38    1
@<TRIPOS>MOLECULE
*****
 38 42 0 0 0
SMALL
GASTEIGER

@<TRIPOS>ATOM
      1 C           4.6751   -0.5639   33.7179 C.3     1  UNL1        0.1524
      2 C           4.8223   -0.1442   35.1504 C.3     1  UNL1        0.0353
      3 C           3.9967    1.0907   35.3588 C.3     1  UNL1        0.0443
      4 C           3.3393    1.4342   34.0549 C.3     1  UNL1        0.0982
      5 N           3.7586    0.4116   33.0408 N.am    1  UNL1       -0.2723
      6 C           3.3357    0.3714   31.6023 C.2     1  UNL1        0.2320
      7 O           3.8391   -0.7181   30.7026 O.2     1  UNL1       -0.2744
      8 C           3.8536    1.8490   36.6450 C.ar    1  UNL1       -0.0208
      9 C           2.6197    2.6620   36.9031 C.ar    1  UNL1       -0.0042
     10 C           2.4767    3.4203   38.1894 C.ar    1  UNL1       -0.0003
     11 C           3.5675    3.3656   39.2175 C.ar    1  UNL1       -0.0000
     12 C           4.8014    2.5527   38.9594 C.ar    1  UNL1       -0.0003
     13 C           4.9445    1.7944   37.6732 C.ar    1  UNL1       -0.0042
     14 O           4.8042   -3.1309   33.3385 O.2     1  UNL1       -0.2730
     15 C           5.3296   -1.7508   33.0752 C.2     1  UNL1        0.2442
     16 N           6.5094   -1.5576   32.1693 N.am    1  UNL1       -0.2826
     17 H           6.8542   -0.6518   31.9966 H       1  UNL1        0.1549
     18 C           7.1639   -2.7445   31.5267 C.ar    1  UNL1        0.0505
     19 C           6.4794   -3.4598   30.3999 C.ar    1  UNL1        0.0178
     20 C           7.1339   -4.6466   29.7573 C.ar    1  UNL1        0.0388
     21 C           8.4729   -5.1182   30.2415 C.ar    1  UNL1        0.1454
     22 C           9.1575   -4.4030   31.3683 C.ar    1  UNL1        0.0388
     23 C           8.5030   -3.2162   32.0109 C.ar    1  UNL1        0.0178
     24 O           9.1274   -6.3052   29.5988 O.3     1  UNL1       -0.4535
     25 C           8.8647   -6.6162   28.1552 C.ar    1  UNL1        0.1454
     26 C           9.3864   -5.7045   27.0844 C.ar    1  UNL1        0.0398
     27 C           9.1236   -6.0156   25.6407 C.ar    1  UNL1        0.0328
     28 C           8.3391   -7.2385   25.2679 C.ar    1  UNL1        0.1403
     29 F           8.0763   -7.5496   23.8242 F       1  UNL1       -0.2042
     30 C           7.8173   -8.1503   26.3386 C.ar    1  UNL1        0.0328
     31 C           8.0801   -7.8392   27.7822 C.ar    1  UNL1        0.0398
     32 C           2.4092    1.4208   31.0633 C.3     1  UNL1        0.1303
     33 C           1.3453    1.0460   30.0746 C.ar    1  UNL1        0.0634
     34 C           0.4016    1.9923   29.3937 C.ar    1  UNL1        0.1136
     35 N          -0.4887    1.1901   28.4915 N.ar    1  UNL1       -0.2229
     36 C          -0.0951   -0.2520   28.6149 C.ar    1  UNL1        0.1748
     37 N           1.0383   -0.3411   29.5933 N.ar    1  UNL1       -0.3378
     38 H           1.4997   -1.1653   29.8709 H       1  UNL1        0.1672
@<TRIPOS>BOND
     1    14    15    2
     2    15    16   am
     3    16    18    1
     4    18    19   ar
     5    19    20   ar
     6    20    21   ar
     7    21    24    1
     8    24    25    1
     9    25    26   ar
    10    26    27   ar
    11    27    28   ar
    12    28    29    1
    13    28    30   ar
    14    30    31   ar
    15    21    22   ar
    16    22    23   ar
    17     1    15    1
    18     1     2    1
    19     2     3    1
    20     3     8    1
    21     8     9   ar
    22     9    10   ar
    23    10    11   ar
    24    11    12   ar
    25    12    13   ar
    26     3     4    1
    27     4     5    1
    28     5     6   am
    29     6     7    2
    30     6    32    1
    31    32    33    1
    32    33    34   ar
    33    34    35   ar
    34    35    36   ar
    35    36    37   ar
    36    23    18   ar
    37     5     1    1
    38    37    33   ar
    39    31    25   ar
    40    13     8   ar
    41    16    17    1
    42    37    38    1
@<TRIPOS>MOLECULE
*****
 38 42 0 0 0
SMALL
GASTEIGER

@<TRIPOS>ATOM
      1 C           3.8255   -1.1235   23.6345 C.3     1  UNL1        0.1524
      2 C           4.7342   -1.8309   24.5956 C.3     1  UNL1        0.0353
      3 C           5.4076   -2.9504   23.8584 C.3     1  UNL1        0.0443
      4 C           4.9149   -2.9349   22.4417 C.3     1  UNL1        0.0982
      5 N           3.9372   -1.8058   22.3033 N.am    1  UNL1       -0.2723
      6 C           3.2004   -1.4257   21.0533 C.2     1  UNL1        0.2320
      7 O           2.2489   -0.2661   21.0666 O.2     1  UNL1       -0.2744
      8 C           6.3993   -3.9159   24.4365 C.ar    1  UNL1       -0.0208
      9 C           6.6121   -3.9743   25.9202 C.ar    1  UNL1       -0.0042
     10 C           7.6039   -4.9398   26.4982 C.ar    1  UNL1       -0.0003
     11 C           8.3829   -5.8469   25.5925 C.ar    1  UNL1       -0.0000
     12 C           8.1701   -5.7886   24.1088 C.ar    1  UNL1       -0.0003
     13 C           7.1784   -4.8231   23.5308 C.ar    1  UNL1       -0.0042
     14 O           3.5821    1.3886   24.2509 O.2     1  UNL1       -0.2730
     15 C           2.9574    0.0586   23.9493 C.2     1  UNL1        0.2442
     16 N           1.4648   -0.0892   23.9625 N.am    1  UNL1       -0.2826
     17 H           1.0549   -0.9621   23.7645 H       1  UNL1        0.1549
     18 C           0.5968    1.0930   24.2773 C.ar    1  UNL1        0.0505
     19 C           0.3611    2.1484   23.2379 C.ar    1  UNL1        0.0178
     20 C          -0.5069    3.3305   23.5528 C.ar    1  UNL1        0.0388
     21 C          -1.1392    3.4571   24.9071 C.ar    1  UNL1        0.1454
     22 C          -0.9035    2.4017   25.9465 C.ar    1  UNL1        0.0388
     23 C          -0.0355    1.2197   25.6317 C.ar    1  UNL1        0.0178
     24 O          -2.0073    4.6393   25.2219 O.3     1  UNL1       -0.4535
     25 C          -3.4827    4.5775   24.9592 C.ar    1  UNL1        0.1454
     26 C          -3.9980    3.8812   23.7346 C.ar    1  UNL1        0.0398
     27 C          -5.4736    3.8194   23.4719 C.ar    1  UNL1        0.0328
     28 C          -6.4338    4.4540   24.4337 C.ar    1  UNL1        0.1403
     29 F          -7.9093    4.3922   24.1710 F       1  UNL1       -0.2042
     30 C          -5.9186    5.1504   25.6583 C.ar    1  UNL1        0.0328
     31 C          -4.4431    5.2122   25.9211 C.ar    1  UNL1        0.0398
     32 C           3.4151   -2.2051   19.7897 C.3     1  UNL1        0.1303
     33 C           4.6007   -1.9110   18.9193 C.ar    1  UNL1        0.0634
     34 C           5.5436   -2.9245   18.3417 C.ar    1  UNL1        0.1136
     35 N           6.5773   -2.1915   17.5390 N.ar    1  UNL1       -0.2229
     36 C           6.2732   -0.7250   17.6205 C.ar    1  UNL1        0.1748
     37 N           5.0516   -0.5515   18.4736 N.ar    1  UNL1       -0.3378
     38 H           4.6214    0.3043   18.7010 H       1  UNL1        0.1672
@<TRIPOS>BOND
     1    14    15    2
     2    15    16   am
     3    16    18    1
     4    18    19   ar
     5    19    20   ar
     6    20    21   ar
     7    21    24    1
     8    24    25    1
     9    25    26   ar
    10    26    27   ar
    11    27    28   ar
    12    28    29    1
    13    28    30   ar
    14    30    31   ar
    15    21    22   ar
    16    22    23   ar
    17     1    15    1
    18     1     2    1
    19     2     3    1
    20     3     8    1
    21     8     9   ar
    22     9    10   ar
    23    10    11   ar
    24    11    12   ar
    25    12    13   ar
    26     3     4    1
    27     4     5    1
    28     5     6   am
    29     6     7    2
    30     6    32    1
    31    32    33    1
    32    33    34   ar
    33    34    35   ar
    34    35    36   ar
    35    36    37   ar
    36    23    18   ar
    37     5     1    1
    38    37    33   ar
    39    31    25   ar
    40    13     8   ar
    41    16    17    1
    42    37    38    1
@<TRIPOS>MOLECULE
*****
 38 42 0 0 0
SMALL
GASTEIGER

@<TRIPOS>ATOM
      1 C          -1.2731    3.1423   23.7911 C.3     1  UNL1        0.1524
      2 C          -2.4779    4.0313   23.7020 C.3     1  UNL1        0.0353
      3 C          -3.1149    4.0860   25.0591 C.3     1  UNL1        0.0443
      4 C          -2.3036    3.2308   25.9867 C.3     1  UNL1        0.0982
      5 N          -1.1653    2.6475   25.2030 N.am    1  UNL1       -0.2723
      6 C          -0.1054    1.7305   25.7374 C.2     1  UNL1        0.2320
      7 O           0.9762    1.2247   24.8295 O.2     1  UNL1       -0.2744
      8 C          -4.3467    4.8600   25.4243 C.ar    1  UNL1       -0.0208
      9 C          -5.2200    5.4320   24.3471 C.ar    1  UNL1       -0.0042
     10 C          -6.4518    6.2060   24.7123 C.ar    1  UNL1       -0.0003
     11 C          -6.8105    6.4080   26.1547 C.ar    1  UNL1       -0.0000
     12 C          -5.9372    5.8360   27.2319 C.ar    1  UNL1       -0.0003
     13 C          -4.7054    5.0620   26.8667 C.ar    1  UNL1       -0.0042
     14 O           0.6469    3.8271   22.1802 O.2     1  UNL1       -0.2730
     15 C          -0.3398    2.8069   22.6656 C.2     1  UNL1        0.2442
     16 N          -0.3932    1.4514   22.0256 N.am    1  UNL1       -0.2826
     17 H          -1.0408    0.7818   22.3442 H       1  UNL1        0.1549
     18 C           0.5401    1.1160   20.9002 C.ar    1  UNL1        0.0505
     19 C           1.7143    0.2147   21.1428 C.ar    1  UNL1        0.0178
     20 C           2.6475   -0.1206   20.0174 C.ar    1  UNL1        0.0388
     21 C           2.4065    0.4453   18.6493 C.ar    1  UNL1        0.1454
     22 C           1.2323    1.3466   18.4066 C.ar    1  UNL1        0.0388
     23 C           0.2991    1.6819   19.5321 C.ar    1  UNL1        0.0178
     24 O           3.3398    0.1099   17.5238 O.3     1  UNL1       -0.4535
     25 C           4.6341   -0.5931   17.8071 C.ar    1  UNL1        0.1454
     26 C           4.6613   -2.0861   17.9489 C.ar    1  UNL1        0.0398
     27 C           5.9558   -2.7891   18.2321 C.ar    1  UNL1        0.0328
     28 C           7.2230   -1.9991   18.3736 C.ar    1  UNL1        0.1403
     29 F           8.5174   -2.7022   18.6568 F       1  UNL1       -0.2042
     30 C           7.1958   -0.5061   18.2318 C.ar    1  UNL1        0.0328
     31 C           5.9014    0.1969   17.9486 C.ar    1  UNL1        0.0398
     32 C          -0.1269    1.3194   27.1798 C.3     1  UNL1        0.1303
     33 C           0.9951    0.4982   27.7425 C.ar    1  UNL1        0.0634
     34 C           1.0178   -0.1568   29.0918 C.ar    1  UNL1        0.1136
     35 N           2.3282   -0.8720   29.2379 N.ar    1  UNL1       -0.2229
     36 C           3.1154   -0.6589   27.9790 C.ar    1  UNL1        0.1748
     37 N           2.2915    0.1879   27.0548 N.ar    1  UNL1       -0.3378
     38 H           2.5554    0.4874   26.1548 H       1  UNL1        0.1672
@<TRIPOS>BOND
     1    14    15    2
     2    15    16   am
     3    16    18    1
     4    18    19   ar
     5    19    20   ar
     6    20    21   ar
     7    21    24    1
     8    24    25    1
     9    25    26   ar
    10    26    27   ar
    11    27    28   ar
    12    28    29    1
    13    28    30   ar
    14    30    31   ar
    15    21    22   ar
    16    22    23   ar
    17     1    15    1
    18     1     2    1
    19     2     3    1
    20     3     8    1
    21     8     9   ar
    22     9    10   ar
    23    10    11   ar
    24    11    12   ar
    25    12    13   ar
    26     3     4    1
    27     4     5    1
    28     5     6   am
    29     6     7    2
    30     6    32    1
    31    32    33    1
    32    33    34   ar
    33    34    35   ar
    34    35    36   ar
    35    36    37   ar
    36    23    18   ar
    37     5     1    1
    38    37    33   ar
    39    31    25   ar
    40    13     8   ar
    41    16    17    1
    42    37    38    1
@<TRIPOS>MOLECULE
*****
 38 42 0 0 0
SMALL
GASTEIGER

@<TRIPOS>ATOM
      1 C           4.0491   -1.2107   25.4911 C.3     1  UNL1        0.1524
      2 C           3.5303   -1.2335   24.0838 C.3     1  UNL1        0.0353
      3 C           4.3273   -2.2432   23.3122 C.3     1  UNL1        0.0443
      4 C           5.3387   -2.8445   24.2427 C.3     1  UNL1        0.0982
      5 N           5.1667   -2.2064   25.5892 N.am    1  UNL1       -0.2723
      6 C           5.9711   -2.5104   26.8182 C.2     1  UNL1        0.2320
      7 O           5.6831   -1.7881   28.1009 O.2     1  UNL1       -0.2744
      8 C           4.1450   -2.5907   21.8645 C.ar    1  UNL1       -0.0208
      9 C           3.5123   -1.6026   20.9299 C.ar    1  UNL1       -0.0042
     10 C           3.3300   -1.9500   19.4822 C.ar    1  UNL1       -0.0003
     11 C           3.7803   -3.2856   18.9690 C.ar    1  UNL1       -0.0000
     12 C           4.4129   -4.2738   19.9035 C.ar    1  UNL1       -0.0003
     13 C           4.5953   -3.9263   21.3513 C.ar    1  UNL1       -0.0042
     14 O           3.8560    1.1218   26.6188 O.2     1  UNL1       -0.2730
     15 C           3.5397   -0.3444   26.6046 C.2     1  UNL1        0.2442
     16 N           2.7141   -0.9442   27.7039 N.am    1  UNL1       -0.2826
     17 H           2.5065   -1.9065   27.6945 H       1  UNL1        0.1549
     18 C           2.2046   -0.0779   28.8175 C.ar    1  UNL1        0.0505
     19 C           0.9260    0.6876   28.6473 C.ar    1  UNL1        0.0178
     20 C           0.4166    1.5539   29.7608 C.ar    1  UNL1        0.0388
     21 C           1.1859    1.6548   31.0445 C.ar    1  UNL1        0.1454
     22 C           2.4646    0.8893   31.2147 C.ar    1  UNL1        0.0388
     23 C           2.9739    0.0230   30.1012 C.ar    1  UNL1        0.0178
     24 O           0.6765    2.5211   32.1581 O.3     1  UNL1       -0.4535
     25 C           1.6431    3.2533   33.0410 C.ar    1  UNL1        0.1454
     26 C           2.1354    4.6145   32.6474 C.ar    1  UNL1        0.0398
     27 C           3.1020    5.3467   33.5303 C.ar    1  UNL1        0.0328
     28 C           3.5764    4.7177   34.8067 C.ar    1  UNL1        0.1403
     29 F           4.5430    5.4499   35.6896 F       1  UNL1       -0.2042
     30 C           3.0841    3.3565   35.2003 C.ar    1  UNL1        0.0328
     31 C           2.1175    2.6243   34.3175 C.ar    1  UNL1        0.0398
     32 C           7.0636   -3.5370   26.7646 C.3     1  UNL1        0.1303
     33 C           7.1954   -4.5501   27.8629 C.ar    1  UNL1        0.0634
     34 C           7.9962   -5.8170   27.8023 C.ar    1  UNL1        0.1136
     35 N           7.8453   -6.5241   29.1165 N.ar    1  UNL1       -0.2229
     36 C           6.9512   -5.6941   29.9893 C.ar    1  UNL1        0.1748
     37 N           6.5496   -4.4742   29.2146 N.ar    1  UNL1       -0.3378
     38 H           5.9647   -3.7507   29.5367 H       1  UNL1        0.1672
@<TRIPOS>BOND
     1    14    15    2
     2    15    16   am
     3    16    18    1
     4    18    19   ar
     5    19    20   ar
     6    20    21   ar
     7    21    24    1
     8    24    25    1
     9    25    26   ar
    10    26    27   ar
    11    27    28   ar
    12    28    29    1
    13    28    30   ar
    14    30    31   ar
    15    21    22   ar
    16    22    23   ar
    17     1    15    1
    18     1     2    1
    19     2     3    1
    20     3     8    1
    21     8     9   ar
    22     9    10   ar
    23    10    11   ar
    24    11    12   ar
    25    12    13   ar
    26     3     4    1
    27     4     5    1
    28     5     6   am
    29     6     7    2
    30     6    32    1
    31    32    33    1
    32    33    34   ar
    33    34    35   ar
    34    35    36   ar
    35    36    37   ar
    36    23    18   ar
    37     5     1    1
    38    37    33   ar
    39    31    25   ar
    40    13     8   ar
    41    16    17    1
    42    37    38    1
@<TRIPOS>MOLECULE
*****
 38 42 0 0 0
SMALL
GASTEIGER

@<TRIPOS>ATOM
      1 C          -0.2203    2.4738   26.4777 C.3     1  UNL1        0.1524
      2 C          -1.4747    3.1212   26.9852 C.3     1  UNL1        0.0353
      3 C          -2.3379    3.4492   25.8030 C.3     1  UNL1        0.0443
      4 C          -1.6169    3.0045   24.5651 C.3     1  UNL1        0.0982
      5 N          -0.3082    2.4017   24.9821 N.am    1  UNL1       -0.2723
      6 C           0.7302    1.8276   24.0646 C.2     1  UNL1        0.2320
      7 O           1.9970    1.2564   24.6295 O.2     1  UNL1       -0.2744
      8 C          -3.6854    4.1065   25.8505 C.ar    1  UNL1       -0.0208
      9 C          -4.0481    4.9910   27.0064 C.ar    1  UNL1       -0.0042
     10 C          -5.3955    5.6483   27.0540 C.ar    1  UNL1       -0.0003
     11 C          -6.3803    5.4210   25.9456 C.ar    1  UNL1       -0.0000
     12 C          -6.0176    4.5365   24.7897 C.ar    1  UNL1       -0.0003
     13 C          -4.6701    3.8792   24.7422 C.ar    1  UNL1       -0.0042
     14 O           1.8856    2.9649   27.9179 O.2     1  UNL1       -0.2730
     15 C           0.9215    1.9845   27.3185 C.2     1  UNL1        0.2442
     16 N           1.0992    0.5148   27.5598 N.am    1  UNL1       -0.2826
     17 H           0.4664   -0.1287   27.1664 H       1  UNL1        0.1549
     18 C           2.2411    0.0254   28.4006 C.ar    1  UNL1        0.0505
     19 C           3.5920   -0.1827   27.7829 C.ar    1  UNL1        0.0178
     20 C           4.7338   -0.6720   28.6236 C.ar    1  UNL1        0.0388
     21 C           4.5246   -0.9532   30.0821 C.ar    1  UNL1        0.1454
     22 C           3.1737   -0.7451   30.6998 C.ar    1  UNL1        0.0388
     23 C           2.0319   -0.2558   29.8591 C.ar    1  UNL1        0.0178
     24 O           5.6664   -1.4426   30.9229 O.3     1  UNL1       -0.4535
     25 C           6.2600   -2.7961   30.6670 C.ar    1  UNL1        0.1454
     26 C           6.4766   -3.7477   31.8062 C.ar    1  UNL1        0.0398
     27 C           7.0702   -5.1013   31.5503 C.ar    1  UNL1        0.0328
     28 C           7.4472   -5.5033   30.1552 C.ar    1  UNL1        0.1403
     29 F           8.0408   -6.8569   29.8994 F       1  UNL1       -0.2042
     30 C           7.2307   -4.5518   29.0160 C.ar    1  UNL1        0.0328
     31 C           6.6371   -3.1982   29.2719 C.ar    1  UNL1        0.0398
     32 C           0.5020    1.8245   22.5820 C.3     1  UNL1        0.1303
     33 C           1.0835    0.7310   21.7358 C.ar    1  UNL1        0.0634
     34 C           0.4478    0.1241   20.5203 C.ar    1  UNL1        0.1136
     35 N           1.3743   -0.9296   19.9898 N.ar    1  UNL1       -0.2229
     36 C           2.5826   -0.9739   20.8776 C.ar    1  UNL1        0.1748
     37 N           2.4029    0.0524   21.9566 N.ar    1  UNL1       -0.3378
     38 H           3.0392    0.2465   22.6824 H       1  UNL1        0.1672
@<TRIPOS>BOND
     1    14    15    2
     2    15    16   am
     3    16    18    1
     4    18    19   ar
     5    19    20   ar
     6    20    21   ar
     7    21    24    1
     8    24    25    1
     9    25    26   ar
    10    26    27   ar
    11    27    28   ar
    12    28    29    1
    13    28    30   ar
    14    30    31   ar
    15    21    22   ar
    16    22    23   ar
    17     1    15    1
    18     1     2    1
    19     2     3    1
    20     3     8    1
    21     8     9   ar
    22     9    10   ar
    23    10    11   ar
    24    11    12   ar
    25    12    13   ar
    26     3     4    1
    27     4     5    1
    28     5     6   am
    29     6     7    2
    30     6    32    1
    31    32    33    1
    32    33    34   ar
    33    34    35   ar
    34    35    36   ar
    35    36    37   ar
    36    23    18   ar
    37     5     1    1
    38    37    33   ar
    39    31    25   ar
    40    13     8   ar
    41    16    17    1
    42    37    38    1
@<TRIPOS>MOLECULE
*****
 38 42 0 0 0
SMALL
GASTEIGER

@<TRIPOS>ATOM
      1 C          -1.4695    3.2553   22.7754 C.3     1  UNL1        0.1524
      2 C          -2.6028    4.0400   22.1839 C.3     1  UNL1        0.0353
      3 C          -3.5283    4.4295   23.2984 C.3     1  UNL1        0.0443
      4 C          -2.9668    3.8854   24.5786 C.3     1  UNL1        0.0982
      5 N          -1.6945    3.1597   24.2553 N.am    1  UNL1       -0.2723
      6 C          -0.8035    2.4611   25.2392 C.2     1  UNL1        0.2320
      7 O           0.4434    1.7746   24.7661 O.2     1  UNL1       -0.2744
      8 C          -4.7930    5.2235   23.1574 C.ar    1  UNL1       -0.0208
      9 C          -6.0207    4.5826   22.5813 C.ar    1  UNL1       -0.0042
     10 C          -7.2855    5.3767   22.4403 C.ar    1  UNL1       -0.0003
     11 C          -7.3224    6.8117   22.8755 C.ar    1  UNL1       -0.0000
     12 C          -6.0947    7.4526   23.4516 C.ar    1  UNL1       -0.0003
     13 C          -4.8300    6.6586   23.5925 C.ar    1  UNL1       -0.0042
     14 O           1.0397    3.3094   22.1039 O.2     1  UNL1       -0.2730
     15 C          -0.3141    2.6690   22.0195 C.2     1  UNL1        0.2442
     16 N          -0.5124    1.4424   21.1793 N.am    1  UNL1       -0.2826
     17 H          -1.4010    1.0221   21.1239 H       1  UNL1        0.1549
     18 C           0.6430    0.8561   20.4234 C.ar    1  UNL1        0.0505
     19 C           0.8646    1.2262   18.9868 C.ar    1  UNL1        0.0178
     20 C           2.0200    0.6399   18.2310 C.ar    1  UNL1        0.0388
     21 C           2.9538   -0.3164   18.9118 C.ar    1  UNL1        0.1454
     22 C           2.7322   -0.6864   20.3484 C.ar    1  UNL1        0.0388
     23 C           1.5768   -0.1002   21.1042 C.ar    1  UNL1        0.0178
     24 O           4.1093   -0.9027   18.1559 O.3     1  UNL1       -0.4535
     25 C           5.0243   -1.8836   18.8270 C.ar    1  UNL1        0.1454
     26 C           6.3366   -1.4222   19.3883 C.ar    1  UNL1        0.0398
     27 C           7.2517   -2.4032   20.0595 C.ar    1  UNL1        0.0328
     28 C           6.8544   -3.8455   20.1693 C.ar    1  UNL1        0.1403
     29 F           7.7694   -4.8264   20.8405 F       1  UNL1       -0.2042
     30 C           5.5421   -4.3068   19.6081 C.ar    1  UNL1        0.0328
     31 C           4.6271   -3.3259   18.9369 C.ar    1  UNL1        0.0398
     32 C          -1.1594    2.4490   26.6964 C.3     1  UNL1        0.1303
     33 C          -0.5889    1.3957   27.5991 C.ar    1  UNL1        0.0634
     34 C          -1.3634    0.5477   28.5641 C.ar    1  UNL1        0.1136
     35 N          -0.3969   -0.3667   29.2567 N.ar    1  UNL1       -0.2229
     36 C           0.9748   -0.0838   28.7198 C.ar    1  UNL1        0.1748
     37 N           0.8562    1.0054   27.6954 N.ar    1  UNL1       -0.3378
     38 H           1.5968    1.3955   27.1772 H       1  UNL1        0.1672
@<TRIPOS>BOND
     1    14    15    2
     2    15    16   am
     3    16    18    1
     4    18    19   ar
     5    19    20   ar
     6    20    21   ar
     7    21    24    1
     8    24    25    1
     9    25    26   ar
    10    26    27   ar
    11    27    28   ar
    12    28    29    1
    13    28    30   ar
    14    30    31   ar
    15    21    22   ar
    16    22    23   ar
    17     1    15    1
    18     1     2    1
    19     2     3    1
    20     3     8    1
    21     8     9   ar
    22     9    10   ar
    23    10    11   ar
    24    11    12   ar
    25    12    13   ar
    26     3     4    1
    27     4     5    1
    28     5     6   am
    29     6     7    2
    30     6    32    1
    31    32    33    1
    32    33    34   ar
    33    34    35   ar
    34    35    36   ar
    35    36    37   ar
    36    23    18   ar
    37     5     1    1
    38    37    33   ar
    39    31    25   ar
    40    13     8   ar
    41    16    17    1
    42    37    38    1
