@<TRIPOS>MOLECULE
*****
 28 31 0 0 0
SMALL
GASTEIGER

@<TRIPOS>ATOM
      1 C          -7.5192  -18.2992   20.6409 C.ar    1  UNL1        0.2212
      2 N          -7.3458  -17.5637   21.9366 N.ar    1  UNL1       -0.1948
      3 C          -8.5469  -17.0511   22.6746 C.ar    1  UNL1        0.1667
      4 C          -9.9214  -17.2740   22.1169 C.ar    1  UNL1        0.1117
      5 C         -10.9104  -16.6576   23.0612 C.ar    1  UNL1        0.0968
      6 N         -10.1472  -16.0537   24.2026 N.ar    1  UNL1       -0.2924
      7 N          -8.6864  -16.2969   23.9637 N.ar    1  UNL1       -0.2587
      8 C         -10.0948  -18.0095   20.8212 C.ar    1  UNL1        0.2860
      9 O         -11.4693  -18.2325   20.2634 O.2     1  UNL1       -0.2650
     10 N          -8.8936  -18.5221   20.0832 N.ar    1  UNL1       -0.1749
     11 H         -10.5366  -15.5808   24.9733 H       1  UNL1        0.1871
     12 C          -7.5626  -15.8621   24.8570 C.3     1  UNL1        0.1046
     13 C          -7.6297  -15.7096   26.3477 C.3     1  UNL1        0.0243
     14 C          -6.2828  -15.2568   26.8283 C.3     1  UNL1        0.0021
     15 C          -5.3833  -15.1295   25.6347 C.3     1  UNL1        0.0021
     16 C          -6.1743  -15.5037   24.4164 C.3     1  UNL1        0.0243
     17 N          -6.3181  -18.8117   19.9029 N.pl3   1  UNL1       -0.2968
     18 H          -6.1207  -18.4839   18.9958 H       1  UNL1        0.1500
     19 C          -5.7234  -21.2870   20.4217 C.3     1  UNL1        0.0312
     20 C          -5.4177  -19.8239   20.5470 C.3     1  UNL1        0.1490
     21 C          -4.2116  -19.3730   21.3164 C.2     1  UNL1        0.2436
     22 O          -4.1792  -19.5127   22.8095 O.2     1  UNL1       -0.2731
     23 N          -3.0379  -18.7823   20.5928 N.am    1  UNL1       -0.2753
     24 C          -2.9265  -18.5805   19.1106 C.3     1  UNL1        0.0964
     25 C          -1.5894  -17.9633   18.8261 C.3     1  UNL1        0.0585
     26 C          -0.8743  -17.7836   20.1324 C.3     1  UNL1        0.1824
     27 F           0.4955  -17.2002   20.3148 F       1  UNL1       -0.2354
     28 C          -1.7696  -18.2899   21.2243 C.3     1  UNL1        0.1286
@<TRIPOS>BOND
     1    20    19    1
     2    20    17    1
     3    17     1    1
     4     1     2   ar
     5     2     3   ar
     6     3     4    1
     7     4     5   ar
     8     5     6   ar
     9     6     7   ar
    10     7    12    1
    11    12    13    1
    12    13    14    1
    13    14    15    1
    14    15    16    1
    15     4     8   ar
    16     8     9    2
    17     8    10   ar
    18    20    21    1
    19    21    22    2
    20    21    23   am
    21    23    24    1
    22    24    25    1
    23    25    26    1
    24    26    27    1
    25    26    28    1
    26    10     1   ar
    27    28    23    1
    28     7     3   ar
    29    16    12    1
    30    17    18    1
    31     6    11    1
@<TRIPOS>MOLECULE
*****
 28 31 0 0 0
SMALL
GASTEIGER

@<TRIPOS>ATOM
      1 C          -8.5021  -17.0714   22.0946 C.ar    1  UNL1        0.2212
      2 N          -7.0347  -17.3738   22.1678 N.ar    1  UNL1       -0.1948
      3 C          -6.2132  -16.8333   23.3004 C.ar    1  UNL1        0.1667
      4 C          -6.8590  -15.9903   24.3598 C.ar    1  UNL1        0.1117
      5 C          -5.8018  -15.5990   25.3493 C.ar    1  UNL1        0.0968
      6 N          -4.5025  -16.2002   24.9015 N.ar    1  UNL1       -0.2924
      7 N          -4.7568  -16.9630   23.6352 N.ar    1  UNL1       -0.2587
      8 C          -8.3263  -15.6879   24.2866 C.ar    1  UNL1        0.2860
      9 O          -8.9722  -14.8449   25.3460 O.2     1  UNL1       -0.2650
     10 N          -9.1479  -16.2285   23.1539 N.ar    1  UNL1       -0.1749
     11 H          -3.6352  -16.1099   25.3584 H       1  UNL1        0.1871
     12 C          -3.7342  -17.7222   22.8428 C.3     1  UNL1        0.1046
     13 C          -3.8184  -19.1673   22.4496 C.3     1  UNL1        0.0243
     14 C          -2.5840  -19.5078   21.6683 C.3     1  UNL1        0.0021
     15 C          -1.7369  -18.2731   21.5786 C.3     1  UNL1        0.0021
     16 C          -2.4477  -17.1696   22.3045 C.3     1  UNL1        0.0243
     17 N          -9.3236  -17.6120   20.9619 N.pl3   1  UNL1       -0.2968
     18 H          -9.3665  -17.1238   20.1080 H       1  UNL1        0.1500
     19 C         -10.4749  -19.6976   19.9252 C.3     1  UNL1        0.0312
     20 C         -10.0797  -18.8965   21.1302 C.3     1  UNL1        0.1490
     21 C         -10.4408  -19.3800   22.5035 C.2     1  UNL1        0.2436
     22 O          -9.5681  -20.3822   23.1993 O.2     1  UNL1       -0.2731
     23 N         -11.6744  -18.8613   23.1811 N.am    1  UNL1       -0.2753
     24 C         -12.6385  -17.8624   22.6129 C.3     1  UNL1        0.0964
     25 C         -13.7204  -17.6342   23.6264 C.3     1  UNL1        0.0585
     26 C         -13.4250  -18.4919   24.8210 C.3     1  UNL1        0.1824
     27 F         -14.2494  -18.5764   26.0713 F       1  UNL1       -0.2354
     28 C         -12.1605  -19.2503   24.5458 C.3     1  UNL1        0.1286
@<TRIPOS>BOND
     1    20    19    1
     2    20    17    1
     3    17     1    1
     4     1     2   ar
     5     2     3   ar
     6     3     4    1
     7     4     5   ar
     8     5     6   ar
     9     6     7   ar
    10     7    12    1
    11    12    13    1
    12    13    14    1
    13    14    15    1
    14    15    16    1
    15     4     8   ar
    16     8     9    2
    17     8    10   ar
    18    20    21    1
    19    21    22    2
    20    21    23   am
    21    23    24    1
    22    24    25    1
    23    25    26    1
    24    26    27    1
    25    26    28    1
    26    10     1   ar
    27    28    23    1
    28     7     3   ar
    29    16    12    1
    30    17    18    1
    31     6    11    1
@<TRIPOS>MOLECULE
*****
 28 31 0 0 0
SMALL
GASTEIGER

@<TRIPOS>ATOM
      1 C          -7.9888  -15.7593   22.5313 C.ar    1  UNL1        0.2212
      2 N          -7.1641  -16.9381   22.1068 N.ar    1  UNL1       -0.1948
      3 C          -5.9056  -17.2790   22.8484 C.ar    1  UNL1        0.1667
      4 C          -5.4719  -16.4412   24.0146 C.ar    1  UNL1        0.1117
      5 C          -4.1940  -17.0167   24.5491 C.ar    1  UNL1        0.0968
      6 N          -3.8379  -18.2103   23.7133 N.ar    1  UNL1       -0.2924
      7 N          -4.8957  -18.3724   22.6622 N.ar    1  UNL1       -0.2587
      8 C          -6.2967  -15.2624   24.4391 C.ar    1  UNL1        0.2860
      9 O          -5.8630  -14.4245   25.6053 O.2     1  UNL1       -0.2650
     10 N          -7.5552  -14.9215   23.6974 N.ar    1  UNL1       -0.1749
     11 H          -3.0485  -18.7861   23.8335 H       1  UNL1        0.1871
     12 C          -4.9365  -19.4404   21.6097 C.3     1  UNL1        0.1046
     13 C          -6.1049  -20.3284   21.2994 C.3     1  UNL1        0.0243
     14 C          -5.7064  -21.2447   20.1807 C.3     1  UNL1        0.0021
     15 C          -4.2918  -20.9231   19.7995 C.3     1  UNL1        0.0021
     16 C          -3.8159  -19.8079   20.6828 C.3     1  UNL1        0.0243
     17 N          -9.2473  -15.4184   21.7896 N.pl3   1  UNL1       -0.2968
     18 H          -9.3679  -14.5169   21.4129 H       1  UNL1        0.1500
     19 C         -11.7549  -16.0277   21.4881 C.3     1  UNL1        0.0312
     20 C         -10.3221  -16.4512   21.6220 C.3     1  UNL1        0.1490
     21 C          -9.9643  -17.9076   21.5882 C.2     1  UNL1        0.2436
     22 O          -9.6284  -18.5672   20.2835 O.2     1  UNL1       -0.2731
     23 N          -9.9424  -18.7042   22.8589 N.am    1  UNL1       -0.2753
     24 C         -10.2535  -18.1842   24.2310 C.3     1  UNL1        0.0964
     25 C         -10.1089  -19.3193   25.2007 C.3     1  UNL1        0.0585
     26 C          -9.7084  -20.5410   24.4280 C.3     1  UNL1        0.1824
     27 F          -9.4552  -21.9035   25.0019 F       1  UNL1       -0.2354
     28 C          -9.6054  -20.1608   22.9807 C.3     1  UNL1        0.1286
@<TRIPOS>BOND
     1    20    19    1
     2    20    17    1
     3    17     1    1
     4     1     2   ar
     5     2     3   ar
     6     3     4    1
     7     4     5   ar
     8     5     6   ar
     9     6     7   ar
    10     7    12    1
    11    12    13    1
    12    13    14    1
    13    14    15    1
    14    15    16    1
    15     4     8   ar
    16     8     9    2
    17     8    10   ar
    18    20    21    1
    19    21    22    2
    20    21    23   am
    21    23    24    1
    22    24    25    1
    23    25    26    1
    24    26    27    1
    25    26    28    1
    26    10     1   ar
    27    28    23    1
    28     7     3   ar
    29    16    12    1
    30    17    18    1
    31     6    11    1
@<TRIPOS>MOLECULE
*****
 28 31 0 0 0
SMALL
GASTEIGER

@<TRIPOS>ATOM
      1 C          -6.6370  -17.8901   21.7223 C.ar    1  UNL1        0.2212
      2 N          -8.0880  -17.6512   22.0181 N.ar    1  UNL1       -0.1948
      3 C          -8.4844  -16.7678   23.1637 C.ar    1  UNL1        0.1667
      4 C          -7.4297  -16.1233   24.0136 C.ar    1  UNL1        0.1117
      5 C          -8.1182  -15.3079   25.0677 C.ar    1  UNL1        0.0968
      6 N          -9.5983  -15.4485   24.8693 N.ar    1  UNL1       -0.2924
      7 N          -9.8247  -16.3508   23.6926 N.ar    1  UNL1       -0.2587
      8 C          -5.9787  -16.3621   23.7178 C.ar    1  UNL1        0.2860
      9 O          -4.9240  -15.7176   24.5677 O.2     1  UNL1       -0.2650
     10 N          -5.5824  -17.2456   22.5721 N.ar    1  UNL1       -0.1749
     11 H         -10.2984  -15.0232   25.4155 H       1  UNL1        0.1871
     12 C         -11.1573  -16.7635   23.1415 C.3     1  UNL1        0.1046
     13 C         -11.8466  -16.1579   21.9549 C.3     1  UNL1        0.0243
     14 C         -13.1500  -16.8745   21.7604 C.3     1  UNL1        0.0021
     15 C         -13.2662  -17.9230   22.8267 C.3     1  UNL1        0.0021
     16 C         -12.0347  -17.8544   23.6803 C.3     1  UNL1        0.0243
     17 N          -6.2407  -18.7736   20.5766 N.pl3   1  UNL1       -0.2968
     18 H          -6.6511  -18.6450   19.6910 H       1  UNL1        0.1500
     19 C          -5.5172  -21.2585   20.3500 C.3     1  UNL1        0.0312
     20 C          -5.2192  -19.8529   20.7804 C.3     1  UNL1        0.1490
     21 C          -3.8995  -19.5266   21.4146 C.2     1  UNL1        0.2436
     22 O          -3.6477  -19.8855   22.8490 O.2     1  UNL1       -0.2731
     23 N          -2.8317  -18.8414   20.6143 N.am    1  UNL1       -0.2753
     24 C          -2.9381  -18.4235   19.1777 C.3     1  UNL1        0.0964
     25 C          -1.6423  -17.7777   18.7857 C.3     1  UNL1        0.0585
     26 C          -0.7350  -17.7965   19.9800 C.3     1  UNL1        0.1824
     27 F           0.6621  -17.2533   20.0345 F       1  UNL1       -0.2354
     28 C          -1.4701  -18.4540   21.1102 C.3     1  UNL1        0.1286
@<TRIPOS>BOND
     1    20    19    1
     2    20    17    1
     3    17     1    1
     4     1     2   ar
     5     2     3   ar
     6     3     4    1
     7     4     5   ar
     8     5     6   ar
     9     6     7   ar
    10     7    12    1
    11    12    13    1
    12    13    14    1
    13    14    15    1
    14    15    16    1
    15     4     8   ar
    16     8     9    2
    17     8    10   ar
    18    20    21    1
    19    21    22    2
    20    21    23   am
    21    23    24    1
    22    24    25    1
    23    25    26    1
    24    26    27    1
    25    26    28    1
    26    10     1   ar
    27    28    23    1
    28     7     3   ar
    29    16    12    1
    30    17    18    1
    31     6    11    1
@<TRIPOS>MOLECULE
*****
 28 31 0 0 0
SMALL
GASTEIGER

@<TRIPOS>ATOM
      1 C          -7.8970  -16.0242   23.2023 C.ar    1  UNL1        0.2212
      2 N          -7.2100  -17.0516   22.3523 N.ar    1  UNL1       -0.1948
      3 C          -8.0210  -18.0420   21.5703 C.ar    1  UNL1        0.1667
      4 C          -9.5190  -18.0049   21.6383 C.ar    1  UNL1        0.1117
      5 C         -10.0500  -19.1013   20.7632 C.ar    1  UNL1        0.0968
      6 N          -8.8802  -19.8161   20.1545 N.ar    1  UNL1       -0.2924
      7 N          -7.6262  -19.1614   20.6533 N.ar    1  UNL1       -0.2587
      8 C         -10.2060  -16.9774   22.4882 C.ar    1  UNL1        0.2860
      9 O         -11.7040  -16.9403   22.5563 O.2     1  UNL1       -0.2650
     10 N          -9.3949  -15.9871   23.2702 N.ar    1  UNL1       -0.1749
     11 H          -8.9272  -20.5807   19.5361 H       1  UNL1        0.1871
     12 C          -6.2236  -19.5567   20.2974 C.3     1  UNL1        0.1046
     13 C          -5.1569  -18.6433   19.7704 C.3     1  UNL1        0.0243
     14 C          -3.9156  -19.4570   19.5534 C.3     1  UNL1        0.0021
     15 C          -4.2151  -20.8733   19.9464 C.3     1  UNL1        0.0021
     16 C          -5.6416  -20.9349   20.4062 C.3     1  UNL1        0.0243
     17 N          -7.0859  -15.0339   23.9843 N.pl3   1  UNL1       -0.2968
     18 H          -7.4801  -14.1696   24.2430 H       1  UNL1        0.1500
     19 C          -5.3540  -15.7411   25.7871 C.3     1  UNL1        0.0312
     20 C          -5.6741  -15.3604   24.3720 C.3     1  UNL1        0.1490
     21 C          -4.5824  -15.3062   23.3447 C.2     1  UNL1        0.2436
     22 O          -4.2812  -14.0180   22.6377 O.2     1  UNL1       -0.2731
     23 N          -3.7919  -16.5401   23.0244 N.am    1  UNL1       -0.2753
     24 C          -3.9779  -17.8924   23.6463 C.3     1  UNL1        0.0964
     25 C          -2.9776  -18.8264   23.0323 C.3     1  UNL1        0.0585
     26 C          -2.1734  -18.0514   22.0310 C.3     1  UNL1        0.1824
     27 F          -1.0612  -18.5941   21.1833 F       1  UNL1       -0.2354
     28 C          -2.6767  -16.6383   22.0262 C.3     1  UNL1        0.1286
@<TRIPOS>BOND
     1    20    19    1
     2    20    17    1
     3    17     1    1
     4     1     2   ar
     5     2     3   ar
     6     3     4    1
     7     4     5   ar
     8     5     6   ar
     9     6     7   ar
    10     7    12    1
    11    12    13    1
    12    13    14    1
    13    14    15    1
    14    15    16    1
    15     4     8   ar
    16     8     9    2
    17     8    10   ar
    18    20    21    1
    19    21    22    2
    20    21    23   am
    21    23    24    1
    22    24    25    1
    23    25    26    1
    24    26    27    1
    25    26    28    1
    26    10     1   ar
    27    28    23    1
    28     7     3   ar
    29    16    12    1
    30    17    18    1
    31     6    11    1
@<TRIPOS>MOLECULE
*****
 28 31 0 0 0
SMALL
GASTEIGER

@<TRIPOS>ATOM
      1 C          -8.8540  -17.5098   21.0143 C.ar    1  UNL1        0.2212
      2 N          -7.4220  -17.7601   21.3841 N.ar    1  UNL1       -0.1948
      3 C          -6.7070  -18.9627   20.8434 C.ar    1  UNL1        0.1667
      4 C          -7.4239  -19.9150   19.9327 C.ar    1  UNL1        0.1117
      5 C          -6.4666  -21.0071   19.5575 C.ar    1  UNL1        0.0968
      6 N          -5.1580  -20.7297   20.2362 N.ar    1  UNL1       -0.2924
      7 N          -5.3066  -19.4662   21.0309 N.ar    1  UNL1       -0.2587
      8 C          -8.8559  -19.6646   19.5629 C.ar    1  UNL1        0.2860
      9 O          -9.5729  -20.6169   18.6522 O.2     1  UNL1       -0.2650
     10 N          -9.5709  -18.4619   20.1037 N.ar    1  UNL1       -0.1749
     11 H          -4.3444  -21.2803   20.1714 H       1  UNL1        0.1871
     12 C          -4.2417  -18.8198   21.8665 C.3     1  UNL1        0.1046
     13 C          -2.7720  -18.8073   21.5666 C.3     1  UNL1        0.0243
     14 C          -2.0815  -18.0522   22.6634 C.3     1  UNL1        0.0021
     15 C          -3.1244  -17.5980   23.6412 C.3     1  UNL1        0.0021
     16 C          -4.4594  -18.0724   23.1486 C.3     1  UNL1        0.0243
     17 N          -9.5690  -16.3071   21.5551 N.pl3   1  UNL1       -0.2968
     18 H          -9.3558  -15.4105   21.2087 H       1  UNL1        0.1500
     19 C         -12.0141  -16.0055   22.3800 C.3     1  UNL1        0.0312
     20 C         -10.6089  -16.4705   22.6236 C.3     1  UNL1        0.1490
     21 C         -10.2438  -17.0989   23.9358 C.2     1  UNL1        0.2436
     22 O         -10.9731  -18.3204   24.4111 O.2     1  UNL1       -0.2731
     23 N          -9.1494  -16.5058   24.7728 N.am    1  UNL1       -0.2753
     24 C          -8.3360  -15.2930   24.4298 C.3     1  UNL1        0.0964
     25 C          -7.3602  -15.0590   25.5447 C.3     1  UNL1        0.0585
     26 C          -7.5704  -16.1270   26.5766 C.3     1  UNL1        0.1824
     27 F          -6.8086  -16.2750   27.8603 F       1  UNL1       -0.2354
     28 C          -8.6763  -17.0212   26.0996 C.3     1  UNL1        0.1286
@<TRIPOS>BOND
     1    20    19    1
     2    20    17    1
     3    17     1    1
     4     1     2   ar
     5     2     3   ar
     6     3     4    1
     7     4     5   ar
     8     5     6   ar
     9     6     7   ar
    10     7    12    1
    11    12    13    1
    12    13    14    1
    13    14    15    1
    14    15    16    1
    15     4     8   ar
    16     8     9    2
    17     8    10   ar
    18    20    21    1
    19    21    22    2
    20    21    23   am
    21    23    24    1
    22    24    25    1
    23    25    26    1
    24    26    27    1
    25    26    28    1
    26    10     1   ar
    27    28    23    1
    28     7     3   ar
    29    16    12    1
    30    17    18    1
    31     6    11    1
@<TRIPOS>MOLECULE
*****
 28 31 0 0 0
SMALL
GASTEIGER

@<TRIPOS>ATOM
      1 C          -8.7160  -16.6730   23.2139 C.ar    1  UNL1        0.2212
      2 N          -7.2292  -16.7921   23.0552 N.ar    1  UNL1       -0.1948
      3 C          -6.3167  -16.2755   24.1279 C.ar    1  UNL1        0.1667
      4 C          -6.8910  -15.6399   25.3592 C.ar    1  UNL1        0.1117
      5 C          -5.7511  -15.2252   26.2416 C.ar    1  UNL1        0.0968
      6 N          -4.4722  -15.6046   25.5556 N.ar    1  UNL1       -0.2924
      7 N          -4.8218  -16.2537   24.2492 N.ar    1  UNL1       -0.2587
      8 C          -8.3778  -15.5208   25.5179 C.ar    1  UNL1        0.2860
      9 O          -8.9522  -14.8851   26.7492 O.2     1  UNL1       -0.2650
     10 N          -9.2903  -16.0374   24.4452 N.ar    1  UNL1       -0.1749
     11 H          -3.5631  -15.4539   25.9019 H       1  UNL1        0.1871
     12 C          -3.8474  -16.7873   23.2413 C.3     1  UNL1        0.1046
     13 C          -3.5880  -18.2349   22.9463 C.3     1  UNL1        0.0243
     14 C          -2.5417  -18.3092   21.8741 C.3     1  UNL1        0.0021
     15 C          -2.1545  -16.9075   21.5063 C.3     1  UNL1        0.0021
     16 C          -2.9615  -15.9669   22.3513 C.3     1  UNL1        0.0243
     17 N          -9.6285  -17.1896   22.1412 N.pl3   1  UNL1       -0.2968
     18 H         -10.0951  -16.5592   21.5462 H       1  UNL1        0.1500
     19 C         -11.1382  -19.1923   21.4634 C.3     1  UNL1        0.0312
     20 C          -9.8299  -18.6667   21.9752 C.3     1  UNL1        0.1490
     21 C          -8.7231  -19.6182   22.3211 C.2     1  UNL1        0.2436
     22 O          -8.8419  -20.4997   23.5289 O.2     1  UNL1       -0.2731
     23 N          -7.4975  -19.6883   21.4591 N.am    1  UNL1       -0.2753
     24 C          -7.2386  -18.8733   20.2268 C.3     1  UNL1        0.0964
     25 C          -5.8967  -19.2669   19.6842 C.3     1  UNL1        0.0585
     26 C          -5.3263  -20.3252   20.5812 C.3     1  UNL1        0.1824
     27 F          -3.9995  -21.0039   20.4111 F       1  UNL1       -0.2354
     28 C          -6.3156  -20.5856   21.6782 C.3     1  UNL1        0.1286
@<TRIPOS>BOND
     1    20    19    1
     2    20    17    1
     3    17     1    1
     4     1     2   ar
     5     2     3   ar
     6     3     4    1
     7     4     5   ar
     8     5     6   ar
     9     6     7   ar
    10     7    12    1
    11    12    13    1
    12    13    14    1
    13    14    15    1
    14    15    16    1
    15     4     8   ar
    16     8     9    2
    17     8    10   ar
    18    20    21    1
    19    21    22    2
    20    21    23   am
    21    23    24    1
    22    24    25    1
    23    25    26    1
    24    26    27    1
    25    26    28    1
    26    10     1   ar
    27    28    23    1
    28     7     3   ar
    29    16    12    1
    30    17    18    1
    31     6    11    1
@<TRIPOS>MOLECULE
*****
 28 31 0 0 0
SMALL
GASTEIGER

@<TRIPOS>ATOM
      1 C          -7.0100  -19.1142   20.2750 C.ar    1  UNL1        0.2212
      2 N          -6.6922  -18.2336   21.4469 N.ar    1  UNL1       -0.1948
      3 C          -5.3379  -18.2988   22.0885 C.ar    1  UNL1        0.1667
      4 C          -4.3015  -19.2446   21.5582 C.ar    1  UNL1        0.1117
      5 C          -3.0630  -19.0892   22.3901 C.ar    1  UNL1        0.0968
      6 N          -3.3340  -18.0473   23.4346 N.ar    1  UNL1       -0.2924
      7 N          -4.7399  -17.5587   23.2482 N.ar    1  UNL1       -0.2587
      8 C          -4.6193  -20.1253   20.3863 C.ar    1  UNL1        0.2860
      9 O          -3.5830  -21.0712   19.8560 O.2     1  UNL1       -0.2650
     10 N          -5.9737  -20.0601   19.7447 N.ar    1  UNL1       -0.1749
     11 H          -2.7004  -17.7382   24.1218 H       1  UNL1        0.1871
     12 C          -5.4272  -16.5137   24.0761 C.3     1  UNL1        0.1046
     13 C          -6.6320  -15.7181   23.6692 C.3     1  UNL1        0.0243
     14 C          -6.9797  -14.7934   24.7979 C.3     1  UNL1        0.0021
     15 C          -5.9899  -15.0175   25.9025 C.3     1  UNL1        0.0021
     16 C          -5.0305  -16.0807   25.4564 C.3     1  UNL1        0.0243
     17 N          -8.3644  -19.0490   19.6334 N.pl3   1  UNL1       -0.2968
     18 H          -8.4506  -19.1312   18.6562 H       1  UNL1        0.1500
     19 C         -10.8218  -19.6657   20.2084 C.3     1  UNL1        0.0312
     20 C          -9.5873  -18.8585   20.4809 C.3     1  UNL1        0.1490
     21 C          -9.5757  -17.8607   21.6009 C.2     1  UNL1        0.2436
     22 O          -9.5043  -16.3934   21.2975 O.2     1  UNL1       -0.2731
     23 N          -9.6356  -18.3301   23.0243 N.am    1  UNL1       -0.2753
     24 C          -9.7095  -19.7574   23.4796 C.3     1  UNL1        0.0964
     25 C          -9.7516  -19.7641   24.9789 C.3     1  UNL1        0.0585
     26 C          -9.7037  -18.3409   25.4504 C.3     1  UNL1        0.1824
     27 F          -9.7240  -17.8842   26.8790 F       1  UNL1       -0.2354
     28 C          -9.6320  -17.4546   24.2423 C.3     1  UNL1        0.1286
@<TRIPOS>BOND
     1    20    19    1
     2    20    17    1
     3    17     1    1
     4     1     2   ar
     5     2     3   ar
     6     3     4    1
     7     4     5   ar
     8     5     6   ar
     9     6     7   ar
    10     7    12    1
    11    12    13    1
    12    13    14    1
    13    14    15    1
    14    15    16    1
    15     4     8   ar
    16     8     9    2
    17     8    10   ar
    18    20    21    1
    19    21    22    2
    20    21    23   am
    21    23    24    1
    22    24    25    1
    23    25    26    1
    24    26    27    1
    25    26    28    1
    26    10     1   ar
    27    28    23    1
    28     7     3   ar
    29    16    12    1
    30    17    18    1
    31     6    11    1
@<TRIPOS>MOLECULE
*****
 28 31 0 0 0
SMALL
GASTEIGER

@<TRIPOS>ATOM
      1 C          -8.1115  -16.0653   22.9604 C.ar    1  UNL1        0.2212
      2 N          -7.1434  -17.0798   22.4280 N.ar    1  UNL1       -0.1948
      3 C          -5.7847  -17.2177   23.0485 C.ar    1  UNL1        0.1667
      4 C          -5.3941  -16.3411   24.2013 C.ar    1  UNL1        0.1117
      5 C          -3.9958  -16.7030   24.6059 C.ar    1  UNL1        0.0968
      6 N          -3.5222  -17.8033   23.7031 N.ar    1  UNL1       -0.2924
      7 N          -4.6277  -18.1214   22.7406 N.ar    1  UNL1       -0.2587
      8 C          -6.3622  -15.3266   24.7337 C.ar    1  UNL1        0.2860
      9 O          -5.9717  -14.4499   25.8865 O.2     1  UNL1       -0.2650
     10 N          -7.7210  -15.1887   24.1132 N.ar    1  UNL1       -0.1749
     11 H          -2.6404  -18.2400   23.7365 H       1  UNL1        0.1871
     12 C          -4.5840  -19.1608   21.6599 C.3     1  UNL1        0.1046
     13 C          -5.5322  -20.3129   21.5058 C.3     1  UNL1        0.0243
     14 C          -5.1186  -21.0946   20.2942 C.3     1  UNL1        0.0021
     15 C          -3.9148  -20.4257   19.6996 C.3     1  UNL1        0.0021
     16 C          -3.5845  -19.2306   20.5437 C.3     1  UNL1        0.0243
     17 N          -9.4702  -15.9274   22.3400 N.pl3   1  UNL1       -0.2968
     18 H          -9.7149  -15.0977   21.8700 H       1  UNL1        0.1500
     19 C         -10.8743  -17.5725   23.7795 C.3     1  UNL1        0.0312
     20 C         -10.4561  -17.0539   22.4356 C.3     1  UNL1        0.1490
     21 C         -11.0239  -17.6618   21.1873 C.2     1  UNL1        0.2436
     22 O         -12.4280  -17.3408   20.7684 O.2     1  UNL1       -0.2731
     23 N         -10.1876  -18.5906   20.3579 N.am    1  UNL1       -0.2753
     24 C          -8.7750  -19.0026   20.6492 C.3     1  UNL1        0.0964
     25 C          -8.3315  -19.9372   19.5630 C.3     1  UNL1        0.0585
     26 C          -9.4699  -20.1028   18.6005 C.3     1  UNL1        0.1824
     27 F          -9.4625  -20.9517   17.3638 F       1  UNL1       -0.2354
     28 C         -10.6171  -19.2706   19.0918 C.3     1  UNL1        0.1286
@<TRIPOS>BOND
     1    20    19    1
     2    20    17    1
     3    17     1    1
     4     1     2   ar
     5     2     3   ar
     6     3     4    1
     7     4     5   ar
     8     5     6   ar
     9     6     7   ar
    10     7    12    1
    11    12    13    1
    12    13    14    1
    13    14    15    1
    14    15    16    1
    15     4     8   ar
    16     8     9    2
    17     8    10   ar
    18    20    21    1
    19    21    22    2
    20    21    23   am
    21    23    24    1
    22    24    25    1
    23    25    26    1
    24    26    27    1
    25    26    28    1
    26    10     1   ar
    27    28    23    1
    28     7     3   ar
    29    16    12    1
    30    17    18    1
    31     6    11    1
