@<TRIPOS>MOLECULE
*****
 34 38 0 0 0
SMALL
GASTEIGER

@<TRIPOS>ATOM
      1 C          -4.7389    4.6392   23.8670 C.ar    1  UNL1        0.1059
      2 C          -6.0502    4.4076   23.1765 C.ar    1  UNL1        0.0183
      3 C          -6.1387    4.5059   21.6823 C.ar    1  UNL1        0.0015
      4 C          -4.9157    4.8357   20.8788 C.ar    1  UNL1        0.0045
      5 C          -3.6044    5.0672   21.5693 C.ar    1  UNL1        0.0549
      6 C          -3.5160    4.9690   23.0635 C.ar    1  UNL1        0.0229
      7 C          -2.3816    5.3970   20.7656 C.2     1  UNL1        0.2496
      8 O          -2.1363    6.8075   20.3178 O.2     1  UNL1       -0.2699
      9 N          -1.4040    4.3164   20.4098 N.am    1  UNL1       -0.2661
     10 C          -0.1436    4.4940   19.6161 C.3     1  UNL1        0.1236
     11 C           0.5241    3.1557   19.5011 C.ar    1  UNL1        0.0338
     12 C           1.7158    2.4384   18.9394 C.ar    1  UNL1        0.0991
     13 N           1.6046    0.9905   19.3149 N.ar    1  UNL1       -0.2265
     14 N           0.3442    0.8128   20.1086 N.ar    1  UNL1       -0.1679
     15 C          -0.3236    2.1511   20.2237 C.ar    1  UNL1        0.0981
     16 C          -1.5152    2.8684   20.7853 C.3     1  UNL1        0.1414
     17 C           2.5821   -0.0902   18.9591 C.ar    1  UNL1        0.1102
     18 C           3.2710   -0.0694   17.6268 C.ar    1  UNL1        0.0214
     19 C           4.2486   -1.1500   17.2710 C.ar    1  UNL1        0.0017
     20 C           4.5373   -2.2514   18.2475 C.ar    1  UNL1        0.0024
     21 C           3.8484   -2.2722   19.5798 C.ar    1  UNL1        0.0312
     22 C           2.8708   -1.1915   19.9356 C.ar    1  UNL1        0.1577
     23 F           2.1820   -1.2124   21.2680 F       1  UNL1       -0.2026
     24 C          -5.0042    4.9339   19.3846 C.ar    1  UNL1        0.0024
     25 C          -5.6600    6.1237   18.7487 C.ar    1  UNL1        0.0001
     26 C          -5.7485    6.2219   17.2546 C.ar    1  UNL1        0.0023
     27 C          -5.1811    5.1304   16.3963 C.ar    1  UNL1        0.0296
     28 C          -4.5253    3.9407   17.0321 C.ar    1  UNL1        0.1401
     29 F          -3.9579    2.8492   16.1738 F       1  UNL1       -0.2042
     30 C          -4.4368    3.8424   18.5263 C.ar    1  UNL1        0.0296
     31 C          -4.5620    4.4427   26.8554 C.3     1  UNL1        0.1816
     32 S          -4.6505    4.5409   25.3612 S.O2    1  UNL1        0.0105
     33 O          -3.8605    5.8155   25.3982 O.2     1  UNL1       -0.1686
     34 O          -5.4405    3.2664   25.3242 O.2     1  UNL1       -0.1686
@<TRIPOS>BOND
     1    31    32    1
     2    32    33    2
     3    32    34    2
     4    32     1    1
     5     1     2   ar
     6     2     3   ar
     7     3     4   ar
     8     4    24    1
     9    24    25   ar
    10    25    26   ar
    11    26    27   ar
    12    27    28   ar
    13    28    29    1
    14    28    30   ar
    15     4     5   ar
    16     5     7    1
    17     7     8    2
    18     7     9   am
    19     9    10    1
    20    10    11    1
    21    11    12   ar
    22    12    13   ar
    23    13    17    1
    24    17    18   ar
    25    18    19   ar
    26    19    20   ar
    27    20    21   ar
    28    21    22   ar
    29    22    23    1
    30    13    14   ar
    31    14    15   ar
    32    15    16    1
    33     5     6   ar
    34     6     1   ar
    35    30    24   ar
    36    16     9    1
    37    15    11   ar
    38    22    17   ar
@<TRIPOS>MOLECULE
*****
 34 38 0 0 0
SMALL
GASTEIGER

@<TRIPOS>ATOM
      1 C           0.6379    1.4515   21.3645 C.ar    1  UNL1        0.1059
      2 C           0.2635    0.2964   20.4838 C.ar    1  UNL1        0.0183
      3 C           1.2705   -0.7734   20.1813 C.ar    1  UNL1        0.0015
      4 C           2.6520   -0.6880   20.7596 C.ar    1  UNL1        0.0045
      5 C           3.0264    0.4671   21.6403 C.ar    1  UNL1        0.0549
      6 C           2.0193    1.5368   21.9428 C.ar    1  UNL1        0.0229
      7 C           4.4079    0.5524   22.2185 C.2     1  UNL1        0.2496
      8 O           5.5178    1.1706   21.4212 O.2     1  UNL1       -0.2699
      9 N           4.6793    0.0194   23.5941 N.am    1  UNL1       -0.2661
     10 C           6.0026    0.0347   24.3003 C.3     1  UNL1        0.1236
     11 C           5.8163   -0.5978   25.6477 C.ar    1  UNL1        0.0338
     12 C           6.5189   -0.9792   26.9169 C.ar    1  UNL1        0.0991
     13 N           5.5148   -1.6211   27.8277 N.ar    1  UNL1       -0.2265
     14 N           4.1915   -1.6364   27.1215 N.ar    1  UNL1       -0.1679
     15 C           4.3779   -1.0039   25.7741 C.ar    1  UNL1        0.0981
     16 C           3.6752   -0.6225   24.5049 C.3     1  UNL1        0.1414
     17 C           5.7863   -2.1541   29.2033 C.ar    1  UNL1        0.1102
     18 C           5.3079   -1.3992   30.4080 C.ar    1  UNL1        0.0214
     19 C           5.5794   -1.9323   31.7836 C.ar    1  UNL1        0.0017
     20 C           6.3293   -3.2201   31.9544 C.ar    1  UNL1        0.0024
     21 C           6.8076   -3.9749   30.7496 C.ar    1  UNL1        0.0312
     22 C           6.5361   -3.4419   29.3741 C.ar    1  UNL1        0.1577
     23 F           7.0145   -4.1969   28.1694 F       1  UNL1       -0.2026
     24 C           3.6591   -1.7577   20.4571 C.ar    1  UNL1        0.0024
     25 C           3.9193   -2.8466   21.4554 C.ar    1  UNL1        0.0001
     26 C           4.9264   -3.9164   21.1529 C.ar    1  UNL1        0.0023
     27 C           5.6731   -3.8973   19.8521 C.ar    1  UNL1        0.0296
     28 C           5.4128   -2.8084   18.8539 C.ar    1  UNL1        0.1401
     29 F           6.1596   -2.7893   17.5531 F       1  UNL1       -0.2042
     30 C           4.4058   -1.7386   19.1564 C.ar    1  UNL1        0.0296
     31 C          -1.3761    3.5910   21.9695 C.3     1  UNL1        0.1816
     32 S          -0.3691    2.5212   21.6670 S.O2    1  UNL1        0.0105
     33 O           0.4472    2.9557   22.8481 O.2     1  UNL1       -0.1686
     34 O          -1.1854    2.0868   20.4860 O.2     1  UNL1       -0.1686
@<TRIPOS>BOND
     1    31    32    1
     2    32    33    2
     3    32    34    2
     4    32     1    1
     5     1     2   ar
     6     2     3   ar
     7     3     4   ar
     8     4    24    1
     9    24    25   ar
    10    25    26   ar
    11    26    27   ar
    12    27    28   ar
    13    28    29    1
    14    28    30   ar
    15     4     5   ar
    16     5     7    1
    17     7     8    2
    18     7     9   am
    19     9    10    1
    20    10    11    1
    21    11    12   ar
    22    12    13   ar
    23    13    17    1
    24    17    18   ar
    25    18    19   ar
    26    19    20   ar
    27    20    21   ar
    28    21    22   ar
    29    22    23    1
    30    13    14   ar
    31    14    15   ar
    32    15    16    1
    33     5     6   ar
    34     6     1   ar
    35    30    24   ar
    36    16     9    1
    37    15    11   ar
    38    22    17   ar
@<TRIPOS>MOLECULE
*****
 34 38 0 0 0
SMALL
GASTEIGER

@<TRIPOS>ATOM
      1 C           6.9525   -3.6558   21.1031 C.ar    1  UNL1        0.1059
      2 C           5.9464   -4.2210   20.1447 C.ar    1  UNL1        0.0183
      3 C           4.8010   -3.3745   19.6740 C.ar    1  UNL1        0.0015
      4 C           4.6618   -1.9628   20.1618 C.ar    1  UNL1        0.0045
      5 C           5.6678   -1.3977   21.1201 C.ar    1  UNL1        0.0549
      6 C           6.8132   -2.2442   21.5908 C.ar    1  UNL1        0.0229
      7 C           5.5285    0.0140   21.6078 C.2     1  UNL1        0.2496
      8 O           6.0300    1.1508   20.7674 O.2     1  UNL1       -0.2699
      9 N           4.8877    0.2889   22.9359 N.am    1  UNL1       -0.2661
     10 C           4.6802    1.6408   23.5518 C.3     1  UNL1        0.1236
     11 C           4.0061    1.4475   24.8778 C.ar    1  UNL1        0.0338
     12 C           3.4613    2.1635   26.0780 C.ar    1  UNL1        0.0991
     13 N           2.9156    1.1347   27.0233 N.ar    1  UNL1       -0.2265
     14 N           3.1231   -0.2172   26.4075 N.ar    1  UNL1       -0.1679
     15 C           3.7972   -0.0239   25.0814 C.ar    1  UNL1        0.0981
     16 C           4.3420   -0.7399   23.8812 C.3     1  UNL1        0.1414
     17 C           2.2748    1.4096   28.3514 C.ar    1  UNL1        0.1102
     18 C           3.1035    1.9201   29.4927 C.ar    1  UNL1        0.0214
     19 C           2.4628    2.1950   30.8208 C.ar    1  UNL1        0.0017
     20 C           0.9932    1.9593   31.0076 C.ar    1  UNL1        0.0024
     21 C           0.1645    1.4488   29.8663 C.ar    1  UNL1        0.0312
     22 C           0.8053    1.1739   28.5382 C.ar    1  UNL1        0.1577
     23 F          -0.0236    0.6633   27.3970 F       1  UNL1       -0.2026
     24 C           3.5164   -1.1163   19.6911 C.ar    1  UNL1        0.0024
     25 C           3.6593   -0.2827   18.4523 C.ar    1  UNL1        0.0001
     26 C           2.5140    0.5638   17.9816 C.ar    1  UNL1        0.0023
     27 C           1.2256    0.5767   18.7497 C.ar    1  UNL1        0.0296
     28 C           1.0827   -0.2570   19.9885 C.ar    1  UNL1        0.1401
     29 F          -0.2057   -0.2441   20.7566 F       1  UNL1       -0.2042
     30 C           2.2281   -1.1034   20.4592 C.ar    1  UNL1        0.0296
     31 C           9.2433   -5.3488   22.0444 C.3     1  UNL1        0.1816
     32 S           8.0979   -4.5023   21.5738 S.O2    1  UNL1        0.0105
     33 O           7.2631   -4.9954   22.7183 O.2     1  UNL1       -0.1686
     34 O           8.9327   -4.0092   20.4292 O.2     1  UNL1       -0.1686
@<TRIPOS>BOND
     1    31    32    1
     2    32    33    2
     3    32    34    2
     4    32     1    1
     5     1     2   ar
     6     2     3   ar
     7     3     4   ar
     8     4    24    1
     9    24    25   ar
    10    25    26   ar
    11    26    27   ar
    12    27    28   ar
    13    28    29    1
    14    28    30   ar
    15     4     5   ar
    16     5     7    1
    17     7     8    2
    18     7     9   am
    19     9    10    1
    20    10    11    1
    21    11    12   ar
    22    12    13   ar
    23    13    17    1
    24    17    18   ar
    25    18    19   ar
    26    19    20   ar
    27    20    21   ar
    28    21    22   ar
    29    22    23    1
    30    13    14   ar
    31    14    15   ar
    32    15    16    1
    33     5     6   ar
    34     6     1   ar
    35    30    24   ar
    36    16     9    1
    37    15    11   ar
    38    22    17   ar
@<TRIPOS>MOLECULE
*****
 34 38 0 0 0
SMALL
GASTEIGER

@<TRIPOS>ATOM
      1 C          -4.4379    3.7393   21.2692 C.ar    1  UNL1        0.1059
      2 C          -5.0915    3.5119   22.6000 C.ar    1  UNL1        0.0183
      3 C          -4.2599    3.4780   23.8480 C.ar    1  UNL1        0.0015
      4 C          -2.7747    3.6716   23.7649 C.ar    1  UNL1        0.0045
      5 C          -2.1211    3.8990   22.4341 C.ar    1  UNL1        0.0549
      6 C          -2.9528    3.9329   21.1862 C.ar    1  UNL1        0.0229
      7 C          -0.6360    4.0926   22.3512 C.2     1  UNL1        0.2496
      8 O          -0.0315    5.4186   22.7069 O.2     1  UNL1       -0.2699
      9 N           0.2446    2.9603   21.9127 N.am    1  UNL1       -0.2661
     10 C           1.7383    3.0044   21.7823 C.3     1  UNL1        0.1236
     11 C           2.2029    1.6563   21.3166 C.ar    1  UNL1        0.0338
     12 C           3.4132    0.8505   20.9482 C.ar    1  UNL1        0.0991
     13 N           2.9547   -0.5248   20.5631 N.ar    1  UNL1       -0.2265
     14 N           1.4610   -0.5690   20.6934 N.ar    1  UNL1       -0.1679
     15 C           0.9964    0.7791   21.1592 C.ar    1  UNL1        0.0981
     16 C          -0.2139    1.5850   21.5276 C.3     1  UNL1        0.1414
     17 C           3.8353   -1.6572   20.1245 C.ar    1  UNL1        0.1102
     18 C           4.3949   -2.6088   21.1401 C.ar    1  UNL1        0.0214
     19 C           5.2755   -3.7412   20.7015 C.ar    1  UNL1        0.0017
     20 C           5.5965   -3.9219   19.2475 C.ar    1  UNL1        0.0024
     21 C           5.0370   -2.9702   18.2320 C.ar    1  UNL1        0.0312
     22 C           4.1564   -1.8379   18.6705 C.ar    1  UNL1        0.1577
     23 F           3.5968   -0.8863   17.6549 F       1  UNL1       -0.2026
     24 C          -1.9431    3.6377   25.0129 C.ar    1  UNL1        0.0024
     25 C          -1.8000    4.8725   25.8525 C.ar    1  UNL1        0.0001
     26 C          -0.9684    4.8386   27.1004 C.ar    1  UNL1        0.0023
     27 C          -0.2800    3.5700   27.5088 C.ar    1  UNL1        0.0296
     28 C          -0.4231    2.3353   26.6692 C.ar    1  UNL1        0.1401
     29 F           0.2653    1.0667   27.0775 F       1  UNL1       -0.2042
     30 C          -1.2547    2.3692   25.4212 C.ar    1  UNL1        0.0296
     31 C          -6.1011    3.8070   18.7733 C.3     1  UNL1        0.1816
     32 S          -5.2695    3.7731   20.0212 S.O2    1  UNL1        0.0105
     33 O          -4.0333    3.5860   19.1924 O.2     1  UNL1       -0.1686
     34 O          -6.5057    3.9602   20.8500 O.2     1  UNL1       -0.1686
@<TRIPOS>BOND
     1    31    32    1
     2    32    33    2
     3    32    34    2
     4    32     1    1
     5     1     2   ar
     6     2     3   ar
     7     3     4   ar
     8     4    24    1
     9    24    25   ar
    10    25    26   ar
    11    26    27   ar
    12    27    28   ar
    13    28    29    1
    14    28    30   ar
    15     4     5   ar
    16     5     7    1
    17     7     8    2
    18     7     9   am
    19     9    10    1
    20    10    11    1
    21    11    12   ar
    22    12    13   ar
    23    13    17    1
    24    17    18   ar
    25    18    19   ar
    26    19    20   ar
    27    20    21   ar
    28    21    22   ar
    29    22    23    1
    30    13    14   ar
    31    14    15   ar
    32    15    16    1
    33     5     6   ar
    34     6     1   ar
    35    30    24   ar
    36    16     9    1
    37    15    11   ar
    38    22    17   ar
@<TRIPOS>MOLECULE
*****
 34 38 0 0 0
SMALL
GASTEIGER

@<TRIPOS>ATOM
      1 C           7.5823    1.6988   17.4197 C.ar    1  UNL1        0.1059
      2 C           8.3878    0.7540   18.2614 C.ar    1  UNL1        0.0183
      3 C           7.7347   -0.4514   18.8701 C.ar    1  UNL1        0.0015
      4 C           6.2759   -0.7119   18.6370 C.ar    1  UNL1        0.0045
      5 C           5.4703    0.2329   17.7953 C.ar    1  UNL1        0.0549
      6 C           6.1236    1.4383   17.1867 C.ar    1  UNL1        0.0229
      7 C           4.0117   -0.0277   17.5623 C.2     1  UNL1        0.2496
      8 O           3.5794   -0.9156   16.4333 O.2     1  UNL1       -0.2699
      9 N           2.9853    0.5996   18.4584 N.am    1  UNL1       -0.2661
     10 C           1.4987    0.4319   18.3489 C.3     1  UNL1        0.1236
     11 C           0.8599    1.2335   19.4442 C.ar    1  UNL1        0.0338
     12 C          -0.4536    1.6252   20.0534 C.ar    1  UNL1        0.0991
     13 N          -0.1736    2.5304   21.2163 N.ar    1  UNL1       -0.2265
     14 N           1.3130    2.6981   21.3258 N.ar    1  UNL1       -0.1679
     15 C           1.9518    1.8965   20.2305 C.ar    1  UNL1        0.0981
     16 C           3.2653    1.5048   19.6213 C.3     1  UNL1        0.1414
     17 C          -1.2000    3.1577   22.1124 C.ar    1  UNL1        0.1102
     18 C          -0.9960    3.1621   23.5985 C.ar    1  UNL1        0.0214
     19 C          -2.0224    3.7894   24.4945 C.ar    1  UNL1        0.0017
     20 C          -3.2528    4.4123   23.9045 C.ar    1  UNL1        0.0024
     21 C          -3.4568    4.4079   22.4185 C.ar    1  UNL1        0.0312
     22 C          -2.4304    3.7806   21.5224 C.ar    1  UNL1        0.1577
     23 F          -2.6345    3.7762   20.0363 F       1  UNL1       -0.2026
     24 C           5.6228   -1.9173   19.2457 C.ar    1  UNL1        0.0024
     25 C           5.1003   -1.8581   20.6505 C.ar    1  UNL1        0.0001
     26 C           4.4471   -3.0635   21.2591 C.ar    1  UNL1        0.0023
     27 C           4.3165   -4.3281   20.4630 C.ar    1  UNL1        0.0296
     28 C           4.8390   -4.3872   19.0582 C.ar    1  UNL1        0.1401
     29 F           4.7083   -5.6518   18.2621 F       1  UNL1       -0.2042
     30 C           5.4921   -3.1818   18.4495 C.ar    1  UNL1        0.0296
     31 C           8.8885    4.1095   16.2024 C.3     1  UNL1        0.1816
     32 S           8.2354    2.9042   16.8110 S.O2    1  UNL1        0.0105
     33 O           6.9349    3.6477   16.8882 O.2     1  UNL1       -0.1686
     34 O           9.5358    2.1606   16.7339 O.2     1  UNL1       -0.1686
@<TRIPOS>BOND
     1    31    32    1
     2    32    33    2
     3    32    34    2
     4    32     1    1
     5     1     2   ar
     6     2     3   ar
     7     3     4   ar
     8     4    24    1
     9    24    25   ar
    10    25    26   ar
    11    26    27   ar
    12    27    28   ar
    13    28    29    1
    14    28    30   ar
    15     4     5   ar
    16     5     7    1
    17     7     8    2
    18     7     9   am
    19     9    10    1
    20    10    11    1
    21    11    12   ar
    22    12    13   ar
    23    13    17    1
    24    17    18   ar
    25    18    19   ar
    26    19    20   ar
    27    20    21   ar
    28    21    22   ar
    29    22    23    1
    30    13    14   ar
    31    14    15   ar
    32    15    16    1
    33     5     6   ar
    34     6     1   ar
    35    30    24   ar
    36    16     9    1
    37    15    11   ar
    38    22    17   ar
@<TRIPOS>MOLECULE
*****
 34 38 0 0 0
SMALL
GASTEIGER

@<TRIPOS>ATOM
      1 C           0.4112    2.1273   21.6156 C.ar    1  UNL1        0.1059
      2 C          -0.1314    1.2107   20.5595 C.ar    1  UNL1        0.0183
      3 C           0.7628    0.1898   19.9208 C.ar    1  UNL1        0.0015
      4 C           2.1999    0.0855   20.3383 C.ar    1  UNL1        0.0045
      5 C           2.7426    1.0021   21.3944 C.ar    1  UNL1        0.0549
      6 C           1.8482    2.0231   22.0331 C.ar    1  UNL1        0.0229
      7 C           4.1795    0.8978   21.8117 C.2     1  UNL1        0.2496
      8 O           5.2515    1.5305   20.9747 O.2     1  UNL1       -0.2699
      9 N           4.5445    0.1608   23.0662 N.am    1  UNL1       -0.2661
     10 C           5.9310   -0.0257   23.6075 C.3     1  UNL1        0.1236
     11 C           5.8304   -0.8209   24.8754 C.ar    1  UNL1        0.0338
     12 C           6.6252   -1.4276   25.9936 C.ar    1  UNL1        0.0991
     13 N           5.6678   -2.1075   26.9269 N.ar    1  UNL1       -0.2265
     14 N           4.2813   -1.9211   26.3856 N.ar    1  UNL1       -0.1679
     15 C           4.3819   -1.1258   25.1176 C.ar    1  UNL1        0.0981
     16 C           3.5872   -0.5192   23.9995 C.3     1  UNL1        0.1414
     17 C           6.0328   -2.8445   28.1813 C.ar    1  UNL1        0.1102
     18 C           6.0287   -2.1291   29.4997 C.ar    1  UNL1        0.0214
     19 C           6.3937   -2.8661   30.7541 C.ar    1  UNL1        0.0017
     20 C           6.7628   -4.3185   30.6902 C.ar    1  UNL1        0.0024
     21 C           6.7669   -5.0340   29.3718 C.ar    1  UNL1        0.0312
     22 C           6.4019   -4.2970   28.1174 C.ar    1  UNL1        0.1577
     23 F           6.4060   -5.0125   26.7990 F       1  UNL1       -0.2026
     24 C           3.0942   -0.9354   19.6996 C.ar    1  UNL1        0.0024
     25 C           3.8923   -0.5761   18.4814 C.ar    1  UNL1        0.0001
     26 C           4.7866   -1.5970   17.8427 C.ar    1  UNL1        0.0023
     27 C           4.8827   -2.9773   18.4221 C.ar    1  UNL1        0.0296
     28 C           4.0846   -3.3365   19.6402 C.ar    1  UNL1        0.1401
     29 F           4.1807   -4.7168   20.2196 F       1  UNL1       -0.2042
     30 C           3.1903   -2.3156   20.2790 C.ar    1  UNL1        0.0296
     31 C          -1.3773    4.1692   22.8931 C.3     1  UNL1        0.1816
     32 S          -0.4830    3.1482   22.2544 S.O2    1  UNL1        0.0105
     33 O           0.6271    3.5388   23.1844 O.2     1  UNL1       -0.1686
     34 O          -1.5932    2.7577   21.3243 O.2     1  UNL1       -0.1686
@<TRIPOS>BOND
     1    31    32    1
     2    32    33    2
     3    32    34    2
     4    32     1    1
     5     1     2   ar
     6     2     3   ar
     7     3     4   ar
     8     4    24    1
     9    24    25   ar
    10    25    26   ar
    11    26    27   ar
    12    27    28   ar
    13    28    29    1
    14    28    30   ar
    15     4     5   ar
    16     5     7    1
    17     7     8    2
    18     7     9   am
    19     9    10    1
    20    10    11    1
    21    11    12   ar
    22    12    13   ar
    23    13    17    1
    24    17    18   ar
    25    18    19   ar
    26    19    20   ar
    27    20    21   ar
    28    21    22   ar
    29    22    23    1
    30    13    14   ar
    31    14    15   ar
    32    15    16    1
    33     5     6   ar
    34     6     1   ar
    35    30    24   ar
    36    16     9    1
    37    15    11   ar
    38    22    17   ar
@<TRIPOS>MOLECULE
*****
 34 38 0 0 0
SMALL
GASTEIGER

@<TRIPOS>ATOM
      1 C           7.4800    1.6584   17.7245 C.ar    1  UNL1        0.1059
      2 C           8.3280    0.5338   18.2401 C.ar    1  UNL1        0.0183
      3 C           7.6819   -0.7218   18.7461 C.ar    1  UNL1        0.0015
      4 C           6.1876   -0.8527   18.7363 C.ar    1  UNL1        0.0045
      5 C           5.3395    0.2719   18.2206 C.ar    1  UNL1        0.0549
      6 C           5.9857    1.5275   17.7147 C.ar    1  UNL1        0.0229
      7 C           3.8453    0.1409   18.2108 C.2     1  UNL1        0.2496
      8 O           3.1487   -0.4116   17.0027 O.2     1  UNL1       -0.2699
      9 N           3.0476    0.5625   19.4091 N.am    1  UNL1       -0.2661
     10 C           1.5554    0.4910   19.5447 C.3     1  UNL1        0.1236
     11 C           1.1877    1.0140   20.9017 C.ar    1  UNL1        0.0338
     12 C           0.0383    1.2930   21.8241 C.ar    1  UNL1        0.0991
     13 N           0.5928    1.8601   23.0973 N.ar    1  UNL1       -0.2265
     14 N           2.0849    1.9315   22.9617 N.ar    1  UNL1       -0.1679
     15 C           2.4527    1.4086   21.6047 C.ar    1  UNL1        0.0981
     16 C           3.6021    1.1296   20.6823 C.3     1  UNL1        0.1414
     17 C          -0.2049    2.2817   24.2956 C.ar    1  UNL1        0.1102
     18 C          -0.0198    1.5756   25.6060 C.ar    1  UNL1        0.0214
     19 C          -0.8175    1.9972   26.8043 C.ar    1  UNL1        0.0017
     20 C          -1.8002    3.1248   26.6922 C.ar    1  UNL1        0.0024
     21 C          -1.9853    3.8309   25.3818 C.ar    1  UNL1        0.0312
     22 C          -1.1876    3.4093   24.1835 C.ar    1  UNL1        0.1577
     23 F          -1.3727    4.1155   22.8731 F       1  UNL1       -0.2026
     24 C           5.5414   -2.1083   19.2422 C.ar    1  UNL1        0.0024
     25 C           5.2520   -3.2363   18.2967 C.ar    1  UNL1        0.0001
     26 C           4.6058   -4.4919   18.8026 C.ar    1  UNL1        0.0023
     27 C           4.2492   -4.6196   20.2540 C.ar    1  UNL1        0.0296
     28 C           4.5386   -3.4916   21.1995 C.ar    1  UNL1        0.1401
     29 F           4.1820   -3.6193   22.6508 F       1  UNL1       -0.2042
     30 C           5.1848   -2.2360   20.6935 C.ar    1  UNL1        0.0296
     31 C           8.7722    4.1696   16.7126 C.3     1  UNL1        0.1816
     32 S           8.1261    2.9140   17.2185 S.O2    1  UNL1        0.0105
     33 O           9.1340    2.0936   16.4695 O.2     1  UNL1       -0.1686
     34 O           7.1182    3.7345   17.9675 O.2     1  UNL1       -0.1686
@<TRIPOS>BOND
     1    31    32    1
     2    32    33    2
     3    32    34    2
     4    32     1    1
     5     1     2   ar
     6     2     3   ar
     7     3     4   ar
     8     4    24    1
     9    24    25   ar
    10    25    26   ar
    11    26    27   ar
    12    27    28   ar
    13    28    29    1
    14    28    30   ar
    15     4     5   ar
    16     5     7    1
    17     7     8    2
    18     7     9   am
    19     9    10    1
    20    10    11    1
    21    11    12   ar
    22    12    13   ar
    23    13    17    1
    24    17    18   ar
    25    18    19   ar
    26    19    20   ar
    27    20    21   ar
    28    21    22   ar
    29    22    23    1
    30    13    14   ar
    31    14    15   ar
    32    15    16    1
    33     5     6   ar
    34     6     1   ar
    35    30    24   ar
    36    16     9    1
    37    15    11   ar
    38    22    17   ar
@<TRIPOS>MOLECULE
*****
 34 38 0 0 0
SMALL
GASTEIGER

@<TRIPOS>ATOM
      1 C           6.4974   -1.6323   31.7156 C.ar    1  UNL1        0.1059
      2 C           5.2709   -1.9287   32.5265 C.ar    1  UNL1        0.0183
      3 C           3.9594   -1.2997   32.1601 C.ar    1  UNL1        0.0015
      4 C           3.8745   -0.3742   30.9826 C.ar    1  UNL1        0.0045
      5 C           5.1011   -0.0777   30.1717 C.ar    1  UNL1        0.0549
      6 C           6.4126   -0.7068   30.5382 C.ar    1  UNL1        0.0229
      7 C           5.0161    0.8478   28.9943 C.2     1  UNL1        0.2496
      8 O           5.1357    2.3295   29.1949 O.2     1  UNL1       -0.2699
      9 N           4.8117    0.2915   27.6164 N.am    1  UNL1       -0.2661
     10 C           4.7076    1.0889   26.3501 C.3     1  UNL1        0.1236
     11 C           4.5069    0.1303   25.2139 C.ar    1  UNL1        0.0338
     12 C           4.3186    0.0307   23.7291 C.ar    1  UNL1        0.0991
     13 N           4.1823   -1.4206   23.3755 N.ar    1  UNL1       -0.2265
     14 N           4.2863   -2.2180   24.6417 N.ar    1  UNL1       -0.1679
     15 C           4.4870   -1.2594   25.7780 C.ar    1  UNL1        0.0981
     16 C           4.6753   -1.1598   27.2628 C.3     1  UNL1        0.1414
     17 C           3.9778   -1.9768   21.9975 C.ar    1  UNL1        0.1102
     18 C           3.1516   -1.2218   20.9989 C.ar    1  UNL1        0.0214
     19 C           2.9471   -1.7780   19.6210 C.ar    1  UNL1        0.0017
     20 C           3.5688   -3.0893   19.2416 C.ar    1  UNL1        0.0024
     21 C           4.3951   -3.8444   20.2403 C.ar    1  UNL1        0.0312
     22 C           4.5996   -3.2881   21.6182 C.ar    1  UNL1        0.1577
     23 F           5.4259   -4.0432   22.6168 F       1  UNL1       -0.2026
     24 C           2.5630    0.2548   30.6162 C.ar    1  UNL1        0.0024
     25 C           2.1353    1.5340   31.2726 C.ar    1  UNL1        0.0001
     26 C           0.8238    2.1630   30.9061 C.ar    1  UNL1        0.0023
     27 C          -0.0600    1.5129   29.8833 C.ar    1  UNL1        0.0296
     28 C           0.3677    0.2337   29.2269 C.ar    1  UNL1        0.1401
     29 F          -0.5161   -0.4164   28.2041 F       1  UNL1       -0.2042
     30 C           1.6792   -0.3953   29.5934 C.ar    1  UNL1        0.0296
     31 C           9.1205   -2.8903   32.4485 C.3     1  UNL1        0.1816
     32 S           7.8090   -2.2613   32.0820 S.O2    1  UNL1        0.0105
     33 O           8.5128   -0.9729   31.7744 O.2     1  UNL1       -0.1686
     34 O           7.1051   -3.5497   32.3897 O.2     1  UNL1       -0.1686
@<TRIPOS>BOND
     1    31    32    1
     2    32    33    2
     3    32    34    2
     4    32     1    1
     5     1     2   ar
     6     2     3   ar
     7     3     4   ar
     8     4    24    1
     9    24    25   ar
    10    25    26   ar
    11    26    27   ar
    12    27    28   ar
    13    28    29    1
    14    28    30   ar
    15     4     5   ar
    16     5     7    1
    17     7     8    2
    18     7     9   am
    19     9    10    1
    20    10    11    1
    21    11    12   ar
    22    12    13   ar
    23    13    17    1
    24    17    18   ar
    25    18    19   ar
    26    19    20   ar
    27    20    21   ar
    28    21    22   ar
    29    22    23    1
    30    13    14   ar
    31    14    15   ar
    32    15    16    1
    33     5     6   ar
    34     6     1   ar
    35    30    24   ar
    36    16     9    1
    37    15    11   ar
    38    22    17   ar
@<TRIPOS>MOLECULE
*****
 34 38 0 0 0
SMALL
GASTEIGER

@<TRIPOS>ATOM
      1 C           3.0837   -0.9200   20.2705 C.ar    1  UNL1        0.1059
      2 C           1.5915   -0.9149   20.1179 C.ar    1  UNL1        0.0183
      3 C           0.7459   -0.0886   21.0411 C.ar    1  UNL1        0.0015
      4 C           1.3927    0.7325   22.1170 C.ar    1  UNL1        0.0045
      5 C           2.8849    0.7274   22.2697 C.ar    1  UNL1        0.0549
      6 C           3.7304   -0.0989   21.3463 C.ar    1  UNL1        0.0229
      7 C           3.5316    1.5485   23.3456 C.2     1  UNL1        0.2496
      8 O           3.9002    2.9778   23.0788 O.2     1  UNL1       -0.2699
      9 N           3.8097    0.9403   24.6882 N.am    1  UNL1       -0.2661
     10 C           4.4474    1.6339   25.8554 C.3     1  UNL1        0.1236
     11 C           4.5307    0.6539   26.9880 C.ar    1  UNL1        0.0338
     12 C           4.9763    0.4769   28.4092 C.ar    1  UNL1        0.0991
     13 N           4.6655   -0.9318   28.8204 N.ar    1  UNL1       -0.2265
     14 N           4.0278   -1.6254   27.6533 N.ar    1  UNL1       -0.1679
     15 C           3.9445   -0.6454   26.5207 C.ar    1  UNL1        0.0981
     16 C           3.4989   -0.4684   25.0994 C.3     1  UNL1        0.1414
     17 C           4.9436   -1.5400   30.1631 C.ar    1  UNL1        0.1102
     18 C           6.1545   -2.4032   30.3591 C.ar    1  UNL1        0.0214
     19 C           6.4326   -3.0114   31.7018 C.ar    1  UNL1        0.0017
     20 C           5.4997   -2.7564   32.8484 C.ar    1  UNL1        0.0024
     21 C           4.2888   -1.8932   32.6523 C.ar    1  UNL1        0.0312
     22 C           4.0107   -1.2850   31.3097 C.ar    1  UNL1        0.1577
     23 F           2.7997   -0.4218   31.1137 F       1  UNL1       -0.2026
     24 C           0.5472    1.5588   23.0403 C.ar    1  UNL1        0.0024
     25 C          -0.0089    2.8717   22.5745 C.ar    1  UNL1        0.0001
     26 C          -0.8544    3.6980   23.4978 C.ar    1  UNL1        0.0023
     27 C          -1.1438    3.2113   24.8868 C.ar    1  UNL1        0.0296
     28 C          -0.5878    1.8983   25.3525 C.ar    1  UNL1        0.1401
     29 F          -0.8772    1.4116   26.7415 F       1  UNL1       -0.2042
     30 C           0.2578    1.0721   24.4293 C.ar    1  UNL1        0.0296
     31 C           4.7747   -2.5725   18.4240 C.3     1  UNL1        0.1816
     32 S           3.9292   -1.7463   19.3472 S.O2    1  UNL1        0.0105
     33 O           4.3213   -2.6281   20.4955 O.2     1  UNL1       -0.1686
     34 O           3.5371   -0.8644   18.1989 O.2     1  UNL1       -0.1686
@<TRIPOS>BOND
     1    31    32    1
     2    32    33    2
     3    32    34    2
     4    32     1    1
     5     1     2   ar
     6     2     3   ar
     7     3     4   ar
     8     4    24    1
     9    24    25   ar
    10    25    26   ar
    11    26    27   ar
    12    27    28   ar
    13    28    29    1
    14    28    30   ar
    15     4     5   ar
    16     5     7    1
    17     7     8    2
    18     7     9   am
    19     9    10    1
    20    10    11    1
    21    11    12   ar
    22    12    13   ar
    23    13    17    1
    24    17    18   ar
    25    18    19   ar
    26    19    20   ar
    27    20    21   ar
    28    21    22   ar
    29    22    23    1
    30    13    14   ar
    31    14    15   ar
    32    15    16    1
    33     5     6   ar
    34     6     1   ar
    35    30    24   ar
    36    16     9    1
    37    15    11   ar
    38    22    17   ar
