@<TRIPOS>MOLECULE
*****
 30 34 0 0 0
SMALL
GASTEIGER

@<TRIPOS>ATOM
      1 C          -8.5901    5.4529   24.2811 C.3     1  UNL1        0.0899
      2 N          -7.1830    5.0362   23.9703 N.3     1  UNL1       -0.2662
      3 C          -6.1388    5.0591   25.0469 C.3     1  UNL1        0.0772
      4 C          -4.7318    4.6425   24.7360 C.3     1  UNL1        0.0449
      5 C          -4.3690    4.2029   23.3485 C.ar    1  UNL1       -0.0064
      6 C          -5.4131    4.1800   22.2719 C.ar    1  UNL1        0.0494
      7 N          -4.7640    3.7028   21.0066 N.ar    1  UNL1       -0.3276
      8 C          -5.4414    3.5282   19.6797 C.3     1  UNL1        0.1301
      9 C          -3.3186    3.4307   21.3013 C.ar    1  UNL1        0.0609
     10 C          -2.1933    2.9415   20.4387 C.ar    1  UNL1        0.0348
     11 C          -0.8236    2.7613   21.0234 C.ar    1  UNL1        0.0683
     12 C          -0.5795    3.0704   22.4708 C.ar    1  UNL1        0.0177
     13 C          -1.7050    3.5597   23.3334 C.ar    1  UNL1        0.0027
     14 C          -3.0745    3.7398   22.7487 C.ar    1  UNL1        0.0131
     15 C          -6.8202    4.5967   22.5828 C.3     1  UNL1        0.1163
     16 N           0.3017    2.2721   20.1608 N.ar    1  UNL1       -0.2729
     17 C           1.1427    3.2522   19.3978 C.ar    1  UNL1        0.0860
     18 C           2.2681    2.7630   18.5352 C.ar    1  UNL1        0.0561
     19 C           2.5525    1.2936   18.4355 C.ar    1  UNL1        0.1453
     20 C           1.7115    0.3134   19.1985 C.ar    1  UNL1        0.0980
     21 C           0.5861    0.8027   20.0611 C.ar    1  UNL1        0.2679
     22 O          -0.2548   -0.1775   20.8240 O.2     1  UNL1       -0.2665
     23 O           3.6778    0.8043   17.5729 O.3     1  UNL1       -0.4704
     24 C           3.7551   -0.6442   17.1910 C.3     1  UNL1        0.2320
     25 C           4.5421   -1.6016   18.0359 C.ar    1  UNL1        0.0212
     26 C           6.0401   -1.5280   18.0554 C.ar    1  UNL1       -0.0007
     27 C           6.8272   -2.4855   18.9004 C.ar    1  UNL1       -0.0002
     28 C           6.1161   -3.5166   19.7258 C.ar    1  UNL1       -0.0000
     29 C           4.6180   -3.5903   19.7062 C.ar    1  UNL1       -0.0002
     30 C           3.8310   -2.6328   18.8613 C.ar    1  UNL1       -0.0007
@<TRIPOS>BOND
     1     1     2    1
     2     2     3    1
     3     3     4    1
     4     4     5    1
     5     5     6   ar
     6     6     7   ar
     7     7     8    1
     8     7     9   ar
     9     9    10   ar
    10    10    11   ar
    11    11    16    1
    12    16    17   ar
    13    17    18   ar
    14    18    19   ar
    15    19    23    1
    16    23    24    1
    17    24    25    1
    18    25    26   ar
    19    26    27   ar
    20    27    28   ar
    21    28    29   ar
    22    29    30   ar
    23    19    20   ar
    24    20    21   ar
    25    21    22    2
    26    11    12   ar
    27    12    13   ar
    28    13    14   ar
    29     6    15    1
    30    15     2    1
    31    14     5   ar
    32    14     9   ar
    33    21    16   ar
    34    30    25   ar
@<TRIPOS>MOLECULE
*****
 30 34 0 0 0
SMALL
GASTEIGER

@<TRIPOS>ATOM
      1 C           4.6462    1.6983   38.6047 C.3     1  UNL1        0.0899
      2 N           4.3638    1.3227   37.1802 N.3     1  UNL1       -0.2662
      3 C           4.9355    0.0584   36.6105 C.3     1  UNL1        0.0772
      4 C           4.6531   -0.3171   35.1860 C.3     1  UNL1        0.0449
      5 C           3.7990    0.5716   34.3312 C.ar    1  UNL1       -0.0064
      6 C           3.2273    1.8359   34.9010 C.ar    1  UNL1        0.0494
      7 N           2.4266    2.5084   33.8255 N.ar    1  UNL1       -0.3276
      8 C           1.6801    3.8024   33.9607 C.3     1  UNL1        0.1301
      9 C           2.5034    1.6597   32.5911 C.ar    1  UNL1        0.0609
     10 C           1.9106    1.8222   31.2228 C.ar    1  UNL1        0.0348
     11 C           2.1661    0.7877   30.1670 C.ar    1  UNL1        0.0683
     12 C           3.0143   -0.4093   30.4796 C.ar    1  UNL1        0.0177
     13 C           3.6071   -0.5718   31.8479 C.ar    1  UNL1        0.0027
     14 C           3.3517    0.4627   32.9036 C.ar    1  UNL1        0.0131
     15 C           3.5097    2.2114   36.3255 C.3     1  UNL1        0.1163
     16 N           1.5733    0.9502   28.7988 N.ar    1  UNL1       -0.2729
     17 C           2.4612    1.2493   27.6274 C.ar    1  UNL1        0.0860
     18 C           1.8684    1.4118   26.2591 C.ar    1  UNL1        0.0561
     19 C           0.3877    1.2752   26.0622 C.ar    1  UNL1        0.1453
     20 C          -0.5002    0.9761   27.2336 C.ar    1  UNL1        0.0980
     21 C           0.0926    0.8136   28.6019 C.ar    1  UNL1        0.2679
     22 O          -0.7954    0.5145   29.7733 O.2     1  UNL1       -0.2665
     23 O          -0.2051    1.4378   24.6940 O.3     1  UNL1       -0.4704
     24 C           0.6504    1.9144   23.5577 C.3     1  UNL1        0.2320
     25 C           1.1411    0.9399   22.5284 C.ar    1  UNL1        0.0212
     26 C           2.3739    0.1271   22.7926 C.ar    1  UNL1       -0.0007
     27 C           2.8646   -0.8473   21.7631 C.ar    1  UNL1       -0.0002
     28 C           2.1226   -1.0090   20.4695 C.ar    1  UNL1       -0.0000
     29 C           0.8899   -0.1962   20.2054 C.ar    1  UNL1       -0.0002
     30 C           0.3991    0.7782   21.2347 C.ar    1  UNL1       -0.0007
@<TRIPOS>BOND
     1     1     2    1
     2     2     3    1
     3     3     4    1
     4     4     5    1
     5     5     6   ar
     6     6     7   ar
     7     7     8    1
     8     7     9   ar
     9     9    10   ar
    10    10    11   ar
    11    11    16    1
    12    16    17   ar
    13    17    18   ar
    14    18    19   ar
    15    19    23    1
    16    23    24    1
    17    24    25    1
    18    25    26   ar
    19    26    27   ar
    20    27    28   ar
    21    28    29   ar
    22    29    30   ar
    23    19    20   ar
    24    20    21   ar
    25    21    22    2
    26    11    12   ar
    27    12    13   ar
    28    13    14   ar
    29     6    15    1
    30    15     2    1
    31    14     5   ar
    32    14     9   ar
    33    21    16   ar
    34    30    25   ar
@<TRIPOS>MOLECULE
*****
 30 34 0 0 0
SMALL
GASTEIGER

@<TRIPOS>ATOM
      1 C           5.6014    3.7979   38.5903 C.3     1  UNL1        0.0899
      2 N           5.4300    2.6687   37.6179 N.3     1  UNL1       -0.2662
      3 C           4.1297    1.9235   37.5554 C.3     1  UNL1        0.0772
      4 C           3.9584    0.7944   36.5830 C.3     1  UNL1        0.0449
      5 C           5.0872    0.4104   35.6730 C.ar    1  UNL1       -0.0064
      6 C           6.3875    1.1556   35.7355 C.ar    1  UNL1        0.0494
      7 N           7.3152    0.5550   34.7211 N.ar    1  UNL1       -0.3276
      8 C           8.7226    0.9938   34.4446 C.3     1  UNL1        0.1301
      9 C           6.5882   -0.5614   34.0318 C.ar    1  UNL1        0.0609
     10 C           7.0020   -1.5081   32.9444 C.ar    1  UNL1        0.0348
     11 C           6.0390   -2.5443   32.4453 C.ar    1  UNL1        0.0683
     12 C           4.6621   -2.6336   33.0337 C.ar    1  UNL1        0.0177
     13 C           4.2482   -1.6868   34.1211 C.ar    1  UNL1        0.0027
     14 C           5.2112   -0.6507   34.6201 C.ar    1  UNL1        0.0131
     15 C           6.5589    2.2848   36.7079 C.3     1  UNL1        0.1163
     16 N           6.4529   -3.4910   31.3580 N.ar    1  UNL1       -0.2729
     17 C           6.8919   -4.8833   31.7027 C.ar    1  UNL1        0.0860
     18 C           7.3058   -5.8300   30.6153 C.ar    1  UNL1        0.0561
     19 C           7.2806   -5.3844   29.1832 C.ar    1  UNL1        0.1453
     20 C           6.8416   -3.9921   28.8385 C.ar    1  UNL1        0.0980
     21 C           6.4277   -3.0454   29.9259 C.ar    1  UNL1        0.2679
     22 O           5.9887   -1.6531   29.5812 O.2     1  UNL1       -0.2665
     23 O           7.6945   -6.3311   28.0959 O.3     1  UNL1       -0.4704
     24 C           6.8620   -6.4576   26.8545 C.3     1  UNL1        0.2320
     25 C           7.5065   -6.3458   25.5046 C.ar    1  UNL1        0.0212
     26 C           8.2155   -7.5272   24.9118 C.ar    1  UNL1       -0.0007
     27 C           8.8599   -7.4153   23.5618 C.ar    1  UNL1       -0.0002
     28 C           8.7954   -6.1220   22.8048 C.ar    1  UNL1       -0.0000
     29 C           8.0864   -4.9405   23.3977 C.ar    1  UNL1       -0.0002
     30 C           7.4419   -5.0524   24.7475 C.ar    1  UNL1       -0.0007
@<TRIPOS>BOND
     1     1     2    1
     2     2     3    1
     3     3     4    1
     4     4     5    1
     5     5     6   ar
     6     6     7   ar
     7     7     8    1
     8     7     9   ar
     9     9    10   ar
    10    10    11   ar
    11    11    16    1
    12    16    17   ar
    13    17    18   ar
    14    18    19   ar
    15    19    23    1
    16    23    24    1
    17    24    25    1
    18    25    26   ar
    19    26    27   ar
    20    27    28   ar
    21    28    29   ar
    22    29    30   ar
    23    19    20   ar
    24    20    21   ar
    25    21    22    2
    26    11    12   ar
    27    12    13   ar
    28    13    14   ar
    29     6    15    1
    30    15     2    1
    31    14     5   ar
    32    14     9   ar
    33    21    16   ar
    34    30    25   ar
@<TRIPOS>MOLECULE
*****
 30 34 0 0 0
SMALL
GASTEIGER

@<TRIPOS>ATOM
      1 C          -6.5161    5.9139   26.6352 C.3     1  UNL1        0.0899
      2 N          -5.2953    5.2398   26.0828 N.3     1  UNL1       -0.2662
      3 C          -4.3170    4.5824   27.0106 C.3     1  UNL1        0.0772
      4 C          -3.0962    3.9083   26.4582 C.3     1  UNL1        0.0449
      5 C          -2.8536    3.8916   24.9781 C.ar    1  UNL1       -0.0064
      6 C          -3.8319    4.5490   24.0503 C.ar    1  UNL1        0.0494
      7 N          -3.3306    4.3729   22.6475 N.ar    1  UNL1       -0.3276
      8 C          -4.0000    4.8749   21.4025 C.3     1  UNL1        0.1301
      9 C          -2.0426    3.6066   22.7083 C.ar    1  UNL1        0.0609
     10 C          -1.1001    3.1413   21.6382 C.ar    1  UNL1        0.0348
     11 C           0.1373    2.3785   22.0085 C.ar    1  UNL1        0.0683
     12 C           0.4322    2.0810   23.4489 C.ar    1  UNL1        0.0177
     13 C          -0.5104    2.5464   24.5190 C.ar    1  UNL1        0.0027
     14 C          -1.7478    3.3092   24.1487 C.ar    1  UNL1        0.0131
     15 C          -5.0527    5.2231   24.6027 C.3     1  UNL1        0.1163
     16 N           1.0799    1.9131   20.9384 N.ar    1  UNL1       -0.2729
     17 C           2.2576    2.7598   20.5563 C.ar    1  UNL1        0.0860
     18 C           3.2002    2.2944   19.4862 C.ar    1  UNL1        0.0561
     19 C           2.9649    0.9824   18.7983 C.ar    1  UNL1        0.1453
     20 C           1.7871    0.1358   19.1804 C.ar    1  UNL1        0.0980
     21 C           0.8446    0.6011   20.2505 C.ar    1  UNL1        0.2679
     22 O          -0.3332   -0.2456   20.6326 O.2     1  UNL1       -0.2665
     23 O           3.9074    0.5171   17.7282 O.3     1  UNL1       -0.4704
     24 C           3.9512   -0.9328   17.3459 C.3     1  UNL1        0.2320
     25 C           4.6148   -1.9275   18.2514 C.ar    1  UNL1        0.0212
     26 C           3.8054   -3.0171   18.8900 C.ar    1  UNL1       -0.0007
     27 C           4.4691   -4.0118   19.7957 C.ar    1  UNL1       -0.0002
     28 C           5.9421   -3.9170   20.0626 C.ar    1  UNL1       -0.0000
     29 C           6.7515   -2.8274   19.4240 C.ar    1  UNL1       -0.0002
     30 C           6.0879   -1.8327   18.5185 C.ar    1  UNL1       -0.0007
@<TRIPOS>BOND
     1     1     2    1
     2     2     3    1
     3     3     4    1
     4     4     5    1
     5     5     6   ar
     6     6     7   ar
     7     7     8    1
     8     7     9   ar
     9     9    10   ar
    10    10    11   ar
    11    11    16    1
    12    16    17   ar
    13    17    18   ar
    14    18    19   ar
    15    19    23    1
    16    23    24    1
    17    24    25    1
    18    25    26   ar
    19    26    27   ar
    20    27    28   ar
    21    28    29   ar
    22    29    30   ar
    23    19    20   ar
    24    20    21   ar
    25    21    22    2
    26    11    12   ar
    27    12    13   ar
    28    13    14   ar
    29     6    15    1
    30    15     2    1
    31    14     5   ar
    32    14     9   ar
    33    21    16   ar
    34    30    25   ar
@<TRIPOS>MOLECULE
*****
 30 34 0 0 0
SMALL
GASTEIGER

@<TRIPOS>ATOM
      1 C          -0.0905    6.6062   35.7779 C.3     1  UNL1        0.0899
      2 N           0.8177    5.4133   35.7328 N.3     1  UNL1       -0.2662
      3 C           1.2812    4.7749   37.0086 C.3     1  UNL1        0.0772
      4 C           2.1894    3.5819   36.9635 C.3     1  UNL1        0.0449
      5 C           2.6340    3.0273   35.6427 C.ar    1  UNL1       -0.0064
      6 C           2.1706    3.6657   34.3669 C.ar    1  UNL1        0.0494
      7 N           2.7702    2.9034   33.2226 N.ar    1  UNL1       -0.3276
      8 C           2.5707    3.1987   31.7655 C.3     1  UNL1        0.1301
      9 C           3.6042    1.7939   33.7912 C.ar    1  UNL1        0.0609
     10 C           4.4295    0.7237   33.1402 C.ar    1  UNL1        0.0348
     11 C           5.1706   -0.2699   33.9850 C.ar    1  UNL1        0.0683
     12 C           5.0865   -0.1933   35.4807 C.ar    1  UNL1        0.0177
     13 C           4.2612    0.8769   36.1316 C.ar    1  UNL1        0.0027
     14 C           3.5201    1.8705   35.2869 C.ar    1  UNL1        0.0131
     15 C           1.2624    4.8587   34.4120 C.3     1  UNL1        0.1163
     16 N           5.9959   -1.3401   33.3340 N.ar    1  UNL1       -0.2729
     17 C           7.4685   -1.1350   33.1356 C.ar    1  UNL1        0.0860
     18 C           8.2937   -2.2051   32.4846 C.ar    1  UNL1        0.0561
     19 C           7.6463   -3.4804   32.0322 C.ar    1  UNL1        0.1453
     20 C           6.1737   -3.6854   32.2306 C.ar    1  UNL1        0.0980
     21 C           5.3485   -2.6153   32.8816 C.ar    1  UNL1        0.2679
     22 O           3.8758   -2.8203   33.0801 O.2     1  UNL1       -0.2665
     23 O           8.4716   -4.5505   31.3812 O.3     1  UNL1       -0.4704
     24 C           7.8360   -5.8495   30.9828 C.3     1  UNL1        0.2320
     25 C           7.6494   -6.1791   29.5314 C.ar    1  UNL1        0.0212
     26 C           8.4433   -7.2874   28.9059 C.ar    1  UNL1       -0.0007
     27 C           8.2567   -7.6170   27.4544 C.ar    1  UNL1       -0.0002
     28 C           7.2761   -6.8382   26.6285 C.ar    1  UNL1       -0.0000
     29 C           6.4822   -5.7298   27.2541 C.ar    1  UNL1       -0.0002
     30 C           6.6688   -5.4003   28.7055 C.ar    1  UNL1       -0.0007
@<TRIPOS>BOND
     1     1     2    1
     2     2     3    1
     3     3     4    1
     4     4     5    1
     5     5     6   ar
     6     6     7   ar
     7     7     8    1
     8     7     9   ar
     9     9    10   ar
    10    10    11   ar
    11    11    16    1
    12    16    17   ar
    13    17    18   ar
    14    18    19   ar
    15    19    23    1
    16    23    24    1
    17    24    25    1
    18    25    26   ar
    19    26    27   ar
    20    27    28   ar
    21    28    29   ar
    22    29    30   ar
    23    19    20   ar
    24    20    21   ar
    25    21    22    2
    26    11    12   ar
    27    12    13   ar
    28    13    14   ar
    29     6    15    1
    30    15     2    1
    31    14     5   ar
    32    14     9   ar
    33    21    16   ar
    34    30    25   ar
@<TRIPOS>MOLECULE
*****
 30 34 0 0 0
SMALL
GASTEIGER

@<TRIPOS>ATOM
      1 C           7.9518   -6.0646   31.2087 C.3     1  UNL1        0.0899
      2 N           7.5207   -5.3074   29.9878 N.3     1  UNL1       -0.2662
      3 C           6.9301   -3.9355   30.1257 C.3     1  UNL1        0.0772
      4 C           6.4990   -3.1783   28.9048 C.3     1  UNL1        0.0449
      5 C           6.6584   -3.7930   27.5458 C.ar    1  UNL1       -0.0064
      6 C           7.2491   -5.1649   27.4079 C.ar    1  UNL1        0.0494
      7 N           7.2825   -5.5106   25.9486 N.ar    1  UNL1       -0.3276
      8 C           7.7957   -6.7899   25.3571 C.3     1  UNL1        0.1301
      9 C           6.7125   -4.3523   25.1847 C.ar    1  UNL1        0.0609
     10 C           6.4948   -4.1271   23.7178 C.ar    1  UNL1        0.0348
     11 C           5.8914   -2.8403   23.2380 C.ar    1  UNL1        0.0683
     12 C           5.5057   -1.7788   24.2251 C.ar    1  UNL1        0.0177
     13 C           5.7234   -2.0040   25.6921 C.ar    1  UNL1        0.0027
     14 C           6.3268   -3.2908   26.1719 C.ar    1  UNL1        0.0131
     15 C           7.6802   -5.9221   28.6288 C.3     1  UNL1        0.1163
     16 N           5.6737   -2.6150   21.7711 N.ar    1  UNL1       -0.2729
     17 C           4.3862   -3.0409   21.1298 C.ar    1  UNL1        0.0860
     18 C           4.1685   -2.8157   19.6629 C.ar    1  UNL1        0.0561
     19 C           5.2383   -2.1646   18.8372 C.ar    1  UNL1        0.1453
     20 C           6.5257   -1.7387   19.4785 C.ar    1  UNL1        0.0980
     21 C           6.7434   -1.9640   20.9454 C.ar    1  UNL1        0.2679
     22 O           8.0308   -1.5381   21.5867 O.2     1  UNL1       -0.2665
     23 O           5.0206   -1.9393   17.3703 O.3     1  UNL1       -0.4704
     24 C           3.9766   -0.9666   16.9077 C.3     1  UNL1        0.2320
     25 C           3.6281    0.2197   17.7569 C.ar    1  UNL1        0.0212
     26 C           2.2901    0.2922   18.4312 C.ar    1  UNL1       -0.0007
     27 C           1.9416    1.4787   19.2804 C.ar    1  UNL1       -0.0002
     28 C           2.9309    2.5925   19.4552 C.ar    1  UNL1       -0.0000
     29 C           4.2689    2.5200   18.7809 C.ar    1  UNL1       -0.0002
     30 C           4.6174    1.3336   17.9317 C.ar    1  UNL1       -0.0007
@<TRIPOS>BOND
     1     1     2    1
     2     2     3    1
     3     3     4    1
     4     4     5    1
     5     5     6   ar
     6     6     7   ar
     7     7     8    1
     8     7     9   ar
     9     9    10   ar
    10    10    11   ar
    11    11    16    1
    12    16    17   ar
    13    17    18   ar
    14    18    19   ar
    15    19    23    1
    16    23    24    1
    17    24    25    1
    18    25    26   ar
    19    26    27   ar
    20    27    28   ar
    21    28    29   ar
    22    29    30   ar
    23    19    20   ar
    24    20    21   ar
    25    21    22    2
    26    11    12   ar
    27    12    13   ar
    28    13    14   ar
    29     6    15    1
    30    15     2    1
    31    14     5   ar
    32    14     9   ar
    33    21    16   ar
    34    30    25   ar
@<TRIPOS>MOLECULE
*****
 30 34 0 0 0
SMALL
GASTEIGER

@<TRIPOS>ATOM
      1 C          -6.2142    5.8383   27.0735 C.3     1  UNL1        0.0899
      2 N          -5.4799    5.3764   25.8498 N.3     1  UNL1       -0.2662
      3 C          -6.1386    5.4575   24.5046 C.3     1  UNL1        0.0772
      4 C          -5.4043    4.9956   23.2809 C.3     1  UNL1        0.0449
      5 C          -4.0114    4.4526   23.4024 C.ar    1  UNL1       -0.0064
      6 C          -3.3527    4.3714   24.7476 C.ar    1  UNL1        0.0494
      7 N          -1.9811    3.7945   24.5581 N.ar    1  UNL1       -0.3276
      8 C          -0.9752    3.5380   25.6408 C.3     1  UNL1        0.1301
      9 C          -1.7921    3.5191   23.0958 C.ar    1  UNL1        0.0609
     10 C          -0.6395    2.9506   22.3223 C.ar    1  UNL1        0.0348
     11 C          -0.7417    2.7887   20.8345 C.ar    1  UNL1        0.0683
     12 C          -1.9964    3.1954   20.1202 C.ar    1  UNL1        0.0177
     13 C          -3.1491    3.7640   20.8938 C.ar    1  UNL1        0.0027
     14 C          -3.0468    3.9258   22.3815 C.ar    1  UNL1        0.0131
     15 C          -4.0870    4.8333   25.9713 C.3     1  UNL1        0.1163
     16 N           0.4109    2.2201   20.0610 N.ar    1  UNL1       -0.2729
     17 C           1.3764    3.1375   19.3709 C.ar    1  UNL1        0.0860
     18 C           2.5290    2.5690   18.5975 C.ar    1  UNL1        0.0561
     19 C           2.7161    1.0830   18.5141 C.ar    1  UNL1        0.1453
     20 C           1.7505    0.1656   19.2041 C.ar    1  UNL1        0.0980
     21 C           0.5980    0.7342   19.9776 C.ar    1  UNL1        0.2679
     22 O          -0.3676   -0.1832   20.6677 O.2     1  UNL1       -0.2665
     23 O           3.8686    0.5144   17.7406 O.3     1  UNL1       -0.4704
     24 C           4.9971   -0.1597   18.4632 C.3     1  UNL1        0.2320
     25 C           4.7934   -1.5143   19.0743 C.ar    1  UNL1        0.0212
     26 C           4.8201   -2.7393   18.2089 C.ar    1  UNL1       -0.0007
     27 C           4.6164   -4.0939   18.8201 C.ar    1  UNL1       -0.0002
     28 C           4.3861   -4.2236   20.2966 C.ar    1  UNL1       -0.0000
     29 C           4.3594   -2.9987   21.1620 C.ar    1  UNL1       -0.0002
     30 C           4.5630   -1.6441   20.5509 C.ar    1  UNL1       -0.0007
@<TRIPOS>BOND
     1     1     2    1
     2     2     3    1
     3     3     4    1
     4     4     5    1
     5     5     6   ar
     6     6     7   ar
     7     7     8    1
     8     7     9   ar
     9     9    10   ar
    10    10    11   ar
    11    11    16    1
    12    16    17   ar
    13    17    18   ar
    14    18    19   ar
    15    19    23    1
    16    23    24    1
    17    24    25    1
    18    25    26   ar
    19    26    27   ar
    20    27    28   ar
    21    28    29   ar
    22    29    30   ar
    23    19    20   ar
    24    20    21   ar
    25    21    22    2
    26    11    12   ar
    27    12    13   ar
    28    13    14   ar
    29     6    15    1
    30    15     2    1
    31    14     5   ar
    32    14     9   ar
    33    21    16   ar
    34    30    25   ar
@<TRIPOS>MOLECULE
*****
 30 34 0 0 0
SMALL
GASTEIGER

@<TRIPOS>ATOM
      1 C           4.7769   -3.1806   18.3525 C.3     1  UNL1        0.0899
      2 N           4.3467   -2.5114   19.6242 N.3     1  UNL1       -0.2662
      3 C           3.3090   -1.4289   19.5882 C.3     1  UNL1        0.0772
      4 C           2.8788   -0.7598   20.8599 C.3     1  UNL1        0.0449
      5 C           3.4863   -1.1731   22.1676 C.ar    1  UNL1       -0.0064
      6 C           4.5240   -2.2556   22.2036 C.ar    1  UNL1        0.0494
      7 N           4.9421   -2.4497   23.6311 N.ar    1  UNL1       -0.3276
      8 C           5.9606   -3.4336   24.1255 C.3     1  UNL1        0.1301
      9 C           4.1627   -1.4872   24.4772 C.ar    1  UNL1        0.0609
     10 C           4.1561   -1.2271   25.9545 C.ar    1  UNL1        0.0348
     11 C           3.2497   -0.1781   26.5274 C.ar    1  UNL1        0.0683
     12 C           2.3500    0.6109   25.6229 C.ar    1  UNL1        0.0177
     13 C           2.3567    0.3508   24.1455 C.ar    1  UNL1        0.0027
     14 C           3.2630   -0.6982   23.5728 C.ar    1  UNL1        0.0131
     15 C           4.9542   -2.9248   20.9319 C.3     1  UNL1        0.1163
     16 N           3.2430    0.0819   28.0046 N.ar    1  UNL1       -0.2729
     17 C           2.2146   -0.5747   28.8771 C.ar    1  UNL1        0.0860
     18 C           2.2079   -0.3147   30.3544 C.ar    1  UNL1        0.0561
     19 C           3.2297    0.6020   30.9591 C.ar    1  UNL1        0.1453
     20 C           4.2582    1.2586   30.0866 C.ar    1  UNL1        0.0980
     21 C           4.2648    0.9985   28.6094 C.ar    1  UNL1        0.2679
     22 O           5.2933    1.6551   27.7369 O.2     1  UNL1       -0.2665
     23 O           3.2231    0.8620   32.4364 O.3     1  UNL1       -0.4704
     24 C           3.7497   -0.1757   33.3830 C.3     1  UNL1        0.2320
     25 C           5.0039   -0.9277   33.0493 C.ar    1  UNL1        0.0212
     26 C           4.9244   -2.3557   32.5973 C.ar    1  UNL1       -0.0007
     27 C           6.1788   -3.1077   32.2636 C.ar    1  UNL1       -0.0002
     28 C           7.5125   -2.4316   32.3820 C.ar    1  UNL1       -0.0000
     29 C           7.5920   -1.0036   32.8340 C.ar    1  UNL1       -0.0002
     30 C           6.3378   -0.2516   33.1677 C.ar    1  UNL1       -0.0007
@<TRIPOS>BOND
     1     1     2    1
     2     2     3    1
     3     3     4    1
     4     4     5    1
     5     5     6   ar
     6     6     7   ar
     7     7     8    1
     8     7     9   ar
     9     9    10   ar
    10    10    11   ar
    11    11    16    1
    12    16    17   ar
    13    17    18   ar
    14    18    19   ar
    15    19    23    1
    16    23    24    1
    17    24    25    1
    18    25    26   ar
    19    26    27   ar
    20    27    28   ar
    21    28    29   ar
    22    29    30   ar
    23    19    20   ar
    24    20    21   ar
    25    21    22    2
    26    11    12   ar
    27    12    13   ar
    28    13    14   ar
    29     6    15    1
    30    15     2    1
    31    14     5   ar
    32    14     9   ar
    33    21    16   ar
    34    30    25   ar
@<TRIPOS>MOLECULE
*****
 30 34 0 0 0
SMALL
GASTEIGER

@<TRIPOS>ATOM
      1 C           3.6189    2.8343   38.8625 C.3     1  UNL1        0.0899
      2 N           3.0688    3.0086   37.4779 N.3     1  UNL1       -0.2662
      3 C           2.1888    4.1818   37.1627 C.3     1  UNL1        0.0772
      4 C           1.6388    4.3561   35.7781 C.3     1  UNL1        0.0449
      5 C           1.9687    3.3572   34.7088 C.ar    1  UNL1       -0.0064
      6 C           2.8486    2.1841   35.0240 C.ar    1  UNL1        0.0494
      7 N           2.9997    1.3688   33.7740 N.ar    1  UNL1       -0.3276
      8 C           3.7973    0.1060   33.6360 C.3     1  UNL1        0.1301
      9 C           2.2131    2.0381   32.6862 C.ar    1  UNL1        0.0609
     10 C           1.9947    1.6872   31.2443 C.ar    1  UNL1        0.0348
     11 C           1.1391    2.5654   30.3800 C.ar    1  UNL1        0.0683
     12 C           0.5019    3.7943   30.9577 C.ar    1  UNL1        0.0177
     13 C           0.7203    4.1451   32.3997 C.ar    1  UNL1        0.0027
     14 C           1.5759    3.2670   33.2639 C.ar    1  UNL1        0.0131
     15 C           3.3987    2.0098   36.4086 C.3     1  UNL1        0.1163
     16 N           0.9207    2.2145   28.9380 N.ar    1  UNL1       -0.2729
     17 C           1.7504    2.8683   27.8731 C.ar    1  UNL1        0.0860
     18 C           1.5321    2.5175   26.4312 C.ar    1  UNL1        0.0561
     19 C           0.4839    1.5129   26.0542 C.ar    1  UNL1        0.1453
     20 C          -0.3459    0.8591   27.1191 C.ar    1  UNL1        0.0980
     21 C          -0.1275    1.2099   28.5610 C.ar    1  UNL1        0.2679
     22 O          -0.9572    0.5561   29.6260 O.2     1  UNL1       -0.2665
     23 O           0.2655    1.1621   24.6122 O.3     1  UNL1       -0.4704
     24 C           1.3029    1.5171   23.5885 C.3     1  UNL1        0.2320
     25 C           1.9988    0.4337   22.8191 C.ar    1  UNL1        0.0212
     26 C           2.9931   -0.4544   23.5067 C.ar    1  UNL1       -0.0007
     27 C           3.6890   -1.5378   22.7372 C.ar    1  UNL1       -0.0002
     28 C           3.3907   -1.7330   21.2802 C.ar    1  UNL1       -0.0000
     29 C           2.3964   -0.8449   20.5926 C.ar    1  UNL1       -0.0002
     30 C           1.7005    0.2384   21.3620 C.ar    1  UNL1       -0.0007
@<TRIPOS>BOND
     1     1     2    1
     2     2     3    1
     3     3     4    1
     4     4     5    1
     5     5     6   ar
     6     6     7   ar
     7     7     8    1
     8     7     9   ar
     9     9    10   ar
    10    10    11   ar
    11    11    16    1
    12    16    17   ar
    13    17    18   ar
    14    18    19   ar
    15    19    23    1
    16    23    24    1
    17    24    25    1
    18    25    26   ar
    19    26    27   ar
    20    27    28   ar
    21    28    29   ar
    22    29    30   ar
    23    19    20   ar
    24    20    21   ar
    25    21    22    2
    26    11    12   ar
    27    12    13   ar
    28    13    14   ar
    29     6    15    1
    30    15     2    1
    31    14     5   ar
    32    14     9   ar
    33    21    16   ar
    34    30    25   ar
