@<TRIPOS>MOLECULE
*****
 30 33 0 0 0
SMALL
GASTEIGER

@<TRIPOS>ATOM
      1 C         -15.5039    0.4779   19.3503 C.ar    1  UNL1        0.1453
      2 C         -15.7938   -0.8529   19.9785 C.ar    1  UNL1        0.0381
      3 C         -14.8113   -1.9778   19.8400 C.ar    1  UNL1        0.0114
      4 C         -13.5386   -1.7717   19.0731 C.ar    1  UNL1        0.0419
      5 C         -13.2486   -0.4409   18.4449 C.ar    1  UNL1        0.0114
      6 C         -14.2313    0.6839   18.5835 C.ar    1  UNL1        0.0381
      7 C         -12.5561   -2.8966   18.9346 C.1     1  UNL1       -0.0621
      8 C         -11.5735   -4.0214   18.7960 C.1     1  UNL1       -0.0597
      9 C          -9.9183   -6.1951   18.7654 C.3     1  UNL1        0.1561
     10 O          -9.7537   -3.9988   19.4338 O.3     1  UNL1       -0.3739
     11 C         -10.9624   -6.8648   18.2168 C.3     1  UNL1        0.1120
     12 N         -11.5671   -7.3125   17.8824 N.3     1  UNL1       -0.2699
     13 C         -10.2702   -8.0225   18.1348 C.3     1  UNL1        0.0723
     14 C          -9.1155   -7.2820   18.7415 C.3     1  UNL1        0.0207
     15 C          -9.2577   -5.8314   19.0959 C.3     1  UNL1        0.0404
     16 C         -10.5546   -5.1213   18.8434 C.3     1  UNL1        0.0207
     17 C         -11.7093   -5.8619   18.2367 C.3     1  UNL1        0.0723
     18 H         -10.5955   -3.5463   19.2676 H       1  UNL1        0.2115
     19 O         -16.4865    1.6028   19.4888 O.3     1  UNL1       -0.4535
     20 C         -16.6478    3.9932   23.2980 C.ar    1  UNL1        0.0536
     21 C         -15.8450    4.4918   22.1332 C.ar    1  UNL1        0.0076
     22 C         -15.7912    3.6950   20.8634 C.ar    1  UNL1        0.0376
     23 C         -16.5403    2.3995   20.7585 C.ar    1  UNL1        0.1453
     24 C         -17.3431    1.9011   21.9234 C.ar    1  UNL1        0.0376
     25 C         -17.3968    2.6978   23.1931 C.ar    1  UNL1        0.0076
     26 C         -15.6708    5.4376   26.8631 C.3     1  UNL1        0.1109
     27 N         -15.6171    4.6408   25.5932 N.am    1  UNL1       -0.2992
     28 C         -16.7016    4.7900   24.5678 C.2     1  UNL1        0.2459
     29 O         -17.8397    5.7359   24.8120 O.2     1  UNL1       -0.2701
     30 H         -14.8701    4.0199   25.4329 H       1  UNL1        0.1498
@<TRIPOS>BOND
     1    26    27    1
     2    27    28   am
     3    28    29    2
     4    28    20    1
     5    20    21   ar
     6    21    22   ar
     7    22    23   ar
     8    23    19    1
     9    19     1    1
    10     1     2   ar
    11     2     3   ar
    12     3     4   ar
    13     4     7    1
    14     7     8    3
    15     8     9    1
    16     9    10    1
    17     9    11    1
    18    11    12    1
    19    12    13    1
    20    13    14    1
    21    14    15    1
    22    15    16    1
    23    16    17    1
    24     4     5   ar
    25     5     6   ar
    26    23    24   ar
    27    24    25   ar
    28    25    20   ar
    29     6     1   ar
    30    15     9    1
    31    17    12    1
    32    27    30    1
    33    10    18    1
@<TRIPOS>MOLECULE
*****
 30 33 0 0 0
SMALL
GASTEIGER

@<TRIPOS>ATOM
      1 C           4.4929   -1.7106   19.7903 C.ar    1  UNL1        0.1453
      2 C           4.0148   -3.1101   20.0410 C.ar    1  UNL1        0.0381
      3 C           4.6051   -3.9151   21.1606 C.ar    1  UNL1        0.0114
      4 C           5.6736   -3.3205   22.0296 C.ar    1  UNL1        0.0419
      5 C           6.1517   -1.9211   21.7788 C.ar    1  UNL1        0.0114
      6 C           5.5614   -1.1161   20.6592 C.ar    1  UNL1        0.0381
      7 C           6.2638   -4.1256   23.1491 C.1     1  UNL1       -0.0621
      8 C           6.8541   -4.9305   24.2687 C.1     1  UNL1       -0.0597
      9 C           7.6846   -6.5484   26.3079 C.3     1  UNL1        0.1561
     10 O           6.3925   -4.6529   26.1204 O.3     1  UNL1       -0.3739
     11 C           8.3237   -7.2674   25.3517 C.3     1  UNL1        0.1120
     12 N           8.7279   -7.7349   24.8076 N.3     1  UNL1       -0.2699
     13 C           8.8127   -8.1560   26.2447 C.3     1  UNL1        0.0723
     14 C           8.1060   -7.3609   27.3022 C.3     1  UNL1        0.0207
     15 C           7.3145   -6.1446   26.9225 C.3     1  UNL1        0.0404
     16 C           7.2297   -5.7235   25.4854 C.3     1  UNL1        0.0207
     17 C           7.9364   -6.5186   24.4279 C.3     1  UNL1        0.0723
     18 H           6.3422   -4.3867   25.1890 H       1  UNL1        0.2115
     19 O           3.9026   -0.9056   18.6706 O.3     1  UNL1       -0.4535
     20 C           0.4930    1.9165   19.4829 C.ar    1  UNL1        0.0536
     21 C           0.4664    0.5265   20.0460 C.ar    1  UNL1        0.0076
     22 C           1.6030   -0.4143   19.7752 C.ar    1  UNL1        0.0376
     23 C           2.7661    0.0351   18.9414 C.ar    1  UNL1        0.1453
     24 C           2.7926    1.4251   18.3783 C.ar    1  UNL1        0.0376
     25 C           1.6561    2.3658   18.6490 C.ar    1  UNL1        0.0076
     26 C          -2.7603    3.4947   21.1186 C.3     1  UNL1        0.1109
     27 N          -1.6237    2.5540   20.8478 N.am    1  UNL1       -0.2992
     28 C          -0.6436    2.8573   19.7536 C.2     1  UNL1        0.2459
     29 O          -0.7999    4.1012   18.9303 O.2     1  UNL1       -0.2701
     30 H          -1.5211    1.7375   21.3882 H       1  UNL1        0.1498
@<TRIPOS>BOND
     1    26    27    1
     2    27    28   am
     3    28    29    2
     4    28    20    1
     5    20    21   ar
     6    21    22   ar
     7    22    23   ar
     8    23    19    1
     9    19     1    1
    10     1     2   ar
    11     2     3   ar
    12     3     4   ar
    13     4     7    1
    14     7     8    3
    15     8     9    1
    16     9    10    1
    17     9    11    1
    18    11    12    1
    19    12    13    1
    20    13    14    1
    21    14    15    1
    22    15    16    1
    23    16    17    1
    24     4     5   ar
    25     5     6   ar
    26    23    24   ar
    27    24    25   ar
    28    25    20   ar
    29     6     1   ar
    30    15     9    1
    31    17    12    1
    32    27    30    1
    33    10    18    1
@<TRIPOS>MOLECULE
*****
 30 33 0 0 0
SMALL
GASTEIGER

@<TRIPOS>ATOM
      1 C           5.8283   -1.0505   19.1203 C.ar    1  UNL1        0.1453
      2 C           5.8192   -2.5148   18.7953 C.ar    1  UNL1        0.0381
      3 C           6.2346   -3.5159   19.8323 C.ar    1  UNL1        0.0114
      4 C           6.6591   -3.0525   21.1944 C.ar    1  UNL1        0.0419
      5 C           6.6682   -1.5882   21.5194 C.ar    1  UNL1        0.0114
      6 C           6.2528   -0.5872   20.4824 C.ar    1  UNL1        0.0381
      7 C           7.0744   -4.0536   22.2313 C.1     1  UNL1       -0.0621
      8 C           7.4899   -5.0546   23.2683 C.1     1  UNL1       -0.0597
      9 C           7.9995   -7.0152   25.1019 C.3     1  UNL1        0.1561
     10 O           8.3605   -6.7231   22.8475 O.3     1  UNL1       -0.3739
     11 C           7.4155   -6.1905   26.0066 C.3     1  UNL1        0.1120
     12 N           7.0695   -5.7249   26.5909 N.3     1  UNL1       -0.2699
     13 C           7.5966   -7.0606   27.0245 C.3     1  UNL1        0.0723
     14 C           8.2425   -7.9727   26.0241 C.3     1  UNL1        0.0207
     15 C           8.3613   -7.5491   24.5901 C.3     1  UNL1        0.0404
     16 C           7.8342   -6.2134   24.1565 C.3     1  UNL1        0.0207
     17 C           7.1883   -5.3013   25.1569 C.3     1  UNL1        0.0723
     18 H           8.0173   -5.8578   22.5746 H       1  UNL1        0.2115
     19 O           5.4129   -0.0494   18.0833 O.3     1  UNL1       -0.4535
     20 C           1.4949    2.1249   18.4969 C.ar    1  UNL1        0.0536
     21 C           2.7835    2.8924   18.5105 C.ar    1  UNL1        0.0076
     22 C           4.0896    2.1676   18.3726 C.ar    1  UNL1        0.0376
     23 C           4.1069    0.6753   18.2212 C.ar    1  UNL1        0.1453
     24 C           2.8182   -0.0921   18.2076 C.ar    1  UNL1        0.0376
     25 C           1.5122    0.6327   18.3455 C.ar    1  UNL1        0.0076
     26 C          -1.8589    4.0230   17.5483 C.3     1  UNL1        0.1109
     27 N          -0.5528    3.2982   17.4105 N.am    1  UNL1       -0.2992
     28 C           0.1888    2.8496   18.6348 C.2     1  UNL1        0.2459
     29 O          -0.3756    3.1258   19.9967 O.2     1  UNL1       -0.2701
     30 H          -0.1823    3.1169   16.5166 H       1  UNL1        0.1498
@<TRIPOS>BOND
     1    26    27    1
     2    27    28   am
     3    28    29    2
     4    28    20    1
     5    20    21   ar
     6    21    22   ar
     7    22    23   ar
     8    23    19    1
     9    19     1    1
    10     1     2   ar
    11     2     3   ar
    12     3     4   ar
    13     4     7    1
    14     7     8    3
    15     8     9    1
    16     9    10    1
    17     9    11    1
    18    11    12    1
    19    12    13    1
    20    13    14    1
    21    14    15    1
    22    15    16    1
    23    16    17    1
    24     4     5   ar
    25     5     6   ar
    26    23    24   ar
    27    24    25   ar
    28    25    20   ar
    29     6     1   ar
    30    15     9    1
    31    17    12    1
    32    27    30    1
    33    10    18    1
@<TRIPOS>MOLECULE
*****
 30 33 0 0 0
SMALL
GASTEIGER

@<TRIPOS>ATOM
      1 C           3.9474   -1.5328   19.4164 C.ar    1  UNL1        0.1453
      2 C           3.7581   -3.0205   19.3930 C.ar    1  UNL1        0.0381
      3 C           4.5973   -3.8974   20.2744 C.ar    1  UNL1        0.0114
      4 C           5.6259   -3.2863   21.1793 C.ar    1  UNL1        0.0419
      5 C           5.8152   -1.7985   21.2027 C.ar    1  UNL1        0.0114
      6 C           4.9760   -0.9217   20.3212 C.ar    1  UNL1        0.0381
      7 C           6.4650   -4.1631   22.0607 C.1     1  UNL1       -0.0621
      8 C           7.3043   -5.0398   22.9422 C.1     1  UNL1       -0.0597
      9 C           8.6875   -6.8601   24.4385 C.3     1  UNL1        0.1561
     10 O           8.4164   -6.4264   22.1944 O.3     1  UNL1       -0.3739
     11 C           8.1606   -6.2319   25.5189 C.3     1  UNL1        0.1120
     12 N           7.8655   -5.8832   26.2040 N.3     1  UNL1       -0.2699
     13 C           8.7812   -7.0565   26.3914 C.3     1  UNL1        0.0723
     14 C           9.3639   -7.7513   25.1966 C.3     1  UNL1        0.0207
     15 C           9.0310   -7.2729   23.8144 C.3     1  UNL1        0.0404
     16 C           8.1154   -6.0996   23.6271 C.3     1  UNL1        0.0207
     17 C           7.5326   -5.4048   24.8219 C.3     1  UNL1        0.0723
     18 H           7.8236   -5.6671   22.0811 H       1  UNL1        0.2115
     19 O           3.1082   -0.6560   18.5349 O.3     1  UNL1       -0.4535
     20 C          -0.0741    1.9633   20.3411 C.ar    1  UNL1        0.0536
     21 C           0.1597    0.5846   20.8839 C.ar    1  UNL1        0.0076
     22 C           1.2205   -0.2885   20.2818 C.ar    1  UNL1        0.0376
     23 C           2.0475    0.2171   19.1370 C.ar    1  UNL1        0.1453
     24 C           1.8136    1.5958   18.5943 C.ar    1  UNL1        0.0376
     25 C           0.7528    2.4689   19.1964 C.ar    1  UNL1        0.0076
     26 C          -3.6178    3.5886   21.0835 C.3     1  UNL1        0.1109
     27 N          -2.5569    2.7155   20.4814 N.am    1  UNL1       -0.2992
     28 C          -1.1349    2.8364   20.9432 C.2     1  UNL1        0.2459
     29 O          -0.7737    3.8303   22.0069 O.2     1  UNL1       -0.2701
     30 H          -2.7940    2.0631   19.7833 H       1  UNL1        0.1498
@<TRIPOS>BOND
     1    26    27    1
     2    27    28   am
     3    28    29    2
     4    28    20    1
     5    20    21   ar
     6    21    22   ar
     7    22    23   ar
     8    23    19    1
     9    19     1    1
    10     1     2   ar
    11     2     3   ar
    12     3     4   ar
    13     4     7    1
    14     7     8    3
    15     8     9    1
    16     9    10    1
    17     9    11    1
    18    11    12    1
    19    12    13    1
    20    13    14    1
    21    14    15    1
    22    15    16    1
    23    16    17    1
    24     4     5   ar
    25     5     6   ar
    26    23    24   ar
    27    24    25   ar
    28    25    20   ar
    29     6     1   ar
    30    15     9    1
    31    17    12    1
    32    27    30    1
    33    10    18    1
@<TRIPOS>MOLECULE
*****
 30 33 0 0 0
SMALL
GASTEIGER

@<TRIPOS>ATOM
      1 C           4.4622   -1.7430   19.5545 C.ar    1  UNL1        0.1453
      2 C           5.5885   -1.1745   20.3657 C.ar    1  UNL1        0.0381
      3 C           6.2362   -2.0039   21.4345 C.ar    1  UNL1        0.0114
      4 C           5.7575   -3.4020   21.6922 C.ar    1  UNL1        0.0419
      5 C           4.6311   -3.9705   20.8810 C.ar    1  UNL1        0.0114
      6 C           3.9834   -3.1410   19.8121 C.ar    1  UNL1        0.0381
      7 C           6.4052   -4.2315   22.7610 C.1     1  UNL1       -0.0621
      8 C           7.0530   -5.0608   23.8299 C.1     1  UNL1       -0.0597
      9 C           8.0358   -6.7732   25.7186 C.3     1  UNL1        0.1561
     10 O           8.1133   -6.6194   23.4234 O.3     1  UNL1       -0.3739
     11 C           7.4330   -5.9671   26.6277 C.3     1  UNL1        0.1120
     12 N           7.0843   -5.5083   27.2158 N.3     1  UNL1       -0.2699
     13 C           7.8461   -6.7166   27.6735 C.3     1  UNL1        0.0723
     14 C           8.5128   -7.6081   26.6682 C.3     1  UNL1        0.0207
     15 C           8.4177   -7.2912   25.2051 C.3     1  UNL1        0.0404
     16 C           7.6560   -6.0828   24.7474 C.3     1  UNL1        0.0207
     17 C           6.9893   -5.1914   25.7528 C.3     1  UNL1        0.0723
     18 H           7.6189   -5.8362   23.1349 H       1  UNL1        0.2115
     19 O           3.8145   -0.9135   18.4856 O.3     1  UNL1       -0.4535
     20 C           0.5279    1.9681   19.5556 C.ar    1  UNL1        0.0536
     21 C           1.6727    2.4208   18.6987 C.ar    1  UNL1        0.0076
     22 C           2.7682    1.4603   18.3420 C.ar    1  UNL1        0.0376
     23 C           2.7190    0.0470   18.8423 C.ar    1  UNL1        0.1453
     24 C           1.5741   -0.4057   19.6992 C.ar    1  UNL1        0.0376
     25 C           0.4786    0.5548   20.0559 C.ar    1  UNL1        0.0076
     26 C          -2.7348    3.4791   21.2355 C.3     1  UNL1        0.1109
     27 N          -1.6392    2.5186   20.8787 N.am    1  UNL1       -0.2992
     28 C          -0.5677    2.9286   19.9124 C.2     1  UNL1        0.2459
     29 O          -0.5918    4.2988   19.3028 O.2     1  UNL1       -0.2701
     30 H          -1.6233    1.6192   21.2788 H       1  UNL1        0.1498
@<TRIPOS>BOND
     1    26    27    1
     2    27    28   am
     3    28    29    2
     4    28    20    1
     5    20    21   ar
     6    21    22   ar
     7    22    23   ar
     8    23    19    1
     9    19     1    1
    10     1     2   ar
    11     2     3   ar
    12     3     4   ar
    13     4     7    1
    14     7     8    3
    15     8     9    1
    16     9    10    1
    17     9    11    1
    18    11    12    1
    19    12    13    1
    20    13    14    1
    21    14    15    1
    22    15    16    1
    23    16    17    1
    24     4     5   ar
    25     5     6   ar
    26    23    24   ar
    27    24    25   ar
    28    25    20   ar
    29     6     1   ar
    30    15     9    1
    31    17    12    1
    32    27    30    1
    33    10    18    1
@<TRIPOS>MOLECULE
*****
 30 33 0 0 0
SMALL
GASTEIGER

@<TRIPOS>ATOM
      1 C           1.2484    0.1967   28.7346 C.ar    1  UNL1        0.1453
      2 C          -0.1748   -0.1856   29.0141 C.ar    1  UNL1        0.0381
      3 C          -1.2966    0.6175   28.4256 C.ar    1  UNL1        0.0114
      4 C          -0.9951    1.8031   27.5574 C.ar    1  UNL1        0.0419
      5 C           0.4281    2.1854   27.2779 C.ar    1  UNL1        0.0114
      6 C           1.5499    1.3822   27.8665 C.ar    1  UNL1        0.0381
      7 C          -2.1169    2.6063   26.9688 C.1     1  UNL1       -0.0621
      8 C          -3.2387    3.4095   26.3802 C.1     1  UNL1       -0.0597
      9 C          -5.4612    4.7020   25.4553 C.3     1  UNL1        0.1561
     10 O          -4.2997    4.6211   27.4408 O.3     1  UNL1       -0.3739
     11 C          -5.2287    4.0639   24.2813 C.3     1  UNL1        0.1120
     12 N          -5.1283    3.6995   23.5498 N.3     1  UNL1       -0.2699
     13 C          -6.3007    4.6260   23.6804 C.3     1  UNL1        0.0723
     14 C          -6.5578    5.3317   24.9788 C.3     1  UNL1        0.0207
     15 C          -5.6426    5.1109   26.1465 C.3     1  UNL1        0.0404
     16 C          -4.4703    4.1844   26.0159 C.3     1  UNL1        0.0207
     17 C          -4.2131    3.4787   24.7176 C.3     1  UNL1        0.0723
     18 H          -3.5436    4.0204   27.3489 H       1  UNL1        0.2115
     19 O           2.3702   -0.6066   29.3232 O.3     1  UNL1       -0.4535
     20 C           3.7738    0.2249   33.5171 C.ar    1  UNL1        0.0536
     21 C           4.1838   -1.0418   32.8264 C.ar    1  UNL1        0.0076
     22 C           3.7160   -1.3190   31.4283 C.ar    1  UNL1        0.0376
     23 C           2.8380   -0.3294   30.7211 C.ar    1  UNL1        0.1453
     24 C           2.4281    0.9373   31.4120 C.ar    1  UNL1        0.0376
     25 C           2.8959    1.2145   32.8099 C.ar    1  UNL1        0.0076
     26 C           4.0841    1.8877   37.1073 C.3     1  UNL1        0.1109
     27 N           3.6163    1.6104   35.7092 N.am    1  UNL1       -0.2992
     28 C           4.2416    0.5021   34.9151 C.2     1  UNL1        0.2459
     29 O           5.3346   -0.3288   35.5189 O.2     1  UNL1       -0.2701
     30 H           2.8989    2.1559   35.3129 H       1  UNL1        0.1498
@<TRIPOS>BOND
     1    26    27    1
     2    27    28   am
     3    28    29    2
     4    28    20    1
     5    20    21   ar
     6    21    22   ar
     7    22    23   ar
     8    23    19    1
     9    19     1    1
    10     1     2   ar
    11     2     3   ar
    12     3     4   ar
    13     4     7    1
    14     7     8    3
    15     8     9    1
    16     9    10    1
    17     9    11    1
    18    11    12    1
    19    12    13    1
    20    13    14    1
    21    14    15    1
    22    15    16    1
    23    16    17    1
    24     4     5   ar
    25     5     6   ar
    26    23    24   ar
    27    24    25   ar
    28    25    20   ar
    29     6     1   ar
    30    15     9    1
    31    17    12    1
    32    27    30    1
    33    10    18    1
@<TRIPOS>MOLECULE
*****
 30 33 0 0 0
SMALL
GASTEIGER

@<TRIPOS>ATOM
      1 C           1.4412    1.3139   26.1769 C.ar    1  UNL1        0.1453
      2 C           0.4479    0.9884   27.2528 C.ar    1  UNL1        0.0381
      3 C          -0.8887    1.6689   27.2704 C.ar    1  UNL1        0.0114
      4 C          -1.2321    2.6749   26.2120 C.ar    1  UNL1        0.0419
      5 C          -0.2389    3.0004   25.1362 C.ar    1  UNL1        0.0114
      6 C           1.0978    2.3199   25.1186 C.ar    1  UNL1        0.0381
      7 C          -2.5688    3.3554   26.2297 C.1     1  UNL1       -0.0621
      8 C          -3.9054    4.0357   26.2474 C.1     1  UNL1       -0.0597
      9 C          -6.2304    5.4625   26.0906 C.3     1  UNL1        0.1561
     10 O          -4.5096    5.2635   27.6062 O.3     1  UNL1       -0.3739
     11 C          -6.4151    4.8508   24.8942 C.3     1  UNL1        0.1120
     12 N          -6.5705    4.5050   24.1633 N.3     1  UNL1       -0.2699
     13 C          -7.5886    5.4826   24.6708 C.3     1  UNL1        0.0723
     14 C          -7.3844    6.1591   25.9939 C.3     1  UNL1        0.0207
     15 C          -6.1620    5.8579   26.8095 C.3     1  UNL1        0.0404
     16 C          -5.1439    4.8803   26.3020 C.3     1  UNL1        0.0207
     17 C          -5.3481    4.2038   24.9789 C.3     1  UNL1        0.0723
     18 H          -3.8556    4.6301   27.2715 H       1  UNL1        0.2115
     19 O           2.7778    0.6334   26.1593 O.3     1  UNL1       -0.4535
     20 C           3.9088   -2.0156   22.7020 C.ar    1  UNL1        0.0536
     21 C           4.5315   -2.2340   24.0491 C.ar    1  UNL1        0.0076
     22 C           4.1545   -1.3509   25.2016 C.ar    1  UNL1        0.0376
     23 C           3.1548   -0.2495   25.0069 C.ar    1  UNL1        0.1453
     24 C           2.5323   -0.0313   23.6598 C.ar    1  UNL1        0.0376
     25 C           2.9092   -0.9143   22.5074 C.ar    1  UNL1        0.0076
     26 C           4.4317   -3.3172   18.9895 C.3     1  UNL1        0.1109
     27 N           4.0547   -2.4342   20.1421 N.am    1  UNL1       -0.2992
     28 C           4.2858   -2.8986   21.5495 C.2     1  UNL1        0.2459
     29 O           4.8938   -4.2459   21.8044 O.2     1  UNL1       -0.2701
     30 H           3.6556   -1.5499   19.9748 H       1  UNL1        0.1498
@<TRIPOS>BOND
     1    26    27    1
     2    27    28   am
     3    28    29    2
     4    28    20    1
     5    20    21   ar
     6    21    22   ar
     7    22    23   ar
     8    23    19    1
     9    19     1    1
    10     1     2   ar
    11     2     3   ar
    12     3     4   ar
    13     4     7    1
    14     7     8    3
    15     8     9    1
    16     9    10    1
    17     9    11    1
    18    11    12    1
    19    12    13    1
    20    13    14    1
    21    14    15    1
    22    15    16    1
    23    16    17    1
    24     4     5   ar
    25     5     6   ar
    26    23    24   ar
    27    24    25   ar
    28    25    20   ar
    29     6     1   ar
    30    15     9    1
    31    17    12    1
    32    27    30    1
    33    10    18    1
@<TRIPOS>MOLECULE
*****
 30 33 0 0 0
SMALL
GASTEIGER

@<TRIPOS>ATOM
      1 C         -11.4081    6.3691   24.4974 C.ar    1  UNL1        0.1453
      2 C         -12.1073    7.5990   24.9958 C.ar    1  UNL1        0.0381
      3 C         -13.4061    7.4756   25.7358 C.ar    1  UNL1        0.0114
      4 C         -14.0058    6.1220   25.9775 C.ar    1  UNL1        0.0419
      5 C         -13.3067    4.8921   25.4792 C.ar    1  UNL1        0.0114
      6 C         -12.0078    5.0156   24.7391 C.ar    1  UNL1        0.0381
      7 C         -15.3047    5.9986   26.7176 C.1     1  UNL1       -0.0621
      8 C         -16.6034    5.8751   27.4578 C.1     1  UNL1       -0.0597
      9 C         -19.0977    5.7424   28.5654 C.3     1  UNL1        0.1561
     10 O         -18.1702    5.2648   26.5137 O.3     1  UNL1       -0.3739
     11 C         -18.5187    6.2190   29.6955 C.3     1  UNL1        0.1120
     12 N         -18.2125    6.5066   30.4037 N.3     1  UNL1       -0.2699
     13 C         -19.6829    6.2114   30.3815 C.3     1  UNL1        0.0723
     14 C         -20.3233    5.6843   29.1317 C.3     1  UNL1        0.0207
     15 C         -19.4932    5.4524   27.9041 C.3     1  UNL1        0.0404
     16 C         -18.0227    5.7476   27.9262 C.3     1  UNL1        0.0207
     17 C         -17.3824    6.2746   29.1760 C.3     1  UNL1        0.0723
     18 H         -17.2199    5.4579   26.5356 H       1  UNL1        0.2115
     19 O         -10.1092    6.4926   23.7573 O.3     1  UNL1       -0.4535
     20 C          -6.2539    5.3380   25.7705 C.ar    1  UNL1        0.0536
     21 C          -7.1348    6.3865   26.3825 C.ar    1  UNL1        0.0076
     22 C          -8.4199    6.7715   25.7114 C.ar    1  UNL1        0.0376
     23 C          -8.8242    6.1078   24.4283 C.ar    1  UNL1        0.1453
     24 C          -7.9432    5.0593   23.8164 C.ar    1  UNL1        0.0376
     25 C          -6.6581    4.6744   24.4875 C.ar    1  UNL1        0.0076
     26 C          -2.7469    3.6064   26.4434 C.3     1  UNL1        0.1109
     27 N          -4.0321    3.9914   25.7724 N.am    1  UNL1       -0.2992
     28 C          -4.9687    4.9531   26.4415 C.2     1  UNL1        0.2459
     29 O          -4.6202    5.5298   27.7815 O.2     1  UNL1       -0.2701
     30 H          -4.2609    3.6128   24.8928 H       1  UNL1        0.1498
@<TRIPOS>BOND
     1    26    27    1
     2    27    28   am
     3    28    29    2
     4    28    20    1
     5    20    21   ar
     6    21    22   ar
     7    22    23   ar
     8    23    19    1
     9    19     1    1
    10     1     2   ar
    11     2     3   ar
    12     3     4   ar
    13     4     7    1
    14     7     8    3
    15     8     9    1
    16     9    10    1
    17     9    11    1
    18    11    12    1
    19    12    13    1
    20    13    14    1
    21    14    15    1
    22    15    16    1
    23    16    17    1
    24     4     5   ar
    25     5     6   ar
    26    23    24   ar
    27    24    25   ar
    28    25    20   ar
    29     6     1   ar
    30    15     9    1
    31    17    12    1
    32    27    30    1
    33    10    18    1
@<TRIPOS>MOLECULE
*****
 30 33 0 0 0
SMALL
GASTEIGER

@<TRIPOS>ATOM
      1 C          -0.8518    3.4976   19.1621 C.ar    1  UNL1        0.1453
      2 C           0.0807    3.0935   18.0589 C.ar    1  UNL1        0.0381
      3 C           0.9961    1.9196   18.2429 C.ar    1  UNL1        0.0114
      4 C           0.9791    1.1498   19.5303 C.ar    1  UNL1        0.0419
      5 C           0.0466    1.5539   20.6335 C.ar    1  UNL1        0.0114
      6 C          -0.8688    2.7279   20.4494 C.ar    1  UNL1        0.0381
      7 C           1.8945   -0.0241   19.7143 C.1     1  UNL1       -0.0621
      8 C           2.8098   -1.1981   19.8983 C.1     1  UNL1       -0.0597
      9 C           4.6896   -3.1664   20.1393 C.3     1  UNL1        0.1561
     10 O           4.4606   -0.9974   20.8748 O.3     1  UNL1       -0.3739
     11 C           3.8557   -3.9252   19.3854 C.3     1  UNL1        0.1120
     12 N           3.3830   -4.4233   18.9310 N.3     1  UNL1       -0.2699
     13 C           4.6847   -4.9921   19.4128 C.3     1  UNL1        0.0723
     14 C           5.6069   -4.1529   20.2466 C.3     1  UNL1        0.0207
     15 C           5.2275   -2.7450   20.5986 C.3     1  UNL1        0.0404
     16 C           3.9258   -2.1763   20.1169 C.3     1  UNL1        0.0207
     17 C           3.0036   -3.0154   19.2831 C.3     1  UNL1        0.0723
     18 H           3.6172   -0.6365   20.5596 H       1  UNL1        0.2115
     19 O          -1.7672    4.6716   18.9781 O.3     1  UNL1       -0.4535
     20 C          -5.6695    4.8537   21.2116 C.ar    1  UNL1        0.0536
     21 C          -5.5103    3.9110   20.0558 C.ar    1  UNL1        0.0076
     22 C          -4.2095    3.8503   19.3113 C.ar    1  UNL1        0.0376
     23 C          -3.0679    4.7323   19.7226 C.ar    1  UNL1        0.1453
     24 C          -3.2273    5.6750   20.8784 C.ar    1  UNL1        0.0376
     25 C          -4.5281    5.7357   21.6229 C.ar    1  UNL1        0.0076
     26 C          -8.4939    4.0943   23.8943 C.3     1  UNL1        0.1109
     27 N          -7.1931    4.0336   23.1496 N.am    1  UNL1       -0.2992
     28 C          -6.9703    4.9145   21.9562 C.2     1  UNL1        0.2459
     29 O          -8.0482    5.8560   21.5073 O.2     1  UNL1       -0.2701
     30 H          -6.4856    3.4156   23.4442 H       1  UNL1        0.1498
@<TRIPOS>BOND
     1    26    27    1
     2    27    28   am
     3    28    29    2
     4    28    20    1
     5    20    21   ar
     6    21    22   ar
     7    22    23   ar
     8    23    19    1
     9    19     1    1
    10     1     2   ar
    11     2     3   ar
    12     3     4   ar
    13     4     7    1
    14     7     8    3
    15     8     9    1
    16     9    10    1
    17     9    11    1
    18    11    12    1
    19    12    13    1
    20    13    14    1
    21    14    15    1
    22    15    16    1
    23    16    17    1
    24     4     5   ar
    25     5     6   ar
    26    23    24   ar
    27    24    25   ar
    28    25    20   ar
    29     6     1   ar
    30    15     9    1
    31    17    12    1
    32    27    30    1
    33    10    18    1
