@<TRIPOS>MOLECULE
*****
 36 38 0 0 0
SMALL
GASTEIGER

@<TRIPOS>ATOM
      1 C           0.9177    6.5177   22.3719 C.3     1  UNL1        0.0542
      2 C           0.0331    5.4553   21.7901 C.ar    1  UNL1        0.0865
      3 N          -1.3753    5.6458   21.3106 N.ar    1  UNL1       -0.1681
      4 N          -1.8773    4.3239   20.8097 N.ar    1  UNL1       -0.2150
      5 C          -0.7791    3.3165   20.9796 C.ar    1  UNL1        0.1539
      6 C           0.4016    4.0156   21.5855 C.ar    1  UNL1        0.1013
      7 C          -3.2386    4.0566   20.2391 C.ar    1  UNL1        0.0844
      8 C          -3.4259    3.9737   18.7532 C.ar    1  UNL1        0.0215
      9 C          -4.7871    3.7063   18.1827 C.ar    1  UNL1        0.0312
     10 C          -5.9610    3.5218   19.0981 C.ar    1  UNL1        0.1402
     11 F          -7.3223    3.2545   18.5275 F       1  UNL1       -0.2042
     12 C          -5.7737    3.6047   20.5840 C.ar    1  UNL1        0.0312
     13 C          -4.4125    3.8721   21.1545 C.ar    1  UNL1        0.0215
     14 C           1.7195    3.3858   21.9269 C.2     1  UNL1        0.2498
     15 O           2.9172    3.6354   21.0590 O.2     1  UNL1       -0.2700
     16 N           1.8397    2.5064   23.1361 N.am    1  UNL1       -0.3024
     17 H           1.0536    2.3426   23.7056 H       1  UNL1        0.1497
     18 C           3.1574    1.8766   23.4775 C.3     1  UNL1        0.0718
     19 C           4.2796    2.7224   24.0020 C.3     1  UNL1        0.0213
     20 C           3.3530    0.4006   23.2943 C.3     1  UNL1        0.0165
     21 C           4.4078    0.6685   22.2619 C.3     1  UNL1        0.0016
     22 C           2.2983    0.1327   24.3267 C.3     1  UNL1        0.0016
     23 C           3.5487   -1.0752   23.1111 C.3     1  UNL1        0.0016
     24 N          -0.8492    1.8648   20.6087 N.pl3   1  UNL1       -0.1987
     25 H          -1.6959    1.3720   20.7065 H       1  UNL1        0.1753
     26 S           0.3709    1.1638   20.0889 S.O2    1  UNL1        0.0747
     27 O           0.3512    2.0349   18.8679 O.2     1  UNL1       -0.1499
     28 O           0.3905    0.2927   21.3098 O.2     1  UNL1       -0.1499
     29 C           1.5909    0.4628   19.5691 C.ar    1  UNL1        0.1253
     30 C           2.5129    1.1674   18.6186 C.ar    1  UNL1        0.0209
     31 C           3.7328    0.4664   18.0988 C.ar    1  UNL1        0.0117
     32 C           4.0308   -0.9392   18.5295 C.ar    1  UNL1        0.0685
     33 C           3.1088   -1.6438   19.4800 C.ar    1  UNL1        0.0117
     34 C           1.8888   -0.9428   19.9998 C.ar    1  UNL1        0.0209
     35 C           5.2508   -1.6403   18.0097 C.1     1  UNL1        0.1004
     36 N           6.4708   -2.3413   17.4899 N.1     1  UNL1       -0.1908
@<TRIPOS>BOND
     1     1     2    1
     2     2     3   ar
     3     3     4   ar
     4     4     7    1
     5     7     8   ar
     6     8     9   ar
     7     9    10   ar
     8    10    11    1
     9    10    12   ar
    10    12    13   ar
    11     4     5   ar
    12     5    24    1
    13    24    26    1
    14    26    27    2
    15    26    28    2
    16    26    29    1
    17    29    30   ar
    18    30    31   ar
    19    31    32   ar
    20    32    35    1
    21    35    36    3
    22    32    33   ar
    23    33    34   ar
    24     5     6   ar
    25     6    14    1
    26    14    15    2
    27    14    16   am
    28    16    18    1
    29    18    19    1
    30    18    20    1
    31    20    21    1
    32    20    22    1
    33    20    23    1
    34     6     2   ar
    35    13     7   ar
    36    34    29   ar
    37    24    25    1
    38    16    17    1
@<TRIPOS>MOLECULE
*****
 36 38 0 0 0
SMALL
GASTEIGER

@<TRIPOS>ATOM
      1 C           9.5359   -1.3173   19.3796 C.3     1  UNL1        0.0542
      2 C           8.5764   -2.1029   20.2234 C.ar    1  UNL1        0.0865
      3 N           8.9270   -2.9088   21.4390 N.ar    1  UNL1       -0.1681
      4 N           7.6651   -3.5245   21.9667 N.ar    1  UNL1       -0.2150
      5 C           6.5346   -3.0993   21.0773 C.ar    1  UNL1        0.1539
      6 C           7.0978   -2.2207   19.9998 C.ar    1  UNL1        0.1013
      7 C           7.5533   -4.4101   23.1723 C.ar    1  UNL1        0.0844
      8 C           8.1537   -5.7846   23.1515 C.ar    1  UNL1        0.0215
      9 C           8.0419   -6.6700   24.3571 C.ar    1  UNL1        0.0312
     10 C           7.3298   -6.1811   25.5834 C.ar    1  UNL1        0.1402
     11 F           7.2180   -7.0667   26.7889 F       1  UNL1       -0.2042
     12 C           6.7294   -4.8067   25.6041 C.ar    1  UNL1        0.0312
     13 C           6.8412   -3.9212   24.3986 C.ar    1  UNL1        0.0215
     14 C           6.3192   -1.5735   18.8931 C.2     1  UNL1        0.2498
     15 O           6.4156   -2.1093   17.4954 O.2     1  UNL1       -0.2700
     16 N           5.4440   -0.3905   19.1841 N.am    1  UNL1       -0.3024
     17 H           5.3807   -0.0388   20.1014 H       1  UNL1        0.1497
     18 C           4.6654    0.2568   18.0775 C.3     1  UNL1        0.0718
     19 C           3.8024   -0.5789   17.1793 C.3     1  UNL1        0.0213
     20 C           4.7498    1.7399   17.8691 C.3     1  UNL1        0.0165
     21 C           5.9999    1.5551   17.0607 C.3     1  UNL1        0.0016
     22 C           3.4999    1.9247   18.6774 C.3     1  UNL1        0.0016
     23 C           4.8343    3.2229   17.6606 C.3     1  UNL1        0.0016
     24 N           5.0939   -3.4849   21.2371 N.pl3   1  UNL1       -0.1987
     25 H           4.8445   -4.4337   21.3196 H       1  UNL1        0.1753
     26 S           4.0331   -2.4248   21.2712 S.O2    1  UNL1        0.0747
     27 O           3.5076   -2.9082   19.9520 O.2     1  UNL1       -0.1499
     28 O           4.5587   -1.9414   22.5903 O.2     1  UNL1       -0.1499
     29 C           2.9724   -1.3647   21.3053 C.ar    1  UNL1        0.1253
     30 C           2.9148   -0.3981   22.4508 C.ar    1  UNL1        0.0209
     31 C           1.8541    0.6620   22.4850 C.ar    1  UNL1        0.0117
     32 C           0.8511    0.7554   21.3736 C.ar    1  UNL1        0.0685
     33 C           0.9087   -0.2112   20.2281 C.ar    1  UNL1        0.0117
     34 C           1.9694   -1.2713   20.1939 C.ar    1  UNL1        0.0209
     35 C          -0.2096    1.8155   21.4077 C.1     1  UNL1        0.1004
     36 N          -1.2703    2.8756   21.4419 N.1     1  UNL1       -0.1908
@<TRIPOS>BOND
     1     1     2    1
     2     2     3   ar
     3     3     4   ar
     4     4     7    1
     5     7     8   ar
     6     8     9   ar
     7     9    10   ar
     8    10    11    1
     9    10    12   ar
    10    12    13   ar
    11     4     5   ar
    12     5    24    1
    13    24    26    1
    14    26    27    2
    15    26    28    2
    16    26    29    1
    17    29    30   ar
    18    30    31   ar
    19    31    32   ar
    20    32    35    1
    21    35    36    3
    22    32    33   ar
    23    33    34   ar
    24     5     6   ar
    25     6    14    1
    26    14    15    2
    27    14    16   am
    28    16    18    1
    29    18    19    1
    30    18    20    1
    31    20    21    1
    32    20    22    1
    33    20    23    1
    34     6     2   ar
    35    13     7   ar
    36    34    29   ar
    37    24    25    1
    38    16    17    1
@<TRIPOS>MOLECULE
*****
 36 38 0 0 0
SMALL
GASTEIGER

@<TRIPOS>ATOM
      1 C           0.5199    5.4783   18.1419 C.3     1  UNL1        0.0542
      2 C           0.9596    4.0845   18.4795 C.ar    1  UNL1        0.0865
      3 N           2.2364    3.4318   18.0395 N.ar    1  UNL1       -0.1681
      4 N           2.2656    2.0426   18.6045 N.ar    1  UNL1       -0.2150
      5 C           1.0067    1.8367   19.3937 C.ar    1  UNL1        0.1539
      6 C           0.1995    3.0986   19.3165 C.ar    1  UNL1        0.1013
      7 C           3.3612    1.0360   18.4138 C.ar    1  UNL1        0.0844
      8 C           3.1614   -0.1227   17.4824 C.ar    1  UNL1        0.0215
      9 C           4.2571   -1.1292   17.2918 C.ar    1  UNL1        0.0312
     10 C           5.5526   -0.9770   18.0324 C.ar    1  UNL1        0.1402
     11 F           6.6483   -1.9836   17.8417 F       1  UNL1       -0.2042
     12 C           5.7524    0.1817   18.9638 C.ar    1  UNL1        0.0312
     13 C           4.6567    1.1882   19.1545 C.ar    1  UNL1        0.0215
     14 C          -1.1336    3.3335   19.9627 C.2     1  UNL1        0.2498
     15 O          -1.4664    2.6609   21.2615 O.2     1  UNL1       -0.2700
     16 N          -2.1340    4.2410   19.3101 N.am    1  UNL1       -0.3024
     17 H          -1.9155    4.6824   18.4577 H       1  UNL1        0.1497
     18 C          -3.4670    4.4759   19.9562 C.3     1  UNL1        0.0718
     19 C          -3.5670    5.3431   21.1760 C.3     1  UNL1        0.0213
     20 C          -4.7003    3.8434   19.3825 C.3     1  UNL1        0.0165
     21 C          -4.2279    4.1776   17.9986 C.3     1  UNL1        0.0016
     22 C          -5.1728    3.5092   20.7664 C.3     1  UNL1        0.0016
     23 C          -5.9336    3.2110   18.8088 C.3     1  UNL1        0.0016
     24 N           0.6224    0.5881   20.1307 N.pl3   1  UNL1       -0.1987
     25 H          -0.3055    0.2611   20.0948 H       1  UNL1        0.1753
     26 S           1.6520   -0.1624   20.9225 S.O2    1  UNL1        0.0747
     27 O           1.8806    1.0505   21.7749 O.2     1  UNL1       -0.1499
     28 O           1.4234   -1.3753   20.0701 O.2     1  UNL1       -0.1499
     29 C           2.6815   -0.9128   21.7143 C.ar    1  UNL1        0.1253
     30 C           3.5106   -1.9731   21.0521 C.ar    1  UNL1        0.0209
     31 C           4.5401   -2.7235   21.8438 C.ar    1  UNL1        0.0117
     32 C           4.7406   -2.4138   23.2977 C.ar    1  UNL1        0.0685
     33 C           3.9115   -1.3535   23.9599 C.ar    1  UNL1        0.0117
     34 C           2.8820   -0.6031   23.1682 C.ar    1  UNL1        0.0209
     35 C           5.7701   -3.1642   24.0894 C.1     1  UNL1        0.1004
     36 N           6.7997   -3.9147   24.8812 N.1     1  UNL1       -0.1908
@<TRIPOS>BOND
     1     1     2    1
     2     2     3   ar
     3     3     4   ar
     4     4     7    1
     5     7     8   ar
     6     8     9   ar
     7     9    10   ar
     8    10    11    1
     9    10    12   ar
    10    12    13   ar
    11     4     5   ar
    12     5    24    1
    13    24    26    1
    14    26    27    2
    15    26    28    2
    16    26    29    1
    17    29    30   ar
    18    30    31   ar
    19    31    32   ar
    20    32    35    1
    21    35    36    3
    22    32    33   ar
    23    33    34   ar
    24     5     6   ar
    25     6    14    1
    26    14    15    2
    27    14    16   am
    28    16    18    1
    29    18    19    1
    30    18    20    1
    31    20    21    1
    32    20    22    1
    33    20    23    1
    34     6     2   ar
    35    13     7   ar
    36    34    29   ar
    37    24    25    1
    38    16    17    1
@<TRIPOS>MOLECULE
*****
 36 38 0 0 0
SMALL
GASTEIGER

@<TRIPOS>ATOM
      1 C           4.8762   -5.4719   19.0082 C.3     1  UNL1        0.0542
      2 C           4.5771   -4.0725   19.4579 C.ar    1  UNL1        0.0865
      3 N           3.4029   -3.2417   19.0324 N.ar    1  UNL1       -0.1681
      4 N           3.4998   -1.9139   19.7236 N.ar    1  UNL1       -0.2150
      5 C           4.7338   -1.9242   20.5763 C.ar    1  UNL1        0.1539
      6 C           5.3996   -3.2582   20.4121 C.ar    1  UNL1        0.1013
      7 C           2.5324   -0.7758   19.5862 C.ar    1  UNL1        0.0844
      8 C           2.8019    0.3229   18.6012 C.ar    1  UNL1        0.0215
      9 C           1.8345    1.4610   18.4638 C.ar    1  UNL1        0.0312
     10 C           0.5976    1.5004   19.3114 C.ar    1  UNL1        0.1402
     11 F          -0.3698    2.6385   19.1740 F       1  UNL1       -0.2042
     12 C           0.3280    0.4017   20.2964 C.ar    1  UNL1        0.0312
     13 C           1.2954   -0.7364   20.4338 C.ar    1  UNL1        0.0215
     14 C           6.6657   -3.7003   21.0841 C.2     1  UNL1        0.2498
     15 O           7.9311   -3.8296   20.2891 O.2     1  UNL1       -0.2700
     16 N           6.6664   -4.0132   22.5511 N.am    1  UNL1       -0.3024
     17 H           5.8359   -3.9284   23.0729 H       1  UNL1        0.1497
     18 C           7.9323   -4.4553   23.2231 C.3     1  UNL1        0.0718
     19 C           9.1100   -3.5287   23.2884 C.3     1  UNL1        0.0213
     20 C           8.0206   -5.8244   23.8299 C.3     1  UNL1        0.0165
     21 C           8.8168   -6.2963   22.6495 C.3     1  UNL1        0.0016
     22 C           7.2244   -5.3525   25.0104 C.3     1  UNL1        0.0016
     23 C           8.1089   -7.1933   24.4367 C.3     1  UNL1        0.0016
     24 N           5.2171   -0.7981   21.4413 N.pl3   1  UNL1       -0.1987
     25 H           5.4971    0.0522   21.0315 H       1  UNL1        0.1753
     26 S           5.2738   -0.9675   22.9307 S.O2    1  UNL1        0.0747
     27 O           6.7636   -0.7970   22.8934 O.2     1  UNL1       -0.1499
     28 O           3.7840   -1.1380   22.9679 O.2     1  UNL1       -0.1499
     29 C           5.3304   -1.1370   24.4200 C.ar    1  UNL1        0.1253
     30 C           4.0623   -1.1604   25.2208 C.ar    1  UNL1        0.0209
     31 C           4.1189   -1.3299   26.7102 C.ar    1  UNL1        0.0117
     32 C           5.4436   -1.4759   27.3986 C.ar    1  UNL1        0.0685
     33 C           6.7117   -1.4524   26.5977 C.ar    1  UNL1        0.0117
     34 C           6.6551   -1.2829   25.1084 C.ar    1  UNL1        0.0209
     35 C           5.5002   -1.6453   28.8879 C.1     1  UNL1        0.1004
     36 N           5.5568   -1.8147   30.3772 N.1     1  UNL1       -0.1908
@<TRIPOS>BOND
     1     1     2    1
     2     2     3   ar
     3     3     4   ar
     4     4     7    1
     5     7     8   ar
     6     8     9   ar
     7     9    10   ar
     8    10    11    1
     9    10    12   ar
    10    12    13   ar
    11     4     5   ar
    12     5    24    1
    13    24    26    1
    14    26    27    2
    15    26    28    2
    16    26    29    1
    17    29    30   ar
    18    30    31   ar
    19    31    32   ar
    20    32    35    1
    21    35    36    3
    22    32    33   ar
    23    33    34   ar
    24     5     6   ar
    25     6    14    1
    26    14    15    2
    27    14    16   am
    28    16    18    1
    29    18    19    1
    30    18    20    1
    31    20    21    1
    32    20    22    1
    33    20    23    1
    34     6     2   ar
    35    13     7   ar
    36    34    29   ar
    37    24    25    1
    38    16    17    1
@<TRIPOS>MOLECULE
*****
 36 38 0 0 0
SMALL
GASTEIGER

@<TRIPOS>ATOM
      1 C           4.8498   -5.3933   19.0092 C.3     1  UNL1        0.0542
      2 C           4.5324   -4.0044   19.4785 C.ar    1  UNL1        0.0865
      3 N           3.3716   -3.1663   19.0312 N.ar    1  UNL1       -0.1681
      4 N           3.4419   -1.8537   19.7538 N.ar    1  UNL1       -0.2150
      5 C           4.6461   -1.8806   20.6477 C.ar    1  UNL1        0.1539
      6 C           5.3201   -3.2097   20.4776 C.ar    1  UNL1        0.1013
      7 C           2.4772   -0.7143   19.6080 C.ar    1  UNL1        0.0844
      8 C           1.1847   -0.7238   20.3692 C.ar    1  UNL1        0.0215
      9 C           0.2201    0.4156   20.2234 C.ar    1  UNL1        0.0312
     10 C           0.5480    1.5645   19.3165 C.ar    1  UNL1        0.1402
     11 F          -0.4167    2.7039   19.1707 F       1  UNL1       -0.2042
     12 C           1.8404    1.5740   18.5553 C.ar    1  UNL1        0.0312
     13 C           2.8050    0.4346   18.7011 C.ar    1  UNL1        0.0215
     14 C           6.5635   -3.6645   21.1827 C.2     1  UNL1        0.2498
     15 O           7.7916   -4.0061   20.3922 O.2     1  UNL1       -0.2700
     16 N           6.5788   -3.7775   22.6784 N.am    1  UNL1       -0.3024
     17 H           5.7727   -3.5533   23.1972 H       1  UNL1        0.1497
     18 C           7.8221   -4.2322   23.3835 C.3     1  UNL1        0.0718
     19 C           9.0284   -3.3418   23.4262 C.3     1  UNL1        0.0213
     20 C           7.8590   -5.5775   24.0461 C.3     1  UNL1        0.0165
     21 C           8.7390   -6.0947   22.9469 C.3     1  UNL1        0.0016
     22 C           6.9790   -5.0604   25.1453 C.3     1  UNL1        0.0016
     23 C           7.8959   -6.9227   24.7086 C.3     1  UNL1        0.0016
     24 N           5.0971   -0.7727   21.5528 N.pl3   1  UNL1       -0.1987
     25 H           5.9634   -0.3317   21.3971 H       1  UNL1        0.1753
     26 S           4.2282   -0.3369   22.6953 S.O2    1  UNL1        0.0747
     27 O           4.3597   -1.6970   23.3142 O.2     1  UNL1       -0.1499
     28 O           4.0968    1.0231   22.0764 O.2     1  UNL1       -0.1499
     29 C           3.3593    0.0989   23.8377 C.ar    1  UNL1        0.1253
     30 C           2.0358    0.7509   23.5670 C.ar    1  UNL1        0.0209
     31 C           1.1670    1.1868   24.7094 C.ar    1  UNL1        0.0117
     32 C           1.6215    0.9706   26.1224 C.ar    1  UNL1        0.0685
     33 C           2.9450    0.3186   26.3931 C.ar    1  UNL1        0.0117
     34 C           3.8139   -0.1173   25.2507 C.ar    1  UNL1        0.0209
     35 C           0.7526    1.4064   27.2648 C.1     1  UNL1        0.1004
     36 N          -0.1163    1.8423   28.4072 N.1     1  UNL1       -0.1908
@<TRIPOS>BOND
     1     1     2    1
     2     2     3   ar
     3     3     4   ar
     4     4     7    1
     5     7     8   ar
     6     8     9   ar
     7     9    10   ar
     8    10    11    1
     9    10    12   ar
    10    12    13   ar
    11     4     5   ar
    12     5    24    1
    13    24    26    1
    14    26    27    2
    15    26    28    2
    16    26    29    1
    17    29    30   ar
    18    30    31   ar
    19    31    32   ar
    20    32    35    1
    21    35    36    3
    22    32    33   ar
    23    33    34   ar
    24     5     6   ar
    25     6    14    1
    26    14    15    2
    27    14    16   am
    28    16    18    1
    29    18    19    1
    30    18    20    1
    31    20    21    1
    32    20    22    1
    33    20    23    1
    34     6     2   ar
    35    13     7   ar
    36    34    29   ar
    37    24    25    1
    38    16    17    1
@<TRIPOS>MOLECULE
*****
 36 38 0 0 0
SMALL
GASTEIGER

@<TRIPOS>ATOM
      1 C          -0.5044    4.5918   17.3105 C.3     1  UNL1        0.0542
      2 C          -0.7675    4.0765   18.6944 C.ar    1  UNL1        0.0865
      3 N          -2.0045    4.3223   19.5064 N.ar    1  UNL1       -0.1681
      4 N          -1.8413    3.6226   20.8232 N.ar    1  UNL1       -0.2150
      5 C          -0.5034    2.9444   20.8250 C.ar    1  UNL1        0.1539
      6 C           0.1603    3.2249   19.5094 C.ar    1  UNL1        0.1013
      7 C          -2.8406    3.6044   21.9417 C.ar    1  UNL1        0.0844
      8 C          -4.2667    3.2293   21.6673 C.ar    1  UNL1        0.0215
      9 C          -5.2659    3.2110   22.7858 C.ar    1  UNL1        0.0312
     10 C          -4.8390    3.5680   24.1788 C.ar    1  UNL1        0.1402
     11 F          -5.8384    3.5497   25.2974 F       1  UNL1       -0.2042
     12 C          -3.4129    3.9431   24.4532 C.ar    1  UNL1        0.0312
     13 C          -2.4137    3.9613   23.3347 C.ar    1  UNL1        0.0215
     14 C           1.5141    2.7391   19.0835 C.2     1  UNL1        0.2498
     15 O           1.6315    1.5987   18.1162 O.2     1  UNL1       -0.2700
     16 N           2.7503    3.3937   19.6248 N.am    1  UNL1       -0.3024
     17 H           2.6732    4.1422   20.2597 H       1  UNL1        0.1497
     18 C           4.1040    2.9080   19.1990 C.3     1  UNL1        0.0718
     19 C           4.6284    3.2485   17.8355 C.3     1  UNL1        0.0213
     20 C           4.9335    2.0818   20.1368 C.3     1  UNL1        0.0165
     21 C           4.9153    3.1992   21.1374 C.3     1  UNL1        0.0016
     22 C           4.9518    0.9644   19.1363 C.3     1  UNL1        0.0016
     23 C           5.7630    1.2557   21.0746 C.3     1  UNL1        0.0016
     24 N           0.0702    2.1289   21.9457 N.pl3   1  UNL1       -0.1987
     25 H          -0.1686    2.3365   22.8779 H       1  UNL1        0.1753
     26 S           1.0077    0.9969   21.6459 S.O2    1  UNL1        0.0747
     27 O           2.1184    1.7347   22.3329 O.2     1  UNL1       -0.1499
     28 O          -0.1030    0.2591   20.9588 O.2     1  UNL1       -0.1499
     29 C           1.9451   -0.1351   21.3460 C.ar    1  UNL1        0.1253
     30 C           1.8583   -0.8527   20.0317 C.ar    1  UNL1        0.0209
     31 C           2.7957   -1.9846   19.7319 C.ar    1  UNL1        0.0117
     32 C           3.8199   -2.3990   20.7464 C.ar    1  UNL1        0.0685
     33 C           3.9068   -1.6814   22.0607 C.ar    1  UNL1        0.0117
     34 C           2.9694   -0.5494   22.3605 C.ar    1  UNL1        0.0209
     35 C           4.7573   -3.5310   20.4466 C.1     1  UNL1        0.1004
     36 N           5.6947   -4.6629   20.1468 N.1     1  UNL1       -0.1908
@<TRIPOS>BOND
     1     1     2    1
     2     2     3   ar
     3     3     4   ar
     4     4     7    1
     5     7     8   ar
     6     8     9   ar
     7     9    10   ar
     8    10    11    1
     9    10    12   ar
    10    12    13   ar
    11     4     5   ar
    12     5    24    1
    13    24    26    1
    14    26    27    2
    15    26    28    2
    16    26    29    1
    17    29    30   ar
    18    30    31   ar
    19    31    32   ar
    20    32    35    1
    21    35    36    3
    22    32    33   ar
    23    33    34   ar
    24     5     6   ar
    25     6    14    1
    26    14    15    2
    27    14    16   am
    28    16    18    1
    29    18    19    1
    30    18    20    1
    31    20    21    1
    32    20    22    1
    33    20    23    1
    34     6     2   ar
    35    13     7   ar
    36    34    29   ar
    37    24    25    1
    38    16    17    1
@<TRIPOS>MOLECULE
*****
 36 38 0 0 0
SMALL
GASTEIGER

@<TRIPOS>ATOM
      1 C          -4.4732    3.9287   21.6131 C.3     1  UNL1        0.0542
      2 C          -3.0349    3.5032   21.6192 C.ar    1  UNL1        0.0865
      3 N          -2.3636    2.6494   20.5846 N.ar    1  UNL1       -0.1681
      4 N          -0.9291    2.4752   20.9870 N.ar    1  UNL1       -0.2150
      5 C          -0.7138    3.2213   22.2703 C.ar    1  UNL1        0.1539
      6 C          -2.0152    3.8566   22.6611 C.ar    1  UNL1        0.1013
      7 C           0.1080    1.6923   20.2376 C.ar    1  UNL1        0.0844
      8 C           0.3553    0.2534   20.5818 C.ar    1  UNL1        0.0215
      9 C           1.3924   -0.5294   19.8324 C.ar    1  UNL1        0.0312
     10 C           2.1822    0.1266   18.7389 C.ar    1  UNL1        0.1402
     11 F           3.2193   -0.6563   17.9895 F       1  UNL1       -0.2042
     12 C           1.9349    1.5655   18.3947 C.ar    1  UNL1        0.0312
     13 C           0.8978    2.3483   19.1441 C.ar    1  UNL1        0.0215
     14 C          -2.2549    4.6978   23.8797 C.2     1  UNL1        0.2498
     15 O          -1.9951    6.1744   23.8348 O.2     1  UNL1       -0.2700
     16 N          -2.7545    4.0623   25.1433 N.am    1  UNL1       -0.3024
     17 H          -2.9251    3.0931   25.1727 H       1  UNL1        0.1497
     18 C          -2.9942    4.9033   26.3618 C.3     1  UNL1        0.0718
     19 C          -1.8398    5.3227   27.2228 C.3     1  UNL1        0.0213
     20 C          -4.3887    5.3250   26.7195 C.3     1  UNL1        0.0165
     21 C          -4.9392    4.1745   25.9299 C.3     1  UNL1        0.0016
     22 C          -3.8383    6.4755   27.5091 C.3     1  UNL1        0.0016
     23 C          -5.7830    5.7467   27.0772 C.3     1  UNL1        0.0016
     24 N           0.5764    3.3156   23.0296 N.pl3   1  UNL1       -0.1987
     25 H           1.4082    3.5522   22.5593 H       1  UNL1        0.1753
     26 S           0.5990    3.0493   24.5057 S.O2    1  UNL1        0.0747
     27 O           1.0519    4.4578   24.7529 O.2     1  UNL1       -0.1499
     28 O           0.1461    1.6409   24.2585 O.2     1  UNL1       -0.1499
     29 C           0.6216    2.7830   25.9817 C.ar    1  UNL1        0.1253
     30 C           1.5858    3.5212   26.8623 C.ar    1  UNL1        0.0209
     31 C           1.6084    3.2549   28.3383 C.ar    1  UNL1        0.0117
     32 C           0.6669    2.2504   28.9337 C.ar    1  UNL1        0.0685
     33 C          -0.2972    1.5122   28.0531 C.ar    1  UNL1        0.0117
     34 C          -0.3199    1.7785   26.5771 C.ar    1  UNL1        0.0209
     35 C           0.6895    1.9841   30.4097 C.1     1  UNL1        0.1004
     36 N           0.7122    1.7178   31.8856 N.1     1  UNL1       -0.1908
@<TRIPOS>BOND
     1     1     2    1
     2     2     3   ar
     3     3     4   ar
     4     4     7    1
     5     7     8   ar
     6     8     9   ar
     7     9    10   ar
     8    10    11    1
     9    10    12   ar
    10    12    13   ar
    11     4     5   ar
    12     5    24    1
    13    24    26    1
    14    26    27    2
    15    26    28    2
    16    26    29    1
    17    29    30   ar
    18    30    31   ar
    19    31    32   ar
    20    32    35    1
    21    35    36    3
    22    32    33   ar
    23    33    34   ar
    24     5     6   ar
    25     6    14    1
    26    14    15    2
    27    14    16   am
    28    16    18    1
    29    18    19    1
    30    18    20    1
    31    20    21    1
    32    20    22    1
    33    20    23    1
    34     6     2   ar
    35    13     7   ar
    36    34    29   ar
    37    24    25    1
    38    16    17    1
@<TRIPOS>MOLECULE
*****
 36 38 0 0 0
SMALL
GASTEIGER

@<TRIPOS>ATOM
      1 C          -6.0132    3.8977   23.4406 C.3     1  UNL1        0.0542
      2 C          -4.5356    3.7699   23.6646 C.ar    1  UNL1        0.0865
      3 N          -3.8718    3.3186   24.9318 N.ar    1  UNL1       -0.1681
      4 N          -2.3882    3.3407   24.7112 N.ar    1  UNL1       -0.2150
      5 C          -2.1352    3.8056   23.3077 C.ar    1  UNL1        0.1539
      6 C          -3.4623    4.0709   22.6609 C.ar    1  UNL1        0.1013
      7 C          -1.3415    2.9639   25.7174 C.ar    1  UNL1        0.0844
      8 C          -1.0271    3.8897   26.8550 C.ar    1  UNL1        0.0215
      9 C           0.0196    3.5129   27.8612 C.ar    1  UNL1        0.0312
     10 C           0.7519    2.2104   27.7298 C.ar    1  UNL1        0.1402
     11 F           1.7986    1.8337   28.7361 F       1  UNL1       -0.2042
     12 C           0.4375    1.2847   26.5923 C.ar    1  UNL1        0.0312
     13 C          -0.6092    1.6614   25.5861 C.ar    1  UNL1        0.0215
     14 C          -3.6783    4.5526   21.2568 C.2     1  UNL1        0.2498
     15 O          -3.6257    6.0201   20.9510 O.2     1  UNL1       -0.2700
     16 N          -3.9467    3.5668   20.1586 N.am    1  UNL1       -0.3024
     17 H          -3.9812    2.6036   20.3594 H       1  UNL1        0.1497
     18 C          -4.1627    4.0484   18.7546 C.3     1  UNL1        0.0718
     19 C          -3.0206    4.0619   17.7823 C.3     1  UNL1        0.0213
     20 C          -5.5209    4.5165   18.3230 C.3     1  UNL1        0.0165
     21 C          -6.1356    3.2870   18.9237 C.3     1  UNL1        0.0016
     22 C          -4.9063    5.7458   17.7222 C.3     1  UNL1        0.0016
     23 C          -6.8791    4.9845   17.8913 C.3     1  UNL1        0.0016
     24 N          -0.7910    3.9755   22.6640 N.pl3   1  UNL1       -0.1987
     25 H          -0.3918    4.8721   22.5871 H       1  UNL1        0.1753
     26 S          -0.0551    2.7791   22.1375 S.O2    1  UNL1        0.0747
     27 O           1.1009    3.0928   23.0404 O.2     1  UNL1       -0.1499
     28 O          -1.2111    2.4655   21.2345 O.2     1  UNL1       -0.1499
     29 C           0.6808    1.5828   21.6109 C.ar    1  UNL1        0.1253
     30 C           0.2971    0.9886   20.2881 C.ar    1  UNL1        0.0209
     31 C           1.0330   -0.2077   19.7616 C.ar    1  UNL1        0.0117
     32 C           2.1525   -0.8099   20.5578 C.ar    1  UNL1        0.0685
     33 C           2.5362   -0.2158   21.8806 C.ar    1  UNL1        0.0117
     34 C           1.8004    0.9806   22.4071 C.ar    1  UNL1        0.0209
     35 C           2.8884   -2.0062   20.0313 C.1     1  UNL1        0.1004
     36 N           3.6243   -3.2026   19.5048 N.1     1  UNL1       -0.1908
@<TRIPOS>BOND
     1     1     2    1
     2     2     3   ar
     3     3     4   ar
     4     4     7    1
     5     7     8   ar
     6     8     9   ar
     7     9    10   ar
     8    10    11    1
     9    10    12   ar
    10    12    13   ar
    11     4     5   ar
    12     5    24    1
    13    24    26    1
    14    26    27    2
    15    26    28    2
    16    26    29    1
    17    29    30   ar
    18    30    31   ar
    19    31    32   ar
    20    32    35    1
    21    35    36    3
    22    32    33   ar
    23    33    34   ar
    24     5     6   ar
    25     6    14    1
    26    14    15    2
    27    14    16   am
    28    16    18    1
    29    18    19    1
    30    18    20    1
    31    20    21    1
    32    20    22    1
    33    20    23    1
    34     6     2   ar
    35    13     7   ar
    36    34    29   ar
    37    24    25    1
    38    16    17    1
@<TRIPOS>MOLECULE
*****
 36 38 0 0 0
SMALL
GASTEIGER

@<TRIPOS>ATOM
      1 C           4.3137   -1.9309   33.4989 C.3     1  UNL1        0.0542
      2 C           4.0295   -1.3037   32.1663 C.ar    1  UNL1        0.0865
      3 N           2.7444   -0.6474   31.7568 N.ar    1  UNL1       -0.1681
      4 N           2.9012   -0.1608   30.3466 N.ar    1  UNL1       -0.2150
      5 C           4.2833   -0.5164   29.8845 C.ar    1  UNL1        0.1539
      6 C           4.9806   -1.2227   31.0092 C.ar    1  UNL1        0.1013
      7 C           1.8589    0.5556   29.5400 C.ar    1  UNL1        0.0844
      8 C           0.7366   -0.2153   28.9108 C.ar    1  UNL1        0.0215
      9 C          -0.3057    0.5012   28.1044 C.ar    1  UNL1        0.0312
     10 C          -0.2255    1.9885   27.9270 C.ar    1  UNL1        0.1402
     11 F          -1.2678    2.7049   27.1205 F       1  UNL1       -0.2042
     12 C           0.8969    2.7594   28.5562 C.ar    1  UNL1        0.0312
     13 C           1.9391    2.0430   29.3627 C.ar    1  UNL1        0.0215
     14 C           6.3829   -1.7547   30.9815 C.2     1  UNL1        0.2498
     15 O           7.5141   -0.8655   30.5578 O.2     1  UNL1       -0.2700
     16 N           6.6538   -3.1759   31.3776 N.am    1  UNL1       -0.3024
     17 H           5.9113   -3.7594   31.6557 H       1  UNL1        0.1497
     18 C           8.0559   -3.7079   31.3500 C.3     1  UNL1        0.0718
     19 C           9.1135   -3.0798   32.2085 C.3     1  UNL1        0.0213
     20 C           8.4005   -4.8681   30.4638 C.3     1  UNL1        0.0165
     21 C           7.4220   -5.7274   31.2084 C.3     1  UNL1        0.0016
     22 C           9.3789   -4.0089   29.7192 C.3     1  UNL1        0.0016
     23 C           8.7450   -6.0283   29.5777 C.3     1  UNL1        0.0016
     24 N           4.8658   -0.2180   28.5349 N.pl3   1  UNL1       -0.1987
     25 H           4.8861    0.7080   28.2012 H       1  UNL1        0.1753
     26 S           5.4174   -1.3306   27.6935 S.O2    1  UNL1        0.0747
     27 O           4.1243   -2.0778   27.8337 O.2     1  UNL1       -0.1499
     28 O           6.7105   -0.5835   27.5533 O.2     1  UNL1       -0.1499
     29 C           5.9690   -2.4432   26.8521 C.ar    1  UNL1        0.1253
     30 C           6.3414   -3.7501   27.4873 C.ar    1  UNL1        0.0209
     31 C           6.8930   -4.8626   26.6460 C.ar    1  UNL1        0.0117
     32 C           7.0724   -4.6683   25.1695 C.ar    1  UNL1        0.0685
     33 C           6.7000   -3.3615   24.5343 C.ar    1  UNL1        0.0117
     34 C           6.1484   -2.2489   25.3756 C.ar    1  UNL1        0.0209
     35 C           7.6240   -5.7809   24.3281 C.1     1  UNL1        0.1004
     36 N           8.1757   -6.8935   23.4868 N.1     1  UNL1       -0.1908
@<TRIPOS>BOND
     1     1     2    1
     2     2     3   ar
     3     3     4   ar
     4     4     7    1
     5     7     8   ar
     6     8     9   ar
     7     9    10   ar
     8    10    11    1
     9    10    12   ar
    10    12    13   ar
    11     4     5   ar
    12     5    24    1
    13    24    26    1
    14    26    27    2
    15    26    28    2
    16    26    29    1
    17    29    30   ar
    18    30    31   ar
    19    31    32   ar
    20    32    35    1
    21    35    36    3
    22    32    33   ar
    23    33    34   ar
    24     5     6   ar
    25     6    14    1
    26    14    15    2
    27    14    16   am
    28    16    18    1
    29    18    19    1
    30    18    20    1
    31    20    21    1
    32    20    22    1
    33    20    23    1
    34     6     2   ar
    35    13     7   ar
    36    34    29   ar
    37    24    25    1
    38    16    17    1
