@<TRIPOS>MOLECULE
*****
 24 28 0 0 0
SMALL
GASTEIGER

@<TRIPOS>ATOM
      1 N          -7.7998  -19.8868   19.8516 N.pl3   1  UNL1       -0.2536
      2 H          -7.8289  -20.4538   19.0473 H       1  UNL1        0.1579
      3 C          -6.4903  -19.6151   20.5308 C.2     1  UNL1        0.2847
      4 N          -6.2326  -19.6798   22.0071 N.2     1  UNL1       -0.2204
      5 C          -4.7915  -19.3357   22.2416 C.3     1  UNL1        0.1712
      6 C          -4.1586  -19.0585   20.9102 C.3     1  UNL1        0.1729
      7 C          -3.6660  -18.8111   19.5152 C.3     1  UNL1        0.1147
      8 N          -2.2345  -18.4283   19.2821 N.3     1  UNL1       -0.2697
      9 C          -1.2956  -18.2929   20.4440 C.3     1  UNL1        0.0723
     10 C          -1.7882  -18.5403   21.8390 C.3     1  UNL1        0.0209
     11 C          -3.2197  -18.9231   22.0721 C.3     1  UNL1        0.0429
     12 C          -3.4905  -18.8798   20.8014 C.3     1  UNL1        0.0209
     13 C          -3.2278  -18.7479   20.0574 C.3     1  UNL1        0.0723
     14 O          -5.2085  -19.2311   19.8529 O.2     1  UNL1       -0.4536
     15 C         -13.2514  -17.7682   23.4630 C.ar    1  UNL1        0.0000
     16 C         -12.3769  -18.6112   24.3431 C.ar    1  UNL1        0.0000
     17 C         -11.1117  -19.2035   23.7969 C.ar    1  UNL1        0.0001
     18 C         -10.7210  -18.9528   22.3705 C.ar    1  UNL1        0.0043
     19 C          -9.4557  -19.5452   21.8243 C.ar    1  UNL1        0.0345
     20 C          -9.0650  -19.2945   20.3979 C.ar    1  UNL1        0.1354
     21 N          -9.9396  -18.4515   19.5178 N.ar    1  UNL1       -0.2290
     22 C         -11.2048  -17.8592   20.0640 C.ar    1  UNL1        0.1003
     23 C         -11.5954  -18.1099   21.4904 C.ar    1  UNL1        0.0193
     24 C         -12.8607  -17.5175   22.0367 C.ar    1  UNL1        0.0015
@<TRIPOS>BOND
     1    15    16   ar
     2    16    17   ar
     3    17    18   ar
     4    18    19   ar
     5    19    20   ar
     6    20     1    1
     7     1     3    1
     8     3     4    2
     9     4     5    1
    10     6     5    1
    11     6     7    1
    12     7     8    1
    13     8     9    1
    14     9    10    1
    15    10    11    1
    16    11    12    1
    17    12    13    1
    18     6    14    1
    19    20    21   ar
    20    21    22   ar
    21    22    23   ar
    22    23    24   ar
    23    24    15   ar
    24    23    18   ar
    25    14     3    1
    26    11     6    1
    27    13     8    1
    28     1     2    1
@<TRIPOS>MOLECULE
*****
 24 28 0 0 0
SMALL
GASTEIGER

@<TRIPOS>ATOM
      1 N          -6.4786  -19.6573   22.2032 N.pl3   1  UNL1       -0.2536
      2 H          -6.5629  -20.6344   22.2882 H       1  UNL1        0.1579
      3 C          -5.1261  -19.0339   22.0240 C.2     1  UNL1        0.2847
      4 N          -4.3410  -18.3126   23.0791 N.2     1  UNL1       -0.2204
      5 C          -3.0508  -17.8554   22.4654 C.3     1  UNL1        0.1712
      6 C          -3.0386  -18.2942   21.0311 C.3     1  UNL1        0.1729
      7 C          -3.1678  -18.7957   19.6234 C.3     1  UNL1        0.1147
      8 N          -2.0664  -18.5494   18.6353 N.3     1  UNL1       -0.2697
      9 C          -0.8358  -17.8015   19.0550 C.3     1  UNL1        0.0723
     10 C          -0.7066  -17.3000   20.4627 C.3     1  UNL1        0.0209
     11 C          -1.8080  -17.5463   21.4507 C.3     1  UNL1        0.0429
     12 C          -2.5246  -18.1792   20.5700 C.3     1  UNL1        0.0209
     13 C          -2.5935  -18.4467   19.8192 C.3     1  UNL1        0.0723
     14 O          -4.3212  -19.0226   20.7583 O.2     1  UNL1       -0.4536
     15 C         -12.6608  -16.7448   22.9436 C.ar    1  UNL1        0.0000
     16 C         -12.7227  -18.1602   23.4363 C.ar    1  UNL1        0.0000
     17 C         -11.4986  -19.0258   23.3868 C.ar    1  UNL1        0.0001
     18 C         -10.2127  -18.4759   22.8445 C.ar    1  UNL1        0.0043
     19 C          -8.9886  -19.3416   22.7950 C.ar    1  UNL1        0.0345
     20 C          -7.7027  -18.7917   22.2527 C.ar    1  UNL1        0.1354
     21 N          -7.6408  -17.3763   21.7600 N.ar    1  UNL1       -0.2290
     22 C          -8.8648  -16.5107   21.8096 C.ar    1  UNL1        0.1003
     23 C         -10.1508  -17.0606   22.3518 C.ar    1  UNL1        0.0193
     24 C         -11.3749  -16.1950   22.4014 C.ar    1  UNL1        0.0015
@<TRIPOS>BOND
     1    15    16   ar
     2    16    17   ar
     3    17    18   ar
     4    18    19   ar
     5    19    20   ar
     6    20     1    1
     7     1     3    1
     8     3     4    2
     9     4     5    1
    10     6     5    1
    11     6     7    1
    12     7     8    1
    13     8     9    1
    14     9    10    1
    15    10    11    1
    16    11    12    1
    17    12    13    1
    18     6    14    1
    19    20    21   ar
    20    21    22   ar
    21    22    23   ar
    22    23    24   ar
    23    24    15   ar
    24    23    18   ar
    25    14     3    1
    26    11     6    1
    27    13     8    1
    28     1     2    1
@<TRIPOS>MOLECULE
*****
 24 28 0 0 0
SMALL
GASTEIGER

@<TRIPOS>ATOM
      1 N          -6.5051  -19.8941   22.2469 N.pl3   1  UNL1       -0.2536
      2 H          -6.5148  -20.7096   22.7984 H       1  UNL1        0.1579
      3 C          -5.3110  -19.5785   21.3957 C.2     1  UNL1        0.2847
      4 N          -4.9610  -20.2308   20.0911 N.2     1  UNL1       -0.2204
      5 C          -3.6909  -19.6106   19.5888 C.3     1  UNL1        0.1712
      6 C          -3.2559  -18.5751   20.5830 C.3     1  UNL1        0.1729
      7 C          -2.9480  -17.5783   21.6607 C.3     1  UNL1        0.1147
      8 N          -1.7263  -16.7143   21.5565 N.3     1  UNL1       -0.2697
      9 C          -0.8124  -16.8472   20.3746 C.3     1  UNL1        0.0723
     10 C          -1.1202  -17.8440   19.2969 C.3     1  UNL1        0.0209
     11 C          -2.3419  -18.7080   19.4011 C.3     1  UNL1        0.0429
     12 C          -2.6857  -18.1719   20.5344 C.3     1  UNL1        0.0209
     13 C          -2.5215  -17.6403   21.1092 C.3     1  UNL1        0.0723
     14 O          -4.2571  -18.5553   21.6997 O.2     1  UNL1       -0.4536
     15 C         -12.5495  -16.6672   22.7969 C.ar    1  UNL1        0.0000
     16 C         -12.6978  -18.0754   23.2920 C.ar    1  UNL1        0.0000
     17 C         -11.5186  -19.0024   23.2810 C.ar    1  UNL1        0.0001
     18 C         -10.1911  -18.5212   22.7749 C.ar    1  UNL1        0.0043
     19 C          -9.0118  -19.4483   22.7640 C.ar    1  UNL1        0.0345
     20 C          -7.6843  -18.9671   22.2579 C.ar    1  UNL1        0.1354
     21 N          -7.5360  -17.5589   21.7629 N.ar    1  UNL1       -0.2290
     22 C          -8.7152  -16.6319   21.7739 C.ar    1  UNL1        0.1003
     23 C         -10.0427  -17.1131   22.2799 C.ar    1  UNL1        0.0193
     24 C         -11.2220  -16.1861   22.2909 C.ar    1  UNL1        0.0015
@<TRIPOS>BOND
     1    15    16   ar
     2    16    17   ar
     3    17    18   ar
     4    18    19   ar
     5    19    20   ar
     6    20     1    1
     7     1     3    1
     8     3     4    2
     9     4     5    1
    10     6     5    1
    11     6     7    1
    12     7     8    1
    13     8     9    1
    14     9    10    1
    15    10    11    1
    16    11    12    1
    17    12    13    1
    18     6    14    1
    19    20    21   ar
    20    21    22   ar
    21    22    23   ar
    22    23    24   ar
    23    24    15   ar
    24    23    18   ar
    25    14     3    1
    26    11     6    1
    27    13     8    1
    28     1     2    1
@<TRIPOS>MOLECULE
*****
 24 28 0 0 0
SMALL
GASTEIGER

@<TRIPOS>ATOM
      1 N          -6.9070  -20.3357   22.3897 N.pl3   1  UNL1       -0.2536
      2 H          -6.8696  -21.0572   23.0585 H       1  UNL1        0.1579
      3 C          -8.2216  -19.7025   22.0422 C.2     1  UNL1        0.2847
      4 N          -8.6396  -19.2281   20.6819 N.2     1  UNL1       -0.2204
      5 C         -10.0254  -18.6650   20.7930 C.3     1  UNL1        0.1712
      6 C         -10.4640  -18.7912   22.2219 C.3     1  UNL1        0.1729
      7 C         -10.7627  -18.9830   23.6792 C.3     1  UNL1        0.1147
      8 N         -12.0840  -18.5450   24.2380 N.3     1  UNL1       -0.2697
      9 C         -13.1066  -17.9152   23.3394 C.3     1  UNL1        0.0723
     10 C         -12.8079  -17.7234   21.8821 C.3     1  UNL1        0.0209
     11 C         -11.4866  -18.1614   21.3233 C.3     1  UNL1        0.0429
     12 C         -11.0806  -18.5868   22.4826 C.3     1  UNL1        0.0209
     13 C         -11.2399  -18.6891   23.2599 C.3     1  UNL1        0.0723
     14 O          -9.3491  -19.4325   22.9939 O.2     1  UNL1       -0.4536
     15 C          -1.0899  -17.3359   20.2889 C.ar    1  UNL1        0.0000
     16 C          -1.5615  -16.6665   21.5457 C.ar    1  UNL1        0.0000
     17 C          -2.8192  -17.1326   22.2172 C.ar    1  UNL1        0.0001
     18 C          -3.6053  -18.2681   21.6319 C.ar    1  UNL1        0.0043
     19 C          -4.8631  -18.7341   22.3035 C.ar    1  UNL1        0.0345
     20 C          -5.6493  -19.8696   21.7182 C.ar    1  UNL1        0.1354
     21 N          -5.1778  -20.5390   20.4613 N.ar    1  UNL1       -0.2290
     22 C          -3.9201  -20.0730   19.7898 C.ar    1  UNL1        0.1003
     23 C          -3.1339  -18.9375   20.3752 C.ar    1  UNL1        0.0193
     24 C          -1.8761  -18.4714   19.7036 C.ar    1  UNL1        0.0015
@<TRIPOS>BOND
     1    15    16   ar
     2    16    17   ar
     3    17    18   ar
     4    18    19   ar
     5    19    20   ar
     6    20     1    1
     7     1     3    1
     8     3     4    2
     9     4     5    1
    10     6     5    1
    11     6     7    1
    12     7     8    1
    13     8     9    1
    14     9    10    1
    15    10    11    1
    16    11    12    1
    17    12    13    1
    18     6    14    1
    19    20    21   ar
    20    21    22   ar
    21    22    23   ar
    22    23    24   ar
    23    24    15   ar
    24    23    18   ar
    25    14     3    1
    26    11     6    1
    27    13     8    1
    28     1     2    1
@<TRIPOS>MOLECULE
*****
 24 28 0 0 0
SMALL
GASTEIGER

@<TRIPOS>ATOM
      1 N          -6.6958  -20.2010   21.9084 N.pl3   1  UNL1       -0.2536
      2 H          -6.6373  -21.1638   22.1055 H       1  UNL1        0.1579
      3 C          -8.0357  -19.5554   21.7131 C.2     1  UNL1        0.2847
      4 N          -8.5341  -18.9244   20.4468 N.2     1  UNL1       -0.2204
      5 C          -9.9188  -18.4066   20.7009 C.3     1  UNL1        0.1712
      6 C         -10.2761  -18.7176   22.1241 C.3     1  UNL1        0.1729
      7 C         -10.4915  -19.0943   23.5599 C.3     1  UNL1        0.1147
      8 N         -11.7855  -18.7549   24.2384 N.3     1  UNL1       -0.2697
      9 C         -12.8641  -18.0387   23.4811 C.3     1  UNL1        0.0723
     10 C         -12.6488  -17.6620   22.0453 C.3     1  UNL1        0.0209
     11 C         -11.3548  -18.0014   21.3668 C.3     1  UNL1        0.0429
     12 C         -10.8800  -18.5592   22.4407 C.3     1  UNL1        0.0209
     13 C         -10.9949  -18.7601   23.2065 C.3     1  UNL1        0.0723
     14 O          -9.1123  -19.4276   22.7497 O.2     1  UNL1       -0.4536
     15 C          -0.8542  -16.9812   20.2475 C.ar    1  UNL1        0.0000
     16 C          -1.2660  -17.8689   19.1106 C.ar    1  UNL1        0.0000
     17 C          -2.5166  -18.6903   19.2154 C.ar    1  UNL1        0.0001
     18 C          -3.3555  -18.6241   20.4572 C.ar    1  UNL1        0.0043
     19 C          -4.6063  -19.4457   20.5619 C.ar    1  UNL1        0.0345
     20 C          -5.4452  -19.3795   21.8036 C.ar    1  UNL1        0.1354
     21 N          -5.0334  -18.4919   22.9406 N.ar    1  UNL1       -0.2290
     22 C          -3.7827  -17.6704   22.8358 C.ar    1  UNL1        0.1003
     23 C          -2.9438  -17.7366   21.5940 C.ar    1  UNL1        0.0193
     24 C          -1.6931  -16.9151   21.4892 C.ar    1  UNL1        0.0015
@<TRIPOS>BOND
     1    15    16   ar
     2    16    17   ar
     3    17    18   ar
     4    18    19   ar
     5    19    20   ar
     6    20     1    1
     7     1     3    1
     8     3     4    2
     9     4     5    1
    10     6     5    1
    11     6     7    1
    12     7     8    1
    13     8     9    1
    14     9    10    1
    15    10    11    1
    16    11    12    1
    17    12    13    1
    18     6    14    1
    19    20    21   ar
    20    21    22   ar
    21    22    23   ar
    22    23    24   ar
    23    24    15   ar
    24    23    18   ar
    25    14     3    1
    26    11     6    1
    27    13     8    1
    28     1     2    1
@<TRIPOS>MOLECULE
*****
 24 28 0 0 0
SMALL
GASTEIGER

@<TRIPOS>ATOM
      1 N          -6.8742  -20.5478   22.5781 N.pl3   1  UNL1       -0.2536
      2 H          -6.6317  -21.3551   23.0868 H       1  UNL1        0.1579
      3 C          -5.9018  -19.9569   21.6007 C.2     1  UNL1        0.2847
      4 N          -6.2240  -19.4792   20.2158 N.2     1  UNL1       -0.2204
      5 C          -4.9577  -18.9671   19.5959 C.3     1  UNL1        0.1712
      6 C          -3.8529  -19.1282   20.5976 C.3     1  UNL1        0.1729
      7 C          -2.8559  -19.3502   21.6961 C.3     1  UNL1        0.1147
      8 N          -1.4198  -18.9669   21.4942 N.3     1  UNL1       -0.2697
      9 C          -0.9808  -18.3616   20.1939 C.3     1  UNL1        0.0723
     10 C          -1.9778  -18.1395   19.0955 C.3     1  UNL1        0.0209
     11 C          -3.4139  -18.5229   19.2974 C.3     1  UNL1        0.0429
     12 C          -3.1828  -18.9493   20.5034 C.3     1  UNL1        0.0209
     13 C          -2.6510  -19.0677   21.0893 C.3     1  UNL1        0.0723
     14 O          -4.4364  -19.7400   21.8367 O.2     1  UNL1       -0.4536
     15 C         -12.5661  -16.6960   22.7042 C.ar    1  UNL1        0.0000
     16 C         -11.5486  -16.0397   21.8189 C.ar    1  UNL1        0.0000
     17 C         -10.2067  -16.6788   21.6166 C.ar    1  UNL1        0.0001
     18 C          -9.8824  -17.9742   22.2996 C.ar    1  UNL1        0.0043
     19 C          -8.5404  -18.6133   22.0973 C.ar    1  UNL1        0.0345
     20 C          -8.2161  -19.9088   22.7804 C.ar    1  UNL1        0.1354
     21 N          -9.2336  -20.5651   23.6657 N.ar    1  UNL1       -0.2290
     22 C         -10.5755  -19.9260   23.8680 C.ar    1  UNL1        0.1003
     23 C         -10.8998  -18.6306   23.1850 C.ar    1  UNL1        0.0193
     24 C         -12.2417  -17.9914   23.3872 C.ar    1  UNL1        0.0015
@<TRIPOS>BOND
     1    15    16   ar
     2    16    17   ar
     3    17    18   ar
     4    18    19   ar
     5    19    20   ar
     6    20     1    1
     7     1     3    1
     8     3     4    2
     9     4     5    1
    10     6     5    1
    11     6     7    1
    12     7     8    1
    13     8     9    1
    14     9    10    1
    15    10    11    1
    16    11    12    1
    17    12    13    1
    18     6    14    1
    19    20    21   ar
    20    21    22   ar
    21    22    23   ar
    22    23    24   ar
    23    24    15   ar
    24    23    18   ar
    25    14     3    1
    26    11     6    1
    27    13     8    1
    28     1     2    1
@<TRIPOS>MOLECULE
*****
 24 28 0 0 0
SMALL
GASTEIGER

@<TRIPOS>ATOM
      1 N          -6.0400  -16.6659   23.6425 N.pl3   1  UNL1       -0.2536
      2 H          -5.7785  -16.1843   24.4604 H       1  UNL1        0.1579
      3 C          -5.0031  -17.3858   22.8322 C.2     1  UNL1        0.2847
      4 N          -5.0559  -18.8243   22.4104 N.2     1  UNL1       -0.2204
      5 C          -3.8167  -19.1210   21.6189 C.3     1  UNL1        0.1712
      6 C          -2.9981  -17.8660   21.5515 C.3     1  UNL1        0.1729
      7 C          -2.2923  -16.5425   21.5691 C.3     1  UNL1        0.1147
      8 N          -0.9723  -16.3871   20.8739 N.3     1  UNL1       -0.2697
      9 C          -0.3580  -17.5552   20.1610 C.3     1  UNL1        0.0723
     10 C          -1.0637  -18.8787   20.1434 C.3     1  UNL1        0.0209
     11 C          -2.3838  -19.0340   20.8386 C.3     1  UNL1        0.0429
     12 C          -2.3820  -17.7935   21.2270 C.3     1  UNL1        0.0209
     13 C          -2.0056  -17.0876   21.2364 C.3     1  UNL1        0.0723
     14 O          -3.7313  -16.7935   22.3013 O.2     1  UNL1       -0.4536
     15 C         -12.7886  -17.5289   22.6621 C.ar    1  UNL1        0.0000
     16 C         -12.3612  -18.3224   23.8611 C.ar    1  UNL1        0.0000
     17 C         -10.9260  -18.3085   24.2970 C.ar    1  UNL1        0.0001
     18 C          -9.9182  -17.5011   23.5338 C.ar    1  UNL1        0.0043
     19 C          -8.4829  -17.4872   23.9698 C.ar    1  UNL1        0.0345
     20 C          -7.4751  -16.6798   23.2066 C.ar    1  UNL1        0.1354
     21 N          -7.9026  -15.8862   22.0076 N.ar    1  UNL1       -0.2290
     22 C          -9.3377  -15.9001   21.5717 C.ar    1  UNL1        0.1003
     23 C         -10.3455  -16.7076   22.3349 C.ar    1  UNL1        0.0193
     24 C         -11.7808  -16.7215   21.8990 C.ar    1  UNL1        0.0015
@<TRIPOS>BOND
     1    15    16   ar
     2    16    17   ar
     3    17    18   ar
     4    18    19   ar
     5    19    20   ar
     6    20     1    1
     7     1     3    1
     8     3     4    2
     9     4     5    1
    10     6     5    1
    11     6     7    1
    12     7     8    1
    13     8     9    1
    14     9    10    1
    15    10    11    1
    16    11    12    1
    17    12    13    1
    18     6    14    1
    19    20    21   ar
    20    21    22   ar
    21    22    23   ar
    22    23    24   ar
    23    24    15   ar
    24    23    18   ar
    25    14     3    1
    26    11     6    1
    27    13     8    1
    28     1     2    1
@<TRIPOS>MOLECULE
*****
 24 28 0 0 0
SMALL
GASTEIGER

@<TRIPOS>ATOM
      1 N          -6.8508  -16.1330   23.8010 N.pl3   1  UNL1       -0.2536
      2 H          -6.7067  -15.5045   24.5449 H       1  UNL1        0.1579
      3 C          -5.6930  -16.8960   23.2289 C.2     1  UNL1        0.2847
      4 N          -4.2426  -16.6454   23.5181 N.2     1  UNL1       -0.2204
      5 C          -3.4356  -17.6382   22.7351 C.3     1  UNL1        0.1712
      6 C          -4.3871  -18.5024   21.9620 C.3     1  UNL1        0.1729
      7 C          -5.4545  -19.2820   21.2529 C.3     1  UNL1        0.1147
      8 N          -5.0771  -20.4073   20.3356 N.3     1  UNL1       -0.2697
      9 C          -3.6325  -20.7530   20.1275 C.3     1  UNL1        0.0723
     10 C          -2.5651  -19.9733   20.8366 C.3     1  UNL1        0.0209
     11 C          -2.9425  -18.8480   21.7538 C.3     1  UNL1        0.0429
     12 C          -4.2111  -19.0275   21.5339 C.3     1  UNL1        0.0209
     13 C          -4.7803  -19.4433   21.1557 C.3     1  UNL1        0.0723
     14 O          -5.7823  -18.0437   22.2672 O.2     1  UNL1       -0.4536
     15 C         -13.3765  -17.7053   22.3202 C.ar    1  UNL1        0.0000
     16 C         -13.0159  -18.3050   23.6470 C.ar    1  UNL1        0.0000
     17 C         -11.6386  -18.1105   24.2085 C.ar    1  UNL1        0.0001
     18 C         -10.6220  -17.3163   23.4432 C.ar    1  UNL1        0.0043
     19 C          -9.2447  -17.1217   24.0047 C.ar    1  UNL1        0.0345
     20 C          -8.2280  -16.3275   23.2395 C.ar    1  UNL1        0.1354
     21 N          -8.5887  -15.7278   21.9127 N.ar    1  UNL1       -0.2290
     22 C          -9.9659  -15.9223   21.3512 C.ar    1  UNL1        0.1003
     23 C         -10.9826  -16.7165   22.1165 C.ar    1  UNL1        0.0193
     24 C         -12.3599  -16.9111   21.5550 C.ar    1  UNL1        0.0015
@<TRIPOS>BOND
     1    15    16   ar
     2    16    17   ar
     3    17    18   ar
     4    18    19   ar
     5    19    20   ar
     6    20     1    1
     7     1     3    1
     8     3     4    2
     9     4     5    1
    10     6     5    1
    11     6     7    1
    12     7     8    1
    13     8     9    1
    14     9    10    1
    15    10    11    1
    16    11    12    1
    17    12    13    1
    18     6    14    1
    19    20    21   ar
    20    21    22   ar
    21    22    23   ar
    22    23    24   ar
    23    24    15   ar
    24    23    18   ar
    25    14     3    1
    26    11     6    1
    27    13     8    1
    28     1     2    1
@<TRIPOS>MOLECULE
*****
 24 28 0 0 0
SMALL
GASTEIGER

@<TRIPOS>ATOM
      1 N          -9.0959  -18.9679   19.8097 N.pl3   1  UNL1       -0.2536
      2 H          -9.1666  -19.1810   18.8511 H       1  UNL1        0.1579
      3 C         -10.3249  -18.6079   20.5906 C.2     1  UNL1        0.2847
      4 N         -11.5304  -17.8922   20.0571 N.2     1  UNL1       -0.2204
      5 C         -12.5147  -17.7425   21.1790 C.3     1  UNL1        0.1712
      6 C         -11.9177  -18.3657   22.4059 C.3     1  UNL1        0.1729
      7 C         -11.1954  -19.0231   23.5443 C.3     1  UNL1        0.1147
      8 N         -11.8388  -19.0982   24.8973 N.3     1  UNL1       -0.2697
      9 C         -13.2044  -18.5159   25.1117 C.3     1  UNL1        0.0723
     10 C         -13.9266  -17.8585   23.9733 C.3     1  UNL1        0.0209
     11 C         -13.2833  -17.7834   22.6203 C.3     1  UNL1        0.0429
     12 C         -12.2179  -18.4007   23.0372 C.3     1  UNL1        0.0209
     13 C         -11.8327  -18.7513   23.6444 C.3     1  UNL1        0.0723
     14 O         -10.5643  -18.9005   22.0422 O.2     1  UNL1       -0.4536
     15 C          -3.4247  -18.1087   23.5978 C.ar    1  UNL1        0.0000
     16 C          -4.4375  -17.0734   23.9883 C.ar    1  UNL1        0.0000
     17 C          -5.7743  -17.0382   23.3087 C.ar    1  UNL1        0.0001
     18 C          -6.0982  -18.0383   22.2388 C.ar    1  UNL1        0.0043
     19 C          -7.4351  -18.0030   21.5592 C.ar    1  UNL1        0.0345
     20 C          -7.7591  -19.0031   20.4892 C.ar    1  UNL1        0.1354
     21 N          -6.7463  -20.0384   20.0988 N.ar    1  UNL1       -0.2290
     22 C          -5.4096  -20.0736   20.7783 C.ar    1  UNL1        0.1003
     23 C          -5.0856  -19.0735   21.8483 C.ar    1  UNL1        0.0193
     24 C          -3.7488  -19.1087   22.5279 C.ar    1  UNL1        0.0015
@<TRIPOS>BOND
     1    15    16   ar
     2    16    17   ar
     3    17    18   ar
     4    18    19   ar
     5    19    20   ar
     6    20     1    1
     7     1     3    1
     8     3     4    2
     9     4     5    1
    10     6     5    1
    11     6     7    1
    12     7     8    1
    13     8     9    1
    14     9    10    1
    15    10    11    1
    16    11    12    1
    17    12    13    1
    18     6    14    1
    19    20    21   ar
    20    21    22   ar
    21    22    23   ar
    22    23    24   ar
    23    24    15   ar
    24    23    18   ar
    25    14     3    1
    26    11     6    1
    27    13     8    1
    28     1     2    1
