@<TRIPOS>MOLECULE
*****
 21 21 0 0 0
SMALL
GASTEIGER

@<TRIPOS>ATOM
      1 C          -7.7558  -19.6149   21.6334 C.3     1  UNL1        0.0346
      2 C          -6.2714  -19.7108   21.4396 C.ar    1  UNL1       -0.0185
      3 C          -5.7071  -20.6654   20.4296 C.ar    1  UNL1       -0.0009
      4 C          -4.2227  -20.7613   20.2357 C.ar    1  UNL1        0.0395
      5 C          -3.3028  -19.9024   21.0518 C.ar    1  UNL1        0.1677
      6 O          -1.8184  -19.9983   20.8579 O.3     1  UNL1       -0.5029
      7 C          -3.8671  -18.9478   22.0618 C.ar    1  UNL1        0.1718
      8 C          -5.3515  -18.8519   22.2556 C.ar    1  UNL1        0.0358
      9 H          -1.4659  -20.5946   20.2270 H       1  UNL1        0.2923
     10 O          -2.9472  -18.0889   22.8779 O.3     1  UNL1       -0.4684
     11 C          -2.4538  -16.7839   22.3269 C.3     1  UNL1        0.2526
     12 C          -8.3150  -19.2620   22.9798 C.3     1  UNL1        0.0738
     13 C          -9.4724  -20.0362   23.5375 C.2     1  UNL1        0.1731
     14 O          -9.2285  -21.1608   24.4997 O.2     1  UNL1       -0.2913
     15 C         -11.4409  -18.3415   23.4810 C.2     1  UNL1       -0.0232
     16 C         -10.8738  -19.6858   23.1330 C.2     1  UNL1        0.0329
     17 C         -12.8421  -17.9911   23.0766 C.3     1  UNL1        0.0261
     18 C         -13.1359  -17.5884   21.6618 C.3     1  UNL1        0.0047
     19 C         -12.3075  -16.5299   20.9959 C.3     1  UNL1        0.0003
     20 C         -10.7900  -18.2590   19.7889 C.3     1  UNL1        0.0000
     21 C         -11.4041  -16.8921   19.8546 C.3     1  UNL1        0.0000
@<TRIPOS>BOND
     1    20    21    1
     2    21    19    1
     3    19    18    1
     4    18    17    1
     5    17    15    1
     6    15    16    2
     7    16    13    1
     8    13    14    2
     9    13    12    1
    10    12     1    1
    11     1     2    1
    12     2     3   ar
    13     3     4   ar
    14     4     5   ar
    15     5     6    1
    16     5     7   ar
    17     7    10    1
    18    10    11    1
    19     7     8   ar
    20     8     2   ar
    21     6     9    1
@<TRIPOS>MOLECULE
*****
 21 21 0 0 0
SMALL
GASTEIGER

@<TRIPOS>ATOM
      1 C          -6.6341  -20.4341   20.2213 C.3     1  UNL1        0.0346
      2 C          -5.3173  -19.9718   20.7711 C.ar    1  UNL1       -0.0185
      3 C          -4.0412  -20.3502   20.0793 C.ar    1  UNL1       -0.0009
      4 C          -2.7244  -19.8879   20.6292 C.ar    1  UNL1        0.0395
      5 C          -2.6836  -19.0473   21.8708 C.ar    1  UNL1        0.1677
      6 O          -1.3668  -18.5851   22.4207 O.3     1  UNL1       -0.5029
      7 C          -3.9597  -18.6690   22.5626 C.ar    1  UNL1        0.1718
      8 C          -5.2765  -19.1313   22.0128 C.ar    1  UNL1        0.0358
      9 H          -0.5697  -18.8214   21.9885 H       1  UNL1        0.2923
     10 O          -3.9189  -17.8284   23.8043 O.3     1  UNL1       -0.4684
     11 C          -4.6567  -16.5232   23.8510 C.3     1  UNL1        0.2526
     12 C          -7.6327  -19.4315   19.7240 C.3     1  UNL1        0.0738
     13 C          -9.0348  -19.4415   20.2570 C.2     1  UNL1        0.1731
     14 O         -10.1944  -19.5732   19.3148 O.2     1  UNL1       -0.2913
     15 C         -10.5728  -19.7940   22.3211 C.2     1  UNL1       -0.0232
     16 C          -9.2772  -19.3199   21.7323 C.2     1  UNL1        0.0329
     17 C         -10.8152  -19.6724   23.7963 C.3     1  UNL1        0.0261
     18 C         -11.7366  -18.6109   24.3200 C.3     1  UNL1        0.0047
     19 C         -12.8123  -18.0497   23.4380 C.3     1  UNL1        0.0003
     20 C         -12.3965  -16.8165   21.1894 C.3     1  UNL1        0.0000
     21 C         -12.5723  -16.7786   22.6785 C.3     1  UNL1        0.0000
@<TRIPOS>BOND
     1    20    21    1
     2    21    19    1
     3    19    18    1
     4    18    17    1
     5    17    15    1
     6    15    16    2
     7    16    13    1
     8    13    14    2
     9    13    12    1
    10    12     1    1
    11     1     2    1
    12     2     3   ar
    13     3     4   ar
    14     4     5   ar
    15     5     6    1
    16     5     7   ar
    17     7    10    1
    18    10    11    1
    19     7     8   ar
    20     8     2   ar
    21     6     9    1
@<TRIPOS>MOLECULE
*****
 21 21 0 0 0
SMALL
GASTEIGER

@<TRIPOS>ATOM
      1 C          -6.5374  -19.8281   20.0701 C.3     1  UNL1        0.0346
      2 C          -5.3190  -19.3656   20.8127 C.ar    1  UNL1       -0.0185
      3 C          -5.4563  -18.7738   22.1842 C.ar    1  UNL1       -0.0009
      4 C          -4.2379  -18.3112   22.9268 C.ar    1  UNL1        0.0395
      5 C          -2.8822  -18.4404   22.2980 C.ar    1  UNL1        0.1677
      6 O          -1.6638  -17.9778   23.0407 O.3     1  UNL1       -0.5029
      7 C          -2.7450  -19.0322   20.9266 C.ar    1  UNL1        0.1718
      8 C          -3.9634  -19.4948   20.1839 C.ar    1  UNL1        0.0358
      9 H          -1.7496  -17.6082   23.8974 H       1  UNL1        0.2923
     10 O          -1.3893  -19.1614   20.2977 O.3     1  UNL1       -0.4684
     11 C          -0.7545  -17.9758   19.6334 C.3     1  UNL1        0.2526
     12 C          -7.8895  -19.2951   20.4414 C.3     1  UNL1        0.0738
     13 C          -9.1057  -19.7442   19.6871 C.2     1  UNL1        0.1731
     14 O          -8.9582  -20.3815   18.3373 O.2     1  UNL1       -0.2913
     15 C         -10.8564  -18.2294   20.8664 C.2     1  UNL1       -0.0232
     16 C         -10.4696  -19.5559   20.2826 C.2     1  UNL1        0.0329
     17 C         -12.2201  -18.0411   21.4619 C.3     1  UNL1        0.0261
     18 C         -12.4168  -18.1746   22.9430 C.3     1  UNL1        0.0047
     19 C         -11.2279  -18.3003   23.8491 C.3     1  UNL1        0.0003
     20 C          -9.4545  -20.1989   23.8351 C.3     1  UNL1        0.0000
     21 C         -10.7714  -19.6549   24.3038 C.3     1  UNL1        0.0000
@<TRIPOS>BOND
     1    20    21    1
     2    21    19    1
     3    19    18    1
     4    18    17    1
     5    17    15    1
     6    15    16    2
     7    16    13    1
     8    13    14    2
     9    13    12    1
    10    12     1    1
    11     1     2    1
    12     2     3   ar
    13     3     4   ar
    14     4     5   ar
    15     5     6    1
    16     5     7   ar
    17     7    10    1
    18    10    11    1
    19     7     8   ar
    20     8     2   ar
    21     6     9    1
@<TRIPOS>MOLECULE
*****
 21 21 0 0 0
SMALL
GASTEIGER

@<TRIPOS>ATOM
      1 C          -9.5657  -18.0609   22.6978 C.3     1  UNL1        0.0346
      2 C          -8.6459  -17.1469   23.4519 C.ar    1  UNL1       -0.0185
      3 C          -9.1710  -16.3317   24.5963 C.ar    1  UNL1       -0.0009
      4 C          -8.2512  -15.4178   25.3504 C.ar    1  UNL1        0.0395
      5 C          -6.8062  -15.3191   24.9601 C.ar    1  UNL1        0.1677
      6 O          -5.8864  -14.4052   25.7142 O.3     1  UNL1       -0.5029
      7 C          -6.2811  -16.1343   23.8157 C.ar    1  UNL1        0.1718
      8 C          -7.2009  -17.0482   23.0616 C.ar    1  UNL1        0.0358
      9 H          -6.2144  -13.8959   26.4291 H       1  UNL1        0.2923
     10 O          -4.8361  -16.0356   23.4254 O.3     1  UNL1       -0.4684
     11 C          -3.9921  -17.2736   23.3548 C.3     1  UNL1        0.2526
     12 C          -9.0087  -19.2369   21.9519 C.3     1  UNL1        0.0738
     13 C          -8.6859  -19.1148   20.4921 C.2     1  UNL1        0.1731
     14 O          -9.7461  -18.6819   19.5233 O.2     1  UNL1       -0.2913
     15 C          -6.2896  -20.0147   20.9371 C.2     1  UNL1       -0.0232
     16 C          -7.3030  -19.4255   20.0012 C.2     1  UNL1        0.0329
     17 C          -4.9067  -20.3255   20.4463 C.3     1  UNL1        0.0261
     18 C          -4.1522  -19.3117   19.6382 C.3     1  UNL1        0.0047
     19 C          -2.8759  -18.7289   20.1689 C.3     1  UNL1        0.0003
     20 C          -0.4585  -17.9133   19.6784 C.3     1  UNL1        0.0000
     21 C          -1.8696  -18.1420   19.2241 C.3     1  UNL1        0.0000
@<TRIPOS>BOND
     1    20    21    1
     2    21    19    1
     3    19    18    1
     4    18    17    1
     5    17    15    1
     6    15    16    2
     7    16    13    1
     8    13    14    2
     9    13    12    1
    10    12     1    1
    11     1     2    1
    12     2     3   ar
    13     3     4   ar
    14     4     5   ar
    15     5     6    1
    16     5     7   ar
    17     7    10    1
    18    10    11    1
    19     7     8   ar
    20     8     2   ar
    21     6     9    1
@<TRIPOS>MOLECULE
*****
 21 21 0 0 0
SMALL
GASTEIGER

@<TRIPOS>ATOM
      1 C         -10.3621  -18.6165   25.3892 C.3     1  UNL1        0.0346
      2 C          -9.2992  -17.5630   25.4914 C.ar    1  UNL1       -0.0185
      3 C          -8.7810  -17.1485   26.8365 C.ar    1  UNL1       -0.0009
      4 C          -7.7181  -16.0950   26.9387 C.ar    1  UNL1        0.0395
      5 C          -7.1735  -15.4560   25.6957 C.ar    1  UNL1        0.1677
      6 O          -6.1107  -14.4025   25.7979 O.3     1  UNL1       -0.5029
      7 C          -7.6918  -15.8705   24.3506 C.ar    1  UNL1        0.1718
      8 C          -8.7547  -16.9240   24.2484 C.ar    1  UNL1        0.0358
      9 H          -5.7869  -14.1436   26.6382 H       1  UNL1        0.2923
     10 O          -7.1472  -15.2315   23.1075 O.3     1  UNL1       -0.4684
     11 C          -8.0190  -15.0854   21.8957 C.3     1  UNL1        0.2526
     12 C         -10.0115  -19.9908   24.9009 C.3     1  UNL1        0.0738
     13 C          -9.4937  -20.1816   23.5061 C.2     1  UNL1        0.1731
     14 O          -8.1680  -20.8469   23.2827 O.2     1  UNL1       -0.2913
     15 C          -9.6959  -18.7624   21.3393 C.2     1  UNL1       -0.0232
     16 C         -10.3015  -19.7071   22.3346 C.2     1  UNL1        0.0329
     17 C         -10.5037  -18.2879   20.1679 C.3     1  UNL1        0.0261
     18 C         -11.9157  -17.8234   20.3693 C.3     1  UNL1        0.0047
     19 C         -12.1883  -16.5609   21.1323 C.3     1  UNL1        0.0003
     20 C         -13.2307  -17.6391   23.2538 C.3     1  UNL1        0.0000
     21 C         -12.3459  -16.6049   22.6233 C.3     1  UNL1        0.0000
@<TRIPOS>BOND
     1    20    21    1
     2    21    19    1
     3    19    18    1
     4    18    17    1
     5    17    15    1
     6    15    16    2
     7    16    13    1
     8    13    14    2
     9    13    12    1
    10    12     1    1
    11     1     2    1
    12     2     3   ar
    13     3     4   ar
    14     4     5   ar
    15     5     6    1
    16     5     7   ar
    17     7    10    1
    18    10    11    1
    19     7     8   ar
    20     8     2   ar
    21     6     9    1
@<TRIPOS>MOLECULE
*****
 21 21 0 0 0
SMALL
GASTEIGER

@<TRIPOS>ATOM
      1 C          -8.4960  -18.4123   21.7067 C.3     1  UNL1        0.0346
      2 C          -7.0909  -18.9083   21.5347 C.ar    1  UNL1       -0.0185
      3 C          -6.7945  -19.9922   20.5411 C.ar    1  UNL1       -0.0009
      4 C          -5.3894  -20.4883   20.3691 C.ar    1  UNL1        0.0395
      5 C          -4.2806  -19.9004   21.1906 C.ar    1  UNL1        0.1677
      6 O          -2.8755  -20.3965   21.0186 O.3     1  UNL1       -0.5029
      7 C          -4.5770  -18.8165   22.1842 C.ar    1  UNL1        0.1718
      8 C          -5.9821  -18.3205   22.3563 C.ar    1  UNL1        0.0358
      9 H          -2.6904  -21.0736   20.3979 H       1  UNL1        0.2923
     10 O          -3.4682  -18.2286   23.0059 O.3     1  UNL1       -0.4684
     11 C          -2.6863  -17.0599   22.4837 C.3     1  UNL1        0.2526
     12 C          -9.1247  -18.3976   23.0685 C.3     1  UNL1        0.0738
     13 C          -9.7852  -17.1502   23.5762 C.2     1  UNL1        0.1731
     14 O         -11.0716  -16.6805   22.9643 O.2     1  UNL1       -0.2913
     15 C          -8.7795  -17.0665   25.9703 C.2     1  UNL1       -0.0232
     16 C          -9.1593  -16.3726   24.6959 C.2     1  UNL1        0.0329
     17 C          -8.1536  -16.2890   27.0899 C.3     1  UNL1        0.0261
     18 C          -7.1126  -15.2510   26.7919 C.3     1  UNL1        0.0047
     19 C          -5.6950  -15.6647   26.5280 C.3     1  UNL1        0.0003
     20 C          -5.8972  -15.1603   23.9874 C.3     1  UNL1        0.0000
     21 C          -5.2266  -15.8806   25.1194 C.3     1  UNL1        0.0000
@<TRIPOS>BOND
     1    20    21    1
     2    21    19    1
     3    19    18    1
     4    18    17    1
     5    17    15    1
     6    15    16    2
     7    16    13    1
     8    13    14    2
     9    13    12    1
    10    12     1    1
    11     1     2    1
    12     2     3   ar
    13     3     4   ar
    14     4     5   ar
    15     5     6    1
    16     5     7   ar
    17     7    10    1
    18    10    11    1
    19     7     8   ar
    20     8     2   ar
    21     6     9    1
@<TRIPOS>MOLECULE
*****
 21 21 0 0 0
SMALL
GASTEIGER

@<TRIPOS>ATOM
      1 C          -5.1208  -19.4690   20.8832 C.3     1  UNL1        0.0346
      2 C          -6.6167  -19.4145   20.9799 C.ar    1  UNL1       -0.0185
      3 C          -7.4520  -19.4941   19.7366 C.ar    1  UNL1       -0.0009
      4 C          -8.9479  -19.4396   19.8333 C.ar    1  UNL1        0.0395
      5 C          -9.6085  -19.3056   21.1733 C.ar    1  UNL1        0.1677
      6 O         -11.1043  -19.2512   21.2700 O.3     1  UNL1       -0.5029
      7 C          -8.7731  -19.2261   22.4166 C.ar    1  UNL1        0.1718
      8 C          -7.2772  -19.2805   22.3199 C.ar    1  UNL1        0.0358
      9 H         -11.6262  -19.3009   20.4933 H       1  UNL1        0.2923
     10 O          -9.4337  -19.0921   23.7567 O.3     1  UNL1       -0.4684
     11 C          -9.9965  -20.3030   24.4399 C.3     1  UNL1        0.2526
     12 C          -4.2904  -19.5330   22.1307 C.3     1  UNL1        0.0738
     13 C          -3.2175  -18.5126   22.3707 C.2     1  UNL1        0.1731
     14 O          -1.7752  -18.8855   22.1961 O.2     1  UNL1       -0.2913
     15 C          -4.7177  -16.8974   23.7459 C.2     1  UNL1       -0.0232
     16 C          -3.5870  -17.1191   22.7854 C.2     1  UNL1        0.0329
     17 C          -5.0872  -15.5041   24.1606 C.3     1  UNL1        0.0261
     18 C          -5.1554  -15.1480   25.6161 C.3     1  UNL1        0.0047
     19 C          -6.1519  -15.8269   26.5084 C.3     1  UNL1        0.0003
     20 C          -8.4399  -15.1740   27.5518 C.3     1  UNL1        0.0000
     21 C          -7.6158  -15.5395   26.3529 C.3     1  UNL1        0.0000
@<TRIPOS>BOND
     1    20    21    1
     2    21    19    1
     3    19    18    1
     4    18    17    1
     5    17    15    1
     6    15    16    2
     7    16    13    1
     8    13    14    2
     9    13    12    1
    10    12     1    1
    11     1     2    1
    12     2     3   ar
    13     3     4   ar
    14     4     5   ar
    15     5     6    1
    16     5     7   ar
    17     7    10    1
    18    10    11    1
    19     7     8   ar
    20     8     2   ar
    21     6     9    1
@<TRIPOS>MOLECULE
*****
 21 21 0 0 0
SMALL
GASTEIGER

@<TRIPOS>ATOM
      1 C          -4.7171  -19.6564   20.1127 C.3     1  UNL1        0.0346
      2 C          -6.1171  -19.6467   20.6512 C.ar    1  UNL1       -0.0185
      3 C          -6.3814  -20.0844   22.0613 C.ar    1  UNL1       -0.0009
      4 C          -7.7814  -20.0747   22.5997 C.ar    1  UNL1        0.0395
      5 C          -8.9171  -19.6272   21.7280 C.ar    1  UNL1        0.1677
      6 O         -10.3171  -19.6175   22.2665 O.3     1  UNL1       -0.5029
      7 C          -8.6528  -19.1895   20.3179 C.ar    1  UNL1        0.1718
      8 C          -7.2528  -19.1992   19.7795 C.ar    1  UNL1        0.0358
      9 H         -10.4822  -19.8909   23.1474 H       1  UNL1        0.2923
     10 O          -9.7886  -18.7421   19.4461 O.3     1  UNL1       -0.4684
     11 C         -10.7547  -17.7087   19.9447 C.3     1  UNL1        0.2526
     12 C          -3.5645  -19.9529   21.0257 C.3     1  UNL1        0.0738
     13 C          -2.5575  -18.8847   21.3336 C.2     1  UNL1        0.1731
     14 O          -1.1361  -19.0407   20.8805 O.2     1  UNL1       -0.2913
     15 C          -4.0446  -17.7537   23.1390 C.2     1  UNL1       -0.0232
     16 C          -2.9720  -17.6602   22.0946 C.2     1  UNL1        0.0329
     17 C          -4.4591  -16.5294   23.9001 C.3     1  UNL1        0.0261
     18 C          -5.9014  -16.1187   23.9321 C.3     1  UNL1        0.0047
     19 C          -6.3804  -15.1421   24.9650 C.3     1  UNL1        0.0003
     20 C          -6.9936  -15.8278   27.3948 C.3     1  UNL1        0.0000
     21 C          -5.9902  -15.3193   26.4025 C.3     1  UNL1        0.0000
@<TRIPOS>BOND
     1    20    21    1
     2    21    19    1
     3    19    18    1
     4    18    17    1
     5    17    15    1
     6    15    16    2
     7    16    13    1
     8    13    14    2
     9    13    12    1
    10    12     1    1
    11     1     2    1
    12     2     3   ar
    13     3     4   ar
    14     4     5   ar
    15     5     6    1
    16     5     7   ar
    17     7    10    1
    18    10    11    1
    19     7     8   ar
    20     8     2   ar
    21     6     9    1
@<TRIPOS>MOLECULE
*****
 21 21 0 0 0
SMALL
GASTEIGER

@<TRIPOS>ATOM
      1 C          -7.2470  -17.0541   23.0176 C.3     1  UNL1        0.0346
      2 C          -8.6637  -17.2049   22.5482 C.ar    1  UNL1       -0.0185
      3 C          -9.7579  -16.4123   23.1997 C.ar    1  UNL1       -0.0009
      4 C         -11.1746  -16.5631   22.7304 C.ar    1  UNL1        0.0395
      5 C         -11.4970  -17.5063   21.6096 C.ar    1  UNL1        0.1677
      6 O         -12.9137  -17.6570   21.1402 O.3     1  UNL1       -0.5029
      7 C         -10.4028  -18.2988   20.9581 C.ar    1  UNL1        0.1718
      8 C          -8.9861  -18.1481   21.4274 C.ar    1  UNL1        0.0358
      9 H         -13.5973  -17.1619   21.5472 H       1  UNL1        0.2923
     10 O         -10.7252  -19.2421   19.8372 O.3     1  UNL1       -0.4684
     11 C          -9.6185  -19.9270   19.0915 C.3     1  UNL1        0.2526
     12 C          -6.8447  -15.8477   23.8130 C.3     1  UNL1        0.0738
     13 C          -5.4953  -15.7957   24.4659 C.2     1  UNL1        0.1731
     14 O          -5.1569  -14.6718   25.3999 O.2     1  UNL1       -0.2913
     15 C          -3.5645  -16.7407   23.0067 C.2     1  UNL1       -0.0232
     16 C          -4.4842  -16.8675   24.1849 C.2     1  UNL1        0.0329
     17 C          -2.5535  -17.8125   22.7257 C.3     1  UNL1        0.0261
     18 C          -2.9625  -19.0556   21.9926 C.3     1  UNL1        0.0047
     19 C          -3.7555  -18.9514   20.7236 C.3     1  UNL1        0.0003
     20 C          -2.0419  -17.9025   19.0764 C.3     1  UNL1        0.0000
     21 C          -3.0539  -18.9619   19.3978 C.3     1  UNL1        0.0000
@<TRIPOS>BOND
     1    20    21    1
     2    21    19    1
     3    19    18    1
     4    18    17    1
     5    17    15    1
     6    15    16    2
     7    16    13    1
     8    13    14    2
     9    13    12    1
    10    12     1    1
    11     1     2    1
    12     2     3   ar
    13     3     4   ar
    14     4     5   ar
    15     5     6    1
    16     5     7   ar
    17     7    10    1
    18    10    11    1
    19     7     8   ar
    20     8     2   ar
    21     6     9    1
