@<TRIPOS>MOLECULE
*****
 41 44 0 0 0
SMALL
GASTEIGER

@<TRIPOS>ATOM
      1 C          -5.4385  -15.6239   24.2064 C.3     1  UNL1        0.0769
      2 N          -6.3439  -15.0562   23.1538 N.am    1  UNL1       -0.2902
      3 C          -7.6756  -15.6928   22.8871 C.2     1  UNL1        0.3044
      4 O          -8.1020  -16.8971   23.6730 O.2     1  UNL1       -0.2525
      5 N          -8.5810  -15.1250   21.8345 N.am    1  UNL1       -0.2683
      6 H          -6.0640  -14.2657   22.6379 H       1  UNL1        0.1509
      7 H          -8.3011  -14.3346   21.3187 H       1  UNL1        0.1564
      8 C          -9.9127  -15.7616   21.5678 C.ar    1  UNL1        0.0517
      9 C         -10.5019  -15.7188   20.1890 C.ar    1  UNL1        0.0147
     10 C         -11.8336  -16.3554   19.9223 C.ar    1  UNL1        0.0014
     11 C         -12.5763  -17.0349   21.0344 C.ar    1  UNL1        0.0032
     12 C         -11.9872  -17.0777   22.4132 C.ar    1  UNL1        0.0386
     13 C         -10.6554  -16.4411   22.6800 C.ar    1  UNL1        0.0178
     14 C         -12.7299  -17.7571   23.5254 C.ar    1  UNL1        0.1839
     15 N         -14.2052  -17.6698   23.7827 N.ar    1  UNL1       -0.1081
     16 N         -14.5147  -18.5019   24.9918 N.ar    1  UNL1       -0.0227
     17 N         -13.2309  -19.1034   25.4817 N.ar    1  UNL1       -0.0429
     18 N         -12.1278  -18.6431   24.5754 N.ar    1  UNL1       -0.2113
     19 C         -10.6774  -19.0053   24.6976 C.3     1  UNL1        0.1573
     20 C          -5.5135  -15.1137   25.6149 C.3     1  UNL1        0.0197
     21 C          -7.9701  -15.1952   26.4566 C.3     1  UNL1        0.0001
     22 C          -6.5469  -15.6584   26.5559 C.3     1  UNL1        0.0016
     23 C          -6.1571  -16.6662   27.5962 C.3     1  UNL1        0.0001
     24 C          -4.4581  -16.7020   23.8504 C.3     1  UNL1        0.0661
     25 C          -3.6599  -16.6016   22.5844 C.3     1  UNL1        0.1738
     26 O          -2.8926  -15.3495   22.2787 O.3     1  UNL1       -0.3697
     27 H          -2.4354  -15.4497   21.4291 H       1  UNL1        0.2119
     28 N          -3.6291  -17.7534   21.6239 N.3     1  UNL1       -0.2511
     29 C          -2.4767  -17.9093   20.6764 C.3     1  UNL1        0.0742
     30 C          -2.4460  -19.0610   19.7160 C.3     1  UNL1        0.0175
     31 C          -3.5675  -20.0570   19.7030 C.3     1  UNL1        0.0031
     32 C          -4.7199  -19.9011   20.6505 C.3     1  UNL1        0.0205
     33 C          -4.7507  -18.7494   21.6109 C.3     1  UNL1        0.0745
     34 C          -5.8415  -20.8971   20.6375 C.3     1  UNL1        0.0277
     35 C          -7.2140  -20.4753   20.2038 C.ar    1  UNL1       -0.0220
     36 C          -8.0716  -19.6551   21.1215 C.ar    1  UNL1       -0.0020
     37 C          -9.4442  -19.2334   20.6878 C.ar    1  UNL1        0.0293
     38 C          -9.9593  -19.6317   19.3365 C.ar    1  UNL1        0.1401
     39 F         -11.3319  -19.2099   18.9028 F       1  UNL1       -0.2042
     40 C          -9.1018  -20.4518   18.4189 C.ar    1  UNL1        0.0293
     41 C          -7.7291  -20.8736   18.8525 C.ar    1  UNL1       -0.0020
@<TRIPOS>BOND
     1    21    22    1
     2    22    23    1
     3    22    20    1
     4     1    20    1
     5     1    24    1
     6    24    25    1
     7    25    26    1
     8    25    28    1
     9    28    29    1
    10    29    30    1
    11    30    31    1
    12    31    32    1
    13    32    34    1
    14    34    35    1
    15    35    36   ar
    16    36    37   ar
    17    37    38   ar
    18    38    39    1
    19    38    40   ar
    20    40    41   ar
    21    32    33    1
    22     1     2    1
    23     2     3   am
    24     3     4    2
    25     3     5   am
    26     5     8    1
    27     8     9   ar
    28     9    10   ar
    29    10    11   ar
    30    11    12   ar
    31    12    14    1
    32    14    15   ar
    33    15    16   ar
    34    16    17   ar
    35    17    18   ar
    36    18    19    1
    37    12    13   ar
    38    33    28    1
    39    13     8   ar
    40    41    35   ar
    41    18    14   ar
    42    26    27    1
    43     2     6    1
    44     5     7    1
@<TRIPOS>MOLECULE
*****
 41 44 0 0 0
SMALL
GASTEIGER

@<TRIPOS>ATOM
      1 C          -2.2763  -16.9102   22.0181 C.3     1  UNL1        0.0769
      2 N          -3.2849  -15.8535   22.3587 N.am    1  UNL1       -0.2902
      3 C          -4.4262  -16.1743   23.2777 C.2     1  UNL1        0.3044
      4 O          -4.5588  -17.5519   23.8561 O.2     1  UNL1       -0.2525
      5 N          -5.4348  -15.1176   23.6182 N.am    1  UNL1       -0.2683
      6 H          -3.1978  -14.9493   21.9791 H       1  UNL1        0.1509
      7 H          -5.3477  -14.2134   23.2386 H       1  UNL1        0.1564
      8 C          -6.5760  -15.4384   24.5372 C.ar    1  UNL1        0.0517
      9 C          -6.4456  -15.1887   26.0106 C.ar    1  UNL1        0.0147
     10 C          -7.5869  -15.5095   26.9296 C.ar    1  UNL1        0.0014
     11 C          -8.8585  -16.0801   26.3753 C.ar    1  UNL1        0.0032
     12 C          -8.9890  -16.3298   24.9020 C.ar    1  UNL1        0.0386
     13 C          -7.8477  -16.0090   23.9829 C.ar    1  UNL1        0.0178
     14 C         -10.2607  -16.9004   24.3477 C.ar    1  UNL1        0.1839
     15 N         -11.2910  -16.1519   23.5550 N.ar    1  UNL1       -0.1081
     16 N         -12.3924  -17.1086   23.2062 N.ar    1  UNL1       -0.0227
     17 N         -12.0429  -18.4483   23.7833 N.ar    1  UNL1       -0.0429
     18 N         -10.7254  -18.3196   24.4887 N.ar    1  UNL1       -0.2113
     19 C         -10.0000  -19.4174   25.2088 C.3     1  UNL1        0.1573
     20 C          -1.2036  -16.6257   21.0091 C.3     1  UNL1        0.0197
     21 C          -2.3457  -17.4223   18.8157 C.3     1  UNL1        0.0001
     22 C          -1.1545  -17.4030   19.7271 C.3     1  UNL1        0.0016
     23 C           0.0856  -18.1611   19.3566 C.3     1  UNL1        0.0001
     24 C          -2.3405  -18.2515   22.6866 C.3     1  UNL1        0.0661
     25 C          -2.4755  -19.4959   21.8600 C.3     1  UNL1        0.1738
     26 O          -1.2701  -20.3424   21.5765 O.3     1  UNL1       -0.3697
     27 H          -1.5297  -21.1029   21.0332 H       1  UNL1        0.2119
     28 N          -3.8160  -19.8937   21.3168 N.3     1  UNL1       -0.2511
     29 C          -3.9085  -20.6307   20.0137 C.3     1  UNL1        0.0742
     30 C          -5.2489  -21.0285   19.4706 C.3     1  UNL1        0.0175
     31 C          -6.4968  -20.6893   20.2306 C.3     1  UNL1        0.0031
     32 C          -6.4043  -19.9523   21.5337 C.3     1  UNL1        0.0205
     33 C          -5.0639  -19.5545   22.0768 C.3     1  UNL1        0.0745
     34 C          -7.6522  -19.6130   22.2937 C.3     1  UNL1        0.0277
     35 C          -8.8164  -18.9883   21.5836 C.ar    1  UNL1       -0.0220
     36 C          -9.9922  -19.8306   21.1859 C.ar    1  UNL1       -0.0020
     37 C         -11.1564  -19.2058   20.4758 C.ar    1  UNL1        0.0293
     38 C         -11.1448  -17.7388   20.1633 C.ar    1  UNL1        0.1401
     39 F         -12.3091  -17.1140   19.4531 F       1  UNL1       -0.2042
     40 C          -9.9691  -16.8965   20.5609 C.ar    1  UNL1        0.0293
     41 C          -8.8048  -17.5212   21.2711 C.ar    1  UNL1       -0.0020
@<TRIPOS>BOND
     1    21    22    1
     2    22    23    1
     3    22    20    1
     4     1    20    1
     5     1    24    1
     6    24    25    1
     7    25    26    1
     8    25    28    1
     9    28    29    1
    10    29    30    1
    11    30    31    1
    12    31    32    1
    13    32    34    1
    14    34    35    1
    15    35    36   ar
    16    36    37   ar
    17    37    38   ar
    18    38    39    1
    19    38    40   ar
    20    40    41   ar
    21    32    33    1
    22     1     2    1
    23     2     3   am
    24     3     4    2
    25     3     5   am
    26     5     8    1
    27     8     9   ar
    28     9    10   ar
    29    10    11   ar
    30    11    12   ar
    31    12    14    1
    32    14    15   ar
    33    15    16   ar
    34    16    17   ar
    35    17    18   ar
    36    18    19    1
    37    12    13   ar
    38    33    28    1
    39    13     8   ar
    40    41    35   ar
    41    18    14   ar
    42    26    27    1
    43     2     6    1
    44     5     7    1
@<TRIPOS>MOLECULE
*****
 41 44 0 0 0
SMALL
GASTEIGER

@<TRIPOS>ATOM
      1 C           7.1151   -3.8056   25.8231 C.3     1  UNL1        0.0769
      2 N           5.8525   -3.4789   25.0820 N.am    1  UNL1       -0.2902
      3 C           5.7942   -3.6410   23.5919 C.2     1  UNL1        0.3044
      4 O           6.9984   -4.1298   22.8430 O.2     1  UNL1       -0.2525
      5 N           4.5316   -3.3144   22.8508 N.am    1  UNL1       -0.2683
      6 H           5.0621   -3.1582   25.5736 H       1  UNL1        0.1509
      7 H           3.7412   -2.9936   23.3424 H       1  UNL1        0.1564
      8 C           4.4733   -3.4765   21.3608 C.ar    1  UNL1        0.0517
      9 C           3.9190   -4.7364   20.7645 C.ar    1  UNL1        0.0147
     10 C           3.8607   -4.8985   19.2744 C.ar    1  UNL1        0.0014
     11 C           4.3566   -3.8007   18.3806 C.ar    1  UNL1        0.0032
     12 C           4.9109   -2.5408   18.9768 C.ar    1  UNL1        0.0386
     13 C           4.9693   -2.3787   20.4669 C.ar    1  UNL1        0.0178
     14 C           5.4069   -1.4431   18.0830 C.ar    1  UNL1        0.1839
     15 N           6.7875   -1.3308   17.5074 N.ar    1  UNL1       -0.1081
     16 N           6.8432   -0.0831   16.6764 N.ar    1  UNL1       -0.0227
     17 N           5.4970    0.5756   16.7385 N.ar    1  UNL1       -0.0429
     18 N           4.6093   -0.2649   17.6078 N.ar    1  UNL1       -0.2113
     19 C           3.1758    0.0224   17.9431 C.3     1  UNL1        0.1573
     20 C           8.1679   -2.7539   26.0109 C.3     1  UNL1        0.0197
     21 C           6.9789   -1.1079   27.6317 C.3     1  UNL1        0.0001
     22 C           8.1825   -1.9216   27.2588 C.3     1  UNL1        0.0016
     23 C           9.4007   -1.9031   28.1337 C.3     1  UNL1        0.0001
     24 C           7.3247   -5.1840   26.3764 C.3     1  UNL1        0.0661
     25 C           6.7302   -5.5587   27.7016 C.3     1  UNL1        0.1738
     26 O           5.3049   -6.0193   27.7809 O.3     1  UNL1       -0.3697
     27 H           5.0808   -6.2202   28.7030 H       1  UNL1        0.2119
     28 N           7.5610   -5.4727   28.9476 N.3     1  UNL1       -0.2511
     29 C           8.5820   -6.5311   29.2428 C.3     1  UNL1        0.0742
     30 C           9.4127   -6.4451   30.4887 C.3     1  UNL1        0.0175
     31 C           9.2225   -5.3006   31.4395 C.3     1  UNL1        0.0031
     32 C           8.2015   -4.2422   31.1443 C.3     1  UNL1        0.0205
     33 C           7.3707   -4.3282   29.8984 C.3     1  UNL1        0.0745
     34 C           8.0112   -3.0977   32.0951 C.3     1  UNL1        0.0277
     35 C           6.7298   -2.3181   32.0834 C.ar    1  UNL1       -0.0220
     36 C           6.6528   -1.0125   31.3487 C.ar    1  UNL1       -0.0020
     37 C           5.3714   -0.2329   31.3371 C.ar    1  UNL1        0.0293
     38 C           4.1670   -0.7587   32.0601 C.ar    1  UNL1        0.1401
     39 F           2.8855    0.0210   32.0484 F       1  UNL1       -0.2042
     40 C           4.2439   -2.0642   32.7948 C.ar    1  UNL1        0.0293
     41 C           5.5253   -2.8439   32.8065 C.ar    1  UNL1       -0.0020
@<TRIPOS>BOND
     1    21    22    1
     2    22    23    1
     3    22    20    1
     4     1    20    1
     5     1    24    1
     6    24    25    1
     7    25    26    1
     8    25    28    1
     9    28    29    1
    10    29    30    1
    11    30    31    1
    12    31    32    1
    13    32    34    1
    14    34    35    1
    15    35    36   ar
    16    36    37   ar
    17    37    38   ar
    18    38    39    1
    19    38    40   ar
    20    40    41   ar
    21    32    33    1
    22     1     2    1
    23     2     3   am
    24     3     4    2
    25     3     5   am
    26     5     8    1
    27     8     9   ar
    28     9    10   ar
    29    10    11   ar
    30    11    12   ar
    31    12    14    1
    32    14    15   ar
    33    15    16   ar
    34    16    17   ar
    35    17    18   ar
    36    18    19    1
    37    12    13   ar
    38    33    28    1
    39    13     8   ar
    40    41    35   ar
    41    18    14   ar
    42    26    27    1
    43     2     6    1
    44     5     7    1
@<TRIPOS>MOLECULE
*****
 41 44 0 0 0
SMALL
GASTEIGER

@<TRIPOS>ATOM
      1 C           0.9234    2.5783   30.7230 C.3     1  UNL1        0.0769
      2 N           1.3329    1.5981   31.7821 N.am    1  UNL1       -0.2902
      3 C           2.7190    1.0250   31.7779 C.2     1  UNL1        0.3044
      4 O           3.6956    1.4320   30.7147 O.2     1  UNL1       -0.2525
      5 N           3.1285    0.0448   32.8369 N.am    1  UNL1       -0.2683
      6 H           0.6918    1.3310   32.4799 H       1  UNL1        0.1509
      7 H           2.4875   -0.2223   33.5348 H       1  UNL1        0.1564
      8 C           4.5147   -0.5283   32.8328 C.ar    1  UNL1        0.0517
      9 C           5.6168    0.1689   33.5739 C.ar    1  UNL1        0.0147
     10 C           7.0029   -0.4043   33.5697 C.ar    1  UNL1        0.0014
     11 C           7.2870   -1.6746   32.8244 C.ar    1  UNL1        0.0032
     12 C           6.1850   -2.3719   32.0833 C.ar    1  UNL1        0.0386
     13 C           4.7987   -1.7987   32.0875 C.ar    1  UNL1        0.0178
     14 C           6.4690   -3.6422   31.3380 C.ar    1  UNL1        0.1839
     15 N           6.7011   -4.9913   31.9515 N.ar    1  UNL1       -0.1081
     16 N           6.9464   -5.9694   30.8410 N.ar    1  UNL1       -0.0227
     17 N           6.8660   -5.2249   29.5413 N.ar    1  UNL1       -0.0429
     18 N           6.5710   -3.7867   29.8485 N.ar    1  UNL1       -0.2113
     19 C           6.4068   -2.6860   28.8427 C.3     1  UNL1        0.1573
     20 C           0.7163    2.1146   29.3116 C.3     1  UNL1        0.0197
     21 C           1.3361   -0.3389   28.7234 C.3     1  UNL1        0.0001
     22 C           0.3007    0.6991   29.0406 C.3     1  UNL1        0.0016
     23 C          -1.1502    0.3215   29.0867 C.3     1  UNL1        0.0001
     24 C           0.7209    4.0222   31.0754 C.3     1  UNL1        0.0661
     25 C           0.4947    4.4211   32.5036 C.3     1  UNL1        0.1738
     26 O          -0.8960    4.6944   32.9948 O.3     1  UNL1       -0.3697
     27 H          -0.8654    4.9379   33.9332 H       1  UNL1        0.2119
     28 N           1.6593    4.5467   33.4407 N.3     1  UNL1       -0.2511
     29 C           3.0411    4.7559   32.8960 C.3     1  UNL1        0.0742
     30 C           4.2056    4.8815   33.8330 C.3     1  UNL1        0.0175
     31 C           3.9883    4.7977   35.3148 C.3     1  UNL1        0.0031
     32 C           2.6065    4.5885   35.8596 C.3     1  UNL1        0.0205
     33 C           1.4420    4.4629   34.9225 C.3     1  UNL1        0.0745
     34 C           2.3892    4.5047   37.3414 C.3     1  UNL1        0.0277
     35 C           2.0430    3.1902   37.9755 C.ar    1  UNL1       -0.0220
     36 C           0.7412    3.0283   38.7031 C.ar    1  UNL1       -0.0020
     37 C           0.3950    1.7138   39.3373 C.ar    1  UNL1        0.0293
     38 C           1.3504    0.5612   39.2439 C.ar    1  UNL1        0.1401
     39 F           1.0041   -0.7533   39.8781 F       1  UNL1       -0.2042
     40 C           2.6521    0.7231   38.5164 C.ar    1  UNL1        0.0293
     41 C           2.9984    2.0377   37.8822 C.ar    1  UNL1       -0.0020
@<TRIPOS>BOND
     1    21    22    1
     2    22    23    1
     3    22    20    1
     4     1    20    1
     5     1    24    1
     6    24    25    1
     7    25    26    1
     8    25    28    1
     9    28    29    1
    10    29    30    1
    11    30    31    1
    12    31    32    1
    13    32    34    1
    14    34    35    1
    15    35    36   ar
    16    36    37   ar
    17    37    38   ar
    18    38    39    1
    19    38    40   ar
    20    40    41   ar
    21    32    33    1
    22     1     2    1
    23     2     3   am
    24     3     4    2
    25     3     5   am
    26     5     8    1
    27     8     9   ar
    28     9    10   ar
    29    10    11   ar
    30    11    12   ar
    31    12    14    1
    32    14    15   ar
    33    15    16   ar
    34    16    17   ar
    35    17    18   ar
    36    18    19    1
    37    12    13   ar
    38    33    28    1
    39    13     8   ar
    40    41    35   ar
    41    18    14   ar
    42    26    27    1
    43     2     6    1
    44     5     7    1
@<TRIPOS>MOLECULE
*****
 41 44 0 0 0
SMALL
GASTEIGER

@<TRIPOS>ATOM
      1 C           8.0828   -4.4652   26.0001 C.3     1  UNL1        0.0769
      2 N           8.2117   -3.4013   27.0497 N.am    1  UNL1       -0.2902
      3 C           7.2251   -3.3372   28.1777 C.2     1  UNL1        0.3044
      4 O           6.1096   -4.3369   28.2561 O.2     1  UNL1       -0.2525
      5 N           7.3540   -2.2734   29.2273 N.am    1  UNL1       -0.2683
      6 H           8.9438   -2.7452   26.9982 H       1  UNL1        0.1509
      7 H           8.0861   -1.6172   29.1758 H       1  UNL1        0.1564
      8 C           6.3674   -2.2093   30.3553 C.ar    1  UNL1        0.0517
      9 C           6.5693   -3.0555   31.5774 C.ar    1  UNL1        0.0147
     10 C           5.5827   -2.9913   32.7054 C.ar    1  UNL1        0.0014
     11 C           4.3942   -2.0811   32.6115 C.ar    1  UNL1        0.0032
     12 C           4.1923   -1.2349   31.3895 C.ar    1  UNL1        0.0386
     13 C           5.1789   -1.2990   30.2614 C.ar    1  UNL1        0.0178
     14 C           3.0037   -0.3247   31.2956 C.ar    1  UNL1        0.1839
     15 N           1.8828   -0.4375   30.3051 N.ar    1  UNL1       -0.1081
     16 N           0.9138    0.6757   30.5731 N.ar    1  UNL1       -0.0227
     17 N           1.4357    1.4765   31.7290 N.ar    1  UNL1       -0.0429
     18 N           2.7274    0.8582   32.1756 N.ar    1  UNL1       -0.2113
     19 C           3.5910    1.3386   33.3040 C.3     1  UNL1        0.1573
     20 C           8.8115   -5.7667   26.1580 C.3     1  UNL1        0.0197
     21 C           7.1831   -7.7883   26.2651 C.3     1  UNL1        0.0001
     22 C           8.2523   -7.0181   25.5485 C.3     1  UNL1        0.0016
     23 C           8.7622   -7.4992   24.2225 C.3     1  UNL1        0.0001
     24 C           7.2251   -4.2274   24.7926 C.3     1  UNL1        0.0661
     25 C           7.1651   -2.8631   24.1721 C.3     1  UNL1        0.1738
     26 O           8.4294   -2.0931   23.9299 O.3     1  UNL1       -0.3697
     27 H           8.2147   -1.2376   23.5262 H       1  UNL1        0.2119
     28 N           5.8408   -2.2688   23.7938 N.3     1  UNL1       -0.2511
     29 C           5.0557   -1.4834   24.8022 C.3     1  UNL1        0.0742
     30 C           3.7315   -0.8891   24.4238 C.3     1  UNL1        0.0175
     31 C           3.1924   -1.0802   23.0372 C.3     1  UNL1        0.0031
     32 C           3.9775   -1.8655   22.0288 C.3     1  UNL1        0.0205
     33 C           5.3017   -2.4598   22.4072 C.3     1  UNL1        0.0745
     34 C           3.4383   -2.0566   20.6422 C.3     1  UNL1        0.0277
     35 C           2.7058   -0.9385   19.9616 C.ar    1  UNL1       -0.0220
     36 C           3.4180   -0.0721   18.9655 C.ar    1  UNL1       -0.0020
     37 C           2.6855    1.0461   18.2849 C.ar    1  UNL1        0.0293
     38 C           1.2408    1.2978   18.6004 C.ar    1  UNL1        0.1401
     39 F           0.5083    2.4160   17.9198 F       1  UNL1       -0.2042
     40 C           0.5287    0.4314   19.5965 C.ar    1  UNL1        0.0293
     41 C           1.2612   -0.6867   20.2771 C.ar    1  UNL1       -0.0020
@<TRIPOS>BOND
     1    21    22    1
     2    22    23    1
     3    22    20    1
     4     1    20    1
     5     1    24    1
     6    24    25    1
     7    25    26    1
     8    25    28    1
     9    28    29    1
    10    29    30    1
    11    30    31    1
    12    31    32    1
    13    32    34    1
    14    34    35    1
    15    35    36   ar
    16    36    37   ar
    17    37    38   ar
    18    38    39    1
    19    38    40   ar
    20    40    41   ar
    21    32    33    1
    22     1     2    1
    23     2     3   am
    24     3     4    2
    25     3     5   am
    26     5     8    1
    27     8     9   ar
    28     9    10   ar
    29    10    11   ar
    30    11    12   ar
    31    12    14    1
    32    14    15   ar
    33    15    16   ar
    34    16    17   ar
    35    17    18   ar
    36    18    19    1
    37    12    13   ar
    38    33    28    1
    39    13     8   ar
    40    41    35   ar
    41    18    14   ar
    42    26    27    1
    43     2     6    1
    44     5     7    1
@<TRIPOS>MOLECULE
*****
 41 44 0 0 0
SMALL
GASTEIGER

@<TRIPOS>ATOM
      1 C           1.0887    3.0276   20.9330 C.3     1  UNL1        0.0769
      2 N           2.2645    2.8925   21.8545 N.am    1  UNL1       -0.2902
      3 C           2.2134    1.9236   22.9984 C.2     1  UNL1        0.3044
      4 O           0.9866    1.0898   23.2208 O.2     1  UNL1       -0.2525
      5 N           3.3892    1.7885   23.9199 N.am    1  UNL1       -0.2683
      6 H           3.0697    3.4398   21.7085 H       1  UNL1        0.1509
      7 H           4.1945    2.3358   23.7740 H       1  UNL1        0.1564
      8 C           3.3382    0.8196   25.0638 C.ar    1  UNL1        0.0517
      9 C           4.0040   -0.5192   24.9431 C.ar    1  UNL1        0.0147
     10 C           3.9529   -1.4881   26.0870 C.ar    1  UNL1        0.0014
     11 C           3.2361   -1.1183   27.3517 C.ar    1  UNL1        0.0032
     12 C           2.5704    0.2204   27.4725 C.ar    1  UNL1        0.0386
     13 C           2.6214    1.1894   26.3285 C.ar    1  UNL1        0.0178
     14 C           1.8535    0.5901   28.7372 C.ar    1  UNL1        0.1839
     15 N           2.4835    0.7749   30.0859 N.ar    1  UNL1       -0.1081
     16 N           1.4002    1.1390   31.0575 N.ar    1  UNL1       -0.0227
     17 N           0.1008    1.1793   30.3092 N.ar    1  UNL1       -0.0429
     18 N           0.3810    0.8401   28.8752 N.ar    1  UNL1       -0.2113
     19 C          -0.6333    0.7642   27.7727 C.3     1  UNL1        0.1573
     20 C           0.0105    4.0260   21.2341 C.3     1  UNL1        0.0197
     21 C          -1.6509    3.4886   23.1579 C.3     1  UNL1        0.0001
     22 C          -1.3387    3.5575   21.6924 C.3     1  UNL1        0.0016
     23 C          -2.3759    3.1580   20.6851 C.3     1  UNL1        0.0001
     24 C           0.9910    2.1642   19.7102 C.3     1  UNL1        0.0661
     25 C           0.9547    0.6710   19.8474 C.3     1  UNL1        0.1738
     26 O          -0.1811    0.0118   20.5722 O.3     1  UNL1       -0.3697
     27 H          -0.0516   -0.9495   20.5699 H       1  UNL1        0.2119
     28 N           2.0543   -0.1632   19.2597 N.3     1  UNL1       -0.2511
     29 C           2.7899    0.3149   18.0430 C.3     1  UNL1        0.0742
     30 C           3.8894   -0.5193   17.4555 C.3     1  UNL1        0.0175
     31 C           4.2533   -1.8314   18.0846 C.3     1  UNL1        0.0031
     32 C           3.5177   -2.3095   19.3012 C.3     1  UNL1        0.0205
     33 C           2.4182   -1.4753   19.8888 C.3     1  UNL1        0.0745
     34 C           3.8816   -3.6216   19.9303 C.3     1  UNL1        0.0277
     35 C           4.9511   -3.6789   20.9805 C.ar    1  UNL1       -0.0220
     36 C           6.3903   -3.8113   20.5790 C.ar    1  UNL1       -0.0020
     37 C           7.4598   -3.8685   21.6292 C.ar    1  UNL1        0.0293
     38 C           7.0901   -3.7934   23.0810 C.ar    1  UNL1        0.1401
     39 F           8.1596   -3.8507   24.1312 F       1  UNL1       -0.2042
     40 C           5.6509   -3.6610   23.4826 C.ar    1  UNL1        0.0293
     41 C           4.5814   -3.6038   22.4323 C.ar    1  UNL1       -0.0020
@<TRIPOS>BOND
     1    21    22    1
     2    22    23    1
     3    22    20    1
     4     1    20    1
     5     1    24    1
     6    24    25    1
     7    25    26    1
     8    25    28    1
     9    28    29    1
    10    29    30    1
    11    30    31    1
    12    31    32    1
    13    32    34    1
    14    34    35    1
    15    35    36   ar
    16    36    37   ar
    17    37    38   ar
    18    38    39    1
    19    38    40   ar
    20    40    41   ar
    21    32    33    1
    22     1     2    1
    23     2     3   am
    24     3     4    2
    25     3     5   am
    26     5     8    1
    27     8     9   ar
    28     9    10   ar
    29    10    11   ar
    30    11    12   ar
    31    12    14    1
    32    14    15   ar
    33    15    16   ar
    34    16    17   ar
    35    17    18   ar
    36    18    19    1
    37    12    13   ar
    38    33    28    1
    39    13     8   ar
    40    41    35   ar
    41    18    14   ar
    42    26    27    1
    43     2     6    1
    44     5     7    1
@<TRIPOS>MOLECULE
*****
 41 44 0 0 0
SMALL
GASTEIGER

@<TRIPOS>ATOM
      1 C           7.0140   -2.9039   24.2072 C.3     1  UNL1        0.0769
      2 N           6.2397   -3.6473   25.2549 N.am    1  UNL1       -0.2902
      3 C           6.7508   -3.7073   26.6639 C.2     1  UNL1        0.3044
      4 O           8.0363   -3.0239   27.0250 O.2     1  UNL1       -0.2525
      5 N           5.9765   -4.4507   27.7116 N.am    1  UNL1       -0.2683
      6 H           5.3960   -4.0958   25.0179 H       1  UNL1        0.1509
      7 H           5.1328   -4.8992   27.4745 H       1  UNL1        0.1564
      8 C           6.4876   -4.5107   29.1205 C.ar    1  UNL1        0.0517
      9 C           7.0789   -5.7835   29.6503 C.ar    1  UNL1        0.0147
     10 C           7.5900   -5.8435   31.0592 C.ar    1  UNL1        0.0014
     11 C           7.5099   -4.6308   31.9384 C.ar    1  UNL1        0.0032
     12 C           6.9186   -3.3581   31.4087 C.ar    1  UNL1        0.0386
     13 C           6.4075   -3.2980   29.9997 C.ar    1  UNL1        0.0178
     14 C           6.8385   -2.1454   32.2879 C.ar    1  UNL1        0.1839
     15 N           7.8871   -1.0808   32.4193 N.ar    1  UNL1       -0.1081
     16 N           7.3923   -0.0619   33.4027 N.ar    1  UNL1       -0.0227
     17 N           6.0381   -0.4967   33.8791 N.ar    1  UNL1       -0.0429
     18 N           5.6958   -1.7844   33.1901 N.ar    1  UNL1       -0.2113
     19 C           4.4326   -2.5727   33.3714 C.3     1  UNL1        0.1573
     20 C           6.6171   -1.5071   23.8312 C.3     1  UNL1        0.0197
     21 C           4.1816   -1.9569   23.0465 C.3     1  UNL1        0.0001
     22 C           5.5063   -1.2818   22.8486 C.3     1  UNL1        0.0016
     23 C           5.7203   -0.3814   21.6682 C.3     1  UNL1        0.0001
     24 C           8.1853   -3.5573   23.5355 C.3     1  UNL1        0.0661
     25 C           7.9847   -4.3387   22.2709 C.3     1  UNL1        0.1738
     26 O           8.0347   -5.8376   22.2995 O.3     1  UNL1       -0.3697
     27 H           7.8867   -6.1832   21.4054 H       1  UNL1        0.2119
     28 N           7.7339   -3.6212   20.9777 N.3     1  UNL1       -0.2511
     29 C           8.8381   -2.8434   20.3252 C.3     1  UNL1        0.0742
     30 C           8.5873   -2.1260   19.0320 C.3     1  UNL1        0.0175
     31 C           7.2324   -2.1864   18.3913 C.3     1  UNL1        0.0031
     32 C           6.1282   -2.9642   19.0438 C.3     1  UNL1        0.0205
     33 C           6.3790   -3.6816   20.3370 C.3     1  UNL1        0.0745
     34 C           4.7733   -3.0245   18.4031 C.3     1  UNL1        0.0277
     35 C           3.7782   -1.9293   18.6484 C.ar    1  UNL1       -0.0220
     36 C           3.7215   -0.7472   17.7266 C.ar    1  UNL1       -0.0020
     37 C           2.7264    0.3480   17.9718 C.ar    1  UNL1        0.0293
     38 C           1.7880    0.2613   19.1388 C.ar    1  UNL1        0.1401
     39 F           0.7929    1.3567   19.3840 F       1  UNL1       -0.2042
     40 C           1.8447   -0.9207   20.0606 C.ar    1  UNL1        0.0293
     41 C           2.8398   -2.0160   19.8153 C.ar    1  UNL1       -0.0020
@<TRIPOS>BOND
     1    21    22    1
     2    22    23    1
     3    22    20    1
     4     1    20    1
     5     1    24    1
     6    24    25    1
     7    25    26    1
     8    25    28    1
     9    28    29    1
    10    29    30    1
    11    30    31    1
    12    31    32    1
    13    32    34    1
    14    34    35    1
    15    35    36   ar
    16    36    37   ar
    17    37    38   ar
    18    38    39    1
    19    38    40   ar
    20    40    41   ar
    21    32    33    1
    22     1     2    1
    23     2     3   am
    24     3     4    2
    25     3     5   am
    26     5     8    1
    27     8     9   ar
    28     9    10   ar
    29    10    11   ar
    30    11    12   ar
    31    12    14    1
    32    14    15   ar
    33    15    16   ar
    34    16    17   ar
    35    17    18   ar
    36    18    19    1
    37    12    13   ar
    38    33    28    1
    39    13     8   ar
    40    41    35   ar
    41    18    14   ar
    42    26    27    1
    43     2     6    1
    44     5     7    1
@<TRIPOS>MOLECULE
*****
 41 44 0 0 0
SMALL
GASTEIGER

@<TRIPOS>ATOM
      1 C          -1.6262    3.8449   20.2819 C.3     1  UNL1        0.0769
      2 N          -1.3458    2.3718   20.2467 N.am    1  UNL1       -0.2902
      3 C           0.0204    1.8598   20.5950 C.2     1  UNL1        0.3044
      4 O           1.1062    2.8210   20.9785 O.2     1  UNL1       -0.2525
      5 N           0.3008    0.3867   20.5598 N.am    1  UNL1       -0.2683
      6 H          -2.0585    1.7409   19.9950 H       1  UNL1        0.1509
      7 H          -0.4118   -0.2442   20.3081 H       1  UNL1        0.1564
      8 C           1.6670   -0.1252   20.9081 C.ar    1  UNL1        0.0517
      9 C           2.0417   -0.3463   22.3437 C.ar    1  UNL1        0.0147
     10 C           3.4079   -0.8583   22.6920 C.ar    1  UNL1        0.0014
     11 C           4.3995   -1.1491   21.6048 C.ar    1  UNL1        0.0032
     12 C           4.0250   -0.9280   20.1692 C.ar    1  UNL1        0.0386
     13 C           2.6587   -0.4161   19.8209 C.ar    1  UNL1        0.0178
     14 C           5.0166   -1.2188   19.0820 C.ar    1  UNL1        0.1839
     15 N           5.8641   -0.2078   18.3681 N.ar    1  UNL1       -0.1081
     16 N           6.7061   -0.9359   17.3627 N.ar    1  UNL1       -0.0227
     17 N           6.3791   -2.3969   17.4552 N.ar    1  UNL1       -0.0429
     18 N           5.3349   -2.5717   18.5178 N.ar    1  UNL1       -0.2113
     19 C           4.7175   -3.8714   18.9418 C.3     1  UNL1        0.1573
     20 C          -1.0969    4.7353   19.1970 C.3     1  UNL1        0.0197
     21 C           0.7256    3.7705   17.6166 C.3     1  UNL1        0.0001
     22 C          -0.7025    4.1510   17.8730 C.3     1  UNL1        0.0016
     23 C          -1.7362    3.9473   16.8053 C.3     1  UNL1        0.0001
     24 C          -2.4361    4.4276   21.4020 C.3     1  UNL1        0.0661
     25 C          -3.4176    3.5692   22.1433 C.3     1  UNL1        0.1738
     26 O          -4.2594    2.5768   21.3972 O.3     1  UNL1       -0.3697
     27 H          -4.8355    2.1079   22.0209 H       1  UNL1        0.2119
     28 N          -3.5575    3.7032   23.6308 N.3     1  UNL1       -0.2511
     29 C          -4.9191    3.6919   24.2601 C.3     1  UNL1        0.0742
     30 C          -5.0589    3.8258   25.7476 C.3     1  UNL1        0.0175
     31 C          -3.8372    3.9710   26.6057 C.3     1  UNL1        0.0031
     32 C          -2.4757    3.9823   25.9764 C.3     1  UNL1        0.0205
     33 C          -2.3358    3.8484   24.4890 C.3     1  UNL1        0.0745
     34 C          -1.2540    4.1275   26.8345 C.3     1  UNL1        0.0277
     35 C          -0.5223    2.9076   27.3103 C.ar    1  UNL1       -0.0220
     36 C          -1.2815    1.6524   27.6239 C.ar    1  UNL1       -0.0020
     37 C          -0.5498    0.4324   28.0996 C.ar    1  UNL1        0.0293
     38 C           0.9410    0.4676   28.2619 C.ar    1  UNL1        0.1401
     39 F           1.6726   -0.7524   28.7377 F       1  UNL1       -0.2042
     40 C           1.7001    1.7227   27.9484 C.ar    1  UNL1        0.0293
     41 C           0.9685    2.9428   27.4725 C.ar    1  UNL1       -0.0020
@<TRIPOS>BOND
     1    21    22    1
     2    22    23    1
     3    22    20    1
     4     1    20    1
     5     1    24    1
     6    24    25    1
     7    25    26    1
     8    25    28    1
     9    28    29    1
    10    29    30    1
    11    30    31    1
    12    31    32    1
    13    32    34    1
    14    34    35    1
    15    35    36   ar
    16    36    37   ar
    17    37    38   ar
    18    38    39    1
    19    38    40   ar
    20    40    41   ar
    21    32    33    1
    22     1     2    1
    23     2     3   am
    24     3     4    2
    25     3     5   am
    26     5     8    1
    27     8     9   ar
    28     9    10   ar
    29    10    11   ar
    30    11    12   ar
    31    12    14    1
    32    14    15   ar
    33    15    16   ar
    34    16    17   ar
    35    17    18   ar
    36    18    19    1
    37    12    13   ar
    38    33    28    1
    39    13     8   ar
    40    41    35   ar
    41    18    14   ar
    42    26    27    1
    43     2     6    1
    44     5     7    1
@<TRIPOS>MOLECULE
*****
 41 44 0 0 0
SMALL
GASTEIGER

@<TRIPOS>ATOM
      1 C           7.8408   -4.3351   25.5935 C.3     1  UNL1        0.0769
      2 N           7.8784   -3.4684   24.3698 N.am    1  UNL1       -0.2902
      3 C           6.8399   -3.6350   23.3005 C.2     1  UNL1        0.3044
      4 O           5.7637   -4.6684   23.4547 O.2     1  UNL1       -0.2525
      5 N           6.8775   -2.7682   22.0768 N.am    1  UNL1       -0.2683
      6 H           8.5848   -2.7901   24.2686 H       1  UNL1        0.1509
      7 H           7.5839   -2.0899   21.9756 H       1  UNL1        0.1564
      8 C           5.8390   -2.9349   21.0075 C.ar    1  UNL1        0.0517
      9 C           5.8871   -4.1237   20.0939 C.ar    1  UNL1        0.0147
     10 C           4.8485   -4.2904   19.0246 C.ar    1  UNL1        0.0014
     11 C           3.7618   -3.2682   18.8686 C.ar    1  UNL1        0.0032
     12 C           3.7137   -2.0794   19.7821 C.ar    1  UNL1        0.0386
     13 C           4.7523   -1.9127   20.8515 C.ar    1  UNL1        0.0178
     14 C           2.6270   -1.0573   19.6261 C.ar    1  UNL1        0.1839
     15 N           1.3785   -0.9647   20.4525 N.ar    1  UNL1       -0.1081
     16 N           0.5779    0.2016   19.9535 N.ar    1  UNL1       -0.0227
     17 N           1.3315    0.8297   18.8189 N.ar    1  UNL1       -0.0429
     18 N           2.5979    0.0517   18.6165 N.ar    1  UNL1       -0.2113
     19 C           3.6504    0.3332   17.5856 C.3     1  UNL1        0.1573
     20 C           8.7270   -5.5418   25.6853 C.3     1  UNL1        0.0197
     21 C           8.5831   -7.0189   23.5528 C.3     1  UNL1        0.0001
     22 C           8.3223   -6.8222   25.0168 C.3     1  UNL1        0.0016
     23 C           7.6568   -7.9059   25.8123 C.3     1  UNL1        0.0001
     24 C           6.9169   -3.9951   26.7253 C.3     1  UNL1        0.0661
     25 C           6.6194   -5.0161   27.7831 C.3     1  UNL1        0.1738
     26 O           5.4515   -5.9436   27.6229 O.3     1  UNL1       -0.3697
     27 H           5.4014   -6.5359   28.3895 H       1  UNL1        0.2119
     28 N           7.4898   -5.1096   29.0012 N.3     1  UNL1       -0.2511
     29 C           8.3589   -6.3139   29.2114 C.3     1  UNL1        0.0742
     30 C           9.2292   -6.4073   30.4294 C.3     1  UNL1        0.0175
     31 C           9.2305   -5.2964   31.4374 C.3     1  UNL1        0.0031
     32 C           8.3614   -4.0921   31.2272 C.3     1  UNL1        0.0205
     33 C           7.4910   -3.9987   30.0092 C.3     1  UNL1        0.0745
     34 C           8.3626   -2.9812   32.2351 C.3     1  UNL1        0.0277
     35 C           7.0918   -2.2460   32.5425 C.ar    1  UNL1       -0.0220
     36 C           5.8069   -3.0034   32.7021 C.ar    1  UNL1       -0.0020
     37 C           4.5361   -2.2682   33.0095 C.ar    1  UNL1        0.0293
     38 C           4.5502   -0.7756   33.1573 C.ar    1  UNL1        0.1401
     39 F           3.2793   -0.0404   33.4648 F       1  UNL1       -0.2042
     40 C           5.8350   -0.0182   32.9978 C.ar    1  UNL1        0.0293
     41 C           7.1059   -0.7534   32.6904 C.ar    1  UNL1       -0.0020
@<TRIPOS>BOND
     1    21    22    1
     2    22    23    1
     3    22    20    1
     4     1    20    1
     5     1    24    1
     6    24    25    1
     7    25    26    1
     8    25    28    1
     9    28    29    1
    10    29    30    1
    11    30    31    1
    12    31    32    1
    13    32    34    1
    14    34    35    1
    15    35    36   ar
    16    36    37   ar
    17    37    38   ar
    18    38    39    1
    19    38    40   ar
    20    40    41   ar
    21    32    33    1
    22     1     2    1
    23     2     3   am
    24     3     4    2
    25     3     5   am
    26     5     8    1
    27     8     9   ar
    28     9    10   ar
    29    10    11   ar
    30    11    12   ar
    31    12    14    1
    32    14    15   ar
    33    15    16   ar
    34    16    17   ar
    35    17    18   ar
    36    18    19    1
    37    12    13   ar
    38    33    28    1
    39    13     8   ar
    40    41    35   ar
    41    18    14   ar
    42    26    27    1
    43     2     6    1
    44     5     7    1
