@<TRIPOS>MOLECULE
*****
 26 28 0 0 0
SMALL
GASTEIGER

@<TRIPOS>ATOM
      1 C          -8.0998  -19.4191   20.2715 C.ar    1  UNL1        0.0527
      2 C          -9.3779  -19.6345   19.5165 C.ar    1  UNL1        0.1091
      3 N         -10.5193  -19.3271   20.4399 N.ar    1  UNL1       -0.2035
      4 C          -9.9466  -18.9217   21.7657 C.ar    1  UNL1        0.2628
      5 S          -8.4513  -18.9785   21.6616 S.2     1  UNL1       -0.0283
      6 C          -5.5293  -19.1336   20.5187 C.2     1  UNL1       -0.0064
      7 C          -6.7136  -19.6106   19.7314 C.2     1  UNL1        0.0052
      8 C          -4.1431  -19.3251   19.9785 C.3     1  UNL1        0.0939
      9 C          -3.6686  -20.6968   19.5999 C.3     1  UNL1        0.0262
     10 C          -1.1053  -16.8307   20.5255 C.3     1  UNL1        0.0946
     11 C          -2.0170  -18.0108   20.6870 C.2     1  UNL1        0.2232
     12 O          -1.7141  -19.0568   21.7186 O.2     1  UNL1       -0.2751
     13 N          -3.2315  -18.1449   19.8170 N.am    1  UNL1       -0.3022
     14 H          -3.4302  -17.4584   19.1400 H       1  UNL1        0.1497
     15 O         -10.7315  -18.5284   22.9819 O.3     1  UNL1       -0.4313
     16 C         -10.0848  -17.7093   24.0594 C.ar    1  UNL1        0.1479
     17 C          -9.7580  -18.3350   25.3829 C.ar    1  UNL1        0.0407
     18 C          -9.1113  -17.5159   26.4604 C.ar    1  UNL1        0.0400
     19 C          -8.7914  -16.0712   26.2143 C.ar    1  UNL1        0.1388
     20 C          -9.1182  -15.4456   24.8907 C.ar    1  UNL1        0.0400
     21 C          -9.7649  -16.2647   23.8133 C.ar    1  UNL1        0.0407
     22 O          -8.1447  -15.2521   27.2918 O.3     1  UNL1       -0.4755
     23 C          -6.6509  -15.2353   27.4265 C.3     1  UNL1        0.2053
     24 C          -5.7872  -15.5382   26.2381 C.3     1  UNL1        0.0438
     25 C          -4.6662  -16.3125   25.6105 C.3     1  UNL1        0.0038
     26 C          -5.4121  -15.2885   24.8073 C.3     1  UNL1        0.0038
@<TRIPOS>BOND
     1    10    11    1
     2    11    12    2
     3    11    13   am
     4    13     8    1
     5     8     9    1
     6     8     6    1
     7     6     7    2
     8     7     1    1
     9     1     2   ar
    10     2     3   ar
    11     3     4   ar
    12     4    15    1
    13    15    16    1
    14    16    17   ar
    15    17    18   ar
    16    18    19   ar
    17    19    22    1
    18    22    23    1
    19    23    24    1
    20    24    25    1
    21    25    26    1
    22    19    20   ar
    23    20    21   ar
    24     4     5   ar
    25     5     1   ar
    26    21    16   ar
    27    26    24    1
    28    13    14    1
@<TRIPOS>MOLECULE
*****
 26 28 0 0 0
SMALL
GASTEIGER

@<TRIPOS>ATOM
      1 C          -5.2540  -15.8105   24.4241 C.ar    1  UNL1        0.0527
      2 C          -5.1831  -15.2829   25.8265 C.ar    1  UNL1        0.1091
      3 N          -6.5747  -15.2657   26.3862 N.ar    1  UNL1       -0.2035
      4 C          -7.5056  -15.7826   25.3297 C.ar    1  UNL1        0.2628
      5 S          -6.6894  -16.1193   24.1171 S.2     1  UNL1       -0.0283
      6 C          -3.8630  -17.3261   22.8373 C.2     1  UNL1       -0.0064
      7 C          -4.0933  -15.9965   23.4923 C.2     1  UNL1        0.0052
      8 C          -2.7023  -17.5121   21.9055 C.3     1  UNL1        0.0939
      9 C          -1.7216  -16.3964   21.6970 C.3     1  UNL1        0.0262
     10 C          -3.4195  -20.6214   19.5459 C.3     1  UNL1        0.0946
     11 C          -3.5994  -19.3197   20.2692 C.2     1  UNL1        0.2232
     12 O          -4.8566  -18.5237   20.0792 O.2     1  UNL1       -0.2751
     13 N          -2.5223  -18.8139   21.1823 N.am    1  UNL1       -0.3022
     14 H          -1.6972  -19.3363   21.3070 H       1  UNL1        0.1497
     15 O          -8.9918  -15.9360   25.4626 O.3     1  UNL1       -0.4313
     16 C          -9.7687  -16.6602   24.4033 C.ar    1  UNL1        0.1479
     17 C         -10.2876  -15.9128   23.2108 C.ar    1  UNL1        0.0407
     18 C         -11.0645  -16.6370   22.1517 C.ar    1  UNL1        0.0400
     19 C         -11.3226  -18.1086   22.2850 C.ar    1  UNL1        0.1388
     20 C         -10.8037  -18.8560   23.4775 C.ar    1  UNL1        0.0400
     21 C         -10.0268  -18.1318   24.5367 C.ar    1  UNL1        0.0407
     22 O         -12.0995  -18.8329   21.2258 O.3     1  UNL1       -0.4755
     23 C         -11.4441  -19.1842   19.9231 C.3     1  UNL1        0.2053
     24 C          -9.9553  -19.3538   19.8543 C.3     1  UNL1        0.0438
     25 C          -8.6080  -19.2819   20.5098 C.3     1  UNL1        0.0038
     26 C          -8.7239  -19.7193   19.0797 C.3     1  UNL1        0.0038
@<TRIPOS>BOND
     1    10    11    1
     2    11    12    2
     3    11    13   am
     4    13     8    1
     5     8     9    1
     6     8     6    1
     7     6     7    2
     8     7     1    1
     9     1     2   ar
    10     2     3   ar
    11     3     4   ar
    12     4    15    1
    13    15    16    1
    14    16    17   ar
    15    17    18   ar
    16    18    19   ar
    17    19    22    1
    18    22    23    1
    19    23    24    1
    20    24    25    1
    21    25    26    1
    22    19    20   ar
    23    20    21   ar
    24     4     5   ar
    25     5     1   ar
    26    21    16   ar
    27    26    24    1
    28    13    14    1
@<TRIPOS>MOLECULE
*****
 26 28 0 0 0
SMALL
GASTEIGER

@<TRIPOS>ATOM
      1 C          -4.7461  -16.2996   24.1411 C.ar    1  UNL1        0.0527
      2 C          -4.5370  -15.7013   25.5007 C.ar    1  UNL1        0.1091
      3 N          -5.8708  -15.2520   26.0195 N.ar    1  UNL1       -0.2035
      4 C          -6.9042  -15.5726   24.9806 C.ar    1  UNL1        0.2628
      5 S          -6.2091  -16.2200   23.8197 S.2     1  UNL1       -0.0283
      6 C          -3.8746  -18.2234   22.6279 C.2     1  UNL1       -0.0064
      7 C          -3.6795  -16.8762   23.2580 C.2     1  UNL1        0.0052
      8 C          -2.8080  -18.7999   21.7449 C.3     1  UNL1        0.0939
      9 C          -3.0563  -20.0832   21.0088 C.3     1  UNL1        0.0262
     10 C           0.4274  -17.2048   20.0905 C.3     1  UNL1        0.0946
     11 C          -0.8875  -17.9114   20.2377 C.2     1  UNL1        0.2232
     12 O          -1.5967  -18.4361   19.0245 O.2     1  UNL1       -0.2751
     13 N          -1.4931  -18.0933   21.5978 N.am    1  UNL1       -0.3022
     14 H          -1.0276  -17.7489   22.3940 H       1  UNL1        0.1497
     15 O          -8.3745  -15.2946   25.0845 O.3     1  UNL1       -0.4313
     16 C          -9.3600  -16.2138   24.4257 C.ar    1  UNL1        0.1479
     17 C          -9.5301  -17.6163   24.9296 C.ar    1  UNL1        0.0407
     18 C         -10.5156  -18.5355   24.2709 C.ar    1  UNL1        0.0400
     19 C         -11.3309  -18.0521   23.1083 C.ar    1  UNL1        0.1388
     20 C         -11.1608  -16.6496   22.6044 C.ar    1  UNL1        0.0400
     21 C         -10.1753  -15.7305   23.2631 C.ar    1  UNL1        0.0407
     22 O         -12.3164  -18.9714   22.4496 O.3     1  UNL1       -0.4755
     23 C         -11.8454  -19.9790   21.4432 C.3     1  UNL1        0.2053
     24 C         -10.8453  -19.5836   20.3975 C.3     1  UNL1        0.0438
     25 C          -9.8803  -19.9629   19.3136 C.3     1  UNL1        0.0038
     26 C         -10.0781  -18.5194   19.6702 C.3     1  UNL1        0.0038
@<TRIPOS>BOND
     1    10    11    1
     2    11    12    2
     3    11    13   am
     4    13     8    1
     5     8     9    1
     6     8     6    1
     7     6     7    2
     8     7     1    1
     9     1     2   ar
    10     2     3   ar
    11     3     4   ar
    12     4    15    1
    13    15    16    1
    14    16    17   ar
    15    17    18   ar
    16    18    19   ar
    17    19    22    1
    18    22    23    1
    19    23    24    1
    20    24    25    1
    21    25    26    1
    22    19    20   ar
    23    20    21   ar
    24     4     5   ar
    25     5     1   ar
    26    21    16   ar
    27    26    24    1
    28    13    14    1
@<TRIPOS>MOLECULE
*****
 26 28 0 0 0
SMALL
GASTEIGER

@<TRIPOS>ATOM
      1 C           4.3953   -1.4658   25.1775 C.ar    1  UNL1        0.0527
      2 C           5.5052   -2.0752   25.9817 C.ar    1  UNL1        0.1091
      3 N           6.2402   -3.0410   25.1002 N.ar    1  UNL1       -0.2035
      4 C           5.5845   -3.0285   23.7511 C.ar    1  UNL1        0.2628
      5 S           4.4443   -2.0550   23.7989 S.2     1  UNL1       -0.0283
      6 C           3.2403   -0.2117   27.1379 C.2     1  UNL1       -0.0064
      7 C           3.4094   -0.4463   25.6660 C.2     1  UNL1        0.0052
      8 C           2.2545    0.8078   27.6264 C.3     1  UNL1        0.0939
      9 C           2.7353    2.1418   28.1157 C.3     1  UNL1        0.0262
     10 C          -1.3198   -0.4113   28.8461 C.3     1  UNL1        0.0946
     11 C           0.1468   -0.0968   28.8467 C.2     1  UNL1        0.2232
     12 O           0.9724   -0.3724   30.0684 O.2     1  UNL1       -0.2751
     13 N           0.7878    0.4933   27.6258 N.am    1  UNL1       -0.3022
     14 H           0.2459    0.6742   26.8240 H       1  UNL1        0.1497
     15 O           5.9968   -3.8460   22.5630 O.3     1  UNL1       -0.4313
     16 C           5.6544   -3.3820   21.1782 C.ar    1  UNL1        0.1479
     17 C           6.4936   -2.3339   20.5094 C.ar    1  UNL1        0.0407
     18 C           6.1512   -1.8701   19.1247 C.ar    1  UNL1        0.0400
     19 C           4.9696   -2.4542   18.4087 C.ar    1  UNL1        0.1388
     20 C           4.1305   -3.5023   19.0774 C.ar    1  UNL1        0.0400
     21 C           4.4728   -3.9662   20.4622 C.ar    1  UNL1        0.0407
     22 O           4.6273   -1.9903   17.0239 O.3     1  UNL1       -0.4755
     23 C           3.9393   -0.6727   16.8230 C.3     1  UNL1        0.2053
     24 C           3.0797   -0.1017   17.9117 C.3     1  UNL1        0.0438
     25 C           1.8109    0.5690   18.3481 C.3     1  UNL1        0.0038
     26 C           2.8596    0.2165   19.3609 C.3     1  UNL1        0.0038
@<TRIPOS>BOND
     1    10    11    1
     2    11    12    2
     3    11    13   am
     4    13     8    1
     5     8     9    1
     6     8     6    1
     7     6     7    2
     8     7     1    1
     9     1     2   ar
    10     2     3   ar
    11     3     4   ar
    12     4    15    1
    13    15    16    1
    14    16    17   ar
    15    17    18   ar
    16    18    19   ar
    17    19    22    1
    18    22    23    1
    19    23    24    1
    20    24    25    1
    21    25    26    1
    22    19    20   ar
    23    20    21   ar
    24     4     5   ar
    25     5     1   ar
    26    21    16   ar
    27    26    24    1
    28    13    14    1
@<TRIPOS>MOLECULE
*****
 26 28 0 0 0
SMALL
GASTEIGER

@<TRIPOS>ATOM
      1 C         -13.1740   -2.4432   19.0605 C.ar    1  UNL1        0.0527
      2 C         -14.1719   -2.8443   20.1063 C.ar    1  UNL1        0.1091
      3 N         -15.2776   -1.8307   20.1048 N.ar    1  UNL1       -0.2035
      4 C         -14.9633   -0.8033   19.0582 C.ar    1  UNL1        0.2628
      5 S         -13.6632   -1.1819   18.4128 S.2     1  UNL1       -0.0283
      6 C         -11.5883   -3.4963   17.2924 C.2     1  UNL1       -0.0064
      7 C         -11.9092   -3.1751   18.7220 C.2     1  UNL1        0.0052
      8 C         -10.3235   -4.2282   16.9538 C.3     1  UNL1        0.0939
      9 C          -9.1816   -3.4959   16.3136 C.3     1  UNL1        0.0262
     10 C          -9.5288   -7.6064   18.8788 C.3     1  UNL1        0.0946
     11 C          -9.6518   -6.1423   18.5770 C.2     1  UNL1        0.2232
     12 O          -9.2259   -5.1281   19.5968 O.2     1  UNL1       -0.2751
     13 N         -10.2006   -5.6924   17.2555 N.am    1  UNL1       -0.3022
     14 H         -10.4800   -6.3581   16.5862 H       1  UNL1        0.1497
     15 O         -15.8017    0.3927   18.7168 O.3     1  UNL1       -0.4313
     16 C         -16.1329    1.4031   19.7749 C.ar    1  UNL1        0.1479
     17 C         -15.5264    2.7738   19.7190 C.ar    1  UNL1        0.0407
     18 C         -15.8576    3.7842   20.7771 C.ar    1  UNL1        0.0400
     19 C         -16.7954    3.4238   21.8909 C.ar    1  UNL1        0.1388
     20 C         -17.4020    2.0531   21.9468 C.ar    1  UNL1        0.0400
     21 C         -17.0707    1.0427   20.8888 C.ar    1  UNL1        0.0407
     22 O         -17.1266    4.4342   22.9490 O.3     1  UNL1       -0.4755
     23 C         -16.4215    4.3932   24.2722 C.3     1  UNL1        0.2053
     24 C         -14.9484    4.6668   24.3459 C.3     1  UNL1        0.0438
     25 C         -13.7023    4.8607   25.1580 C.3     1  UNL1        0.0038
     26 C         -13.6433    4.9467   23.6616 C.3     1  UNL1        0.0038
@<TRIPOS>BOND
     1    10    11    1
     2    11    12    2
     3    11    13   am
     4    13     8    1
     5     8     9    1
     6     8     6    1
     7     6     7    2
     8     7     1    1
     9     1     2   ar
    10     2     3   ar
    11     3     4   ar
    12     4    15    1
    13    15    16    1
    14    16    17   ar
    15    17    18   ar
    16    18    19   ar
    17    19    22    1
    18    22    23    1
    19    23    24    1
    20    24    25    1
    21    25    26    1
    22    19    20   ar
    23    20    21   ar
    24     4     5   ar
    25     5     1   ar
    26    21    16   ar
    27    26    24    1
    28    13    14    1
@<TRIPOS>MOLECULE
*****
 26 28 0 0 0
SMALL
GASTEIGER

@<TRIPOS>ATOM
      1 C           8.6188   -8.4646   27.4134 C.ar    1  UNL1        0.0527
      2 C           8.4285   -7.3691   28.4202 C.ar    1  UNL1        0.1091
      3 N           8.6220   -6.0569   27.7196 N.ar    1  UNL1       -0.2035
      4 C           8.9319   -6.3415   26.2799 C.ar    1  UNL1        0.2628
      5 S           8.9299   -7.8295   26.0906 S.2     1  UNL1       -0.0283
      6 C           7.1828  -10.5519   27.9888 C.2     1  UNL1       -0.0064
      7 C           8.5161   -9.9367   27.6822 C.2     1  UNL1        0.0052
      8 C           7.0801  -12.0240   28.2576 C.3     1  UNL1        0.0939
      9 C           8.2960  -12.8945   28.1404 C.3     1  UNL1        0.0262
     10 C           3.6178  -13.9470   28.0039 C.3     1  UNL1        0.0946
     11 C           4.9365  -13.3454   27.6180 C.2     1  UNL1        0.2232
     12 O           5.4304  -13.4634   26.2066 O.2     1  UNL1       -0.2751
     13 N           5.7613  -12.6257   28.6435 N.am    1  UNL1       -0.3022
     14 H           5.4372  -12.5482   29.5699 H       1  UNL1        0.1497
     15 O           9.1972   -5.3177   25.2161 O.3     1  UNL1       -0.4313
     16 C           8.0533   -4.7005   24.4673 C.ar    1  UNL1        0.1479
     17 C           7.9739   -4.8348   22.9755 C.ar    1  UNL1        0.0407
     18 C           6.8301   -4.2175   22.2267 C.ar    1  UNL1        0.0400
     19 C           5.7657   -3.4660   22.9698 C.ar    1  UNL1        0.1388
     20 C           5.8451   -3.3317   24.4617 C.ar    1  UNL1        0.0400
     21 C           6.9889   -3.9489   25.2104 C.ar    1  UNL1        0.0407
     22 O           4.6218   -2.8487   22.2210 O.3     1  UNL1       -0.4755
     23 C           4.7185   -2.6462   20.7379 C.3     1  UNL1        0.2053
     24 C           4.2786   -3.7330   19.8023 C.3     1  UNL1        0.0438
     25 C           4.6118   -4.8837   18.8997 C.3     1  UNL1        0.0038
     26 C           3.1835   -4.4645   19.0842 C.3     1  UNL1        0.0038
@<TRIPOS>BOND
     1    10    11    1
     2    11    12    2
     3    11    13   am
     4    13     8    1
     5     8     9    1
     6     8     6    1
     7     6     7    2
     8     7     1    1
     9     1     2   ar
    10     2     3   ar
    11     3     4   ar
    12     4    15    1
    13    15    16    1
    14    16    17   ar
    15    17    18   ar
    16    18    19   ar
    17    19    22    1
    18    22    23    1
    19    23    24    1
    20    24    25    1
    21    25    26    1
    22    19    20   ar
    23    20    21   ar
    24     4     5   ar
    25     5     1   ar
    26    21    16   ar
    27    26    24    1
    28    13    14    1
@<TRIPOS>MOLECULE
*****
 26 28 0 0 0
SMALL
GASTEIGER

@<TRIPOS>ATOM
      1 C         -12.4854   -2.7839   18.9999 C.ar    1  UNL1        0.0527
      2 C         -11.4985   -1.6638   18.8539 C.ar    1  UNL1        0.1091
      3 N         -12.2541   -0.4281   18.4640 N.ar    1  UNL1       -0.2035
      4 C         -13.7081   -0.7845   18.3689 C.ar    1  UNL1        0.2628
      5 S         -13.8510   -2.2405   18.7002 S.2     1  UNL1       -0.0283
      6 C         -12.0583   -5.2544   18.3183 C.2     1  UNL1       -0.0064
      7 C         -12.1633   -4.1990   19.3791 C.2     1  UNL1        0.0052
      8 C         -11.7362   -6.6694   18.6974 C.3     1  UNL1        0.0939
      9 C         -10.3089   -7.1292   18.7359 C.3     1  UNL1        0.0262
     10 C         -14.7942   -9.1656   18.2886 C.3     1  UNL1        0.0946
     11 C         -13.6891   -8.2104   17.9480 C.2     1  UNL1        0.2232
     12 O         -13.4316   -7.8408   16.5172 O.2     1  UNL1       -0.2751
     13 N         -12.8414   -7.6247   19.0381 N.am    1  UNL1       -0.3022
     14 H         -13.0103   -7.8673   19.9772 H       1  UNL1        0.1497
     15 O         -14.8232    0.1508   18.0063 O.3     1  UNL1       -0.4313
     16 C         -15.5378    0.9177   19.0794 C.ar    1  UNL1        0.1479
     17 C         -15.3135    2.3939   19.2222 C.ar    1  UNL1        0.0407
     18 C         -16.0280    3.1607   20.2952 C.ar    1  UNL1        0.0400
     19 C         -16.9668    2.4513   21.2254 C.ar    1  UNL1        0.1388
     20 C         -17.1911    0.9751   21.0826 C.ar    1  UNL1        0.0400
     21 C         -16.4766    0.2083   20.0096 C.ar    1  UNL1        0.0407
     22 O         -17.6814    3.2182   22.2985 O.3     1  UNL1       -0.4755
     23 C         -17.1040    3.2886   23.6811 C.3     1  UNL1        0.2053
     24 C         -15.9181    4.1655   23.9549 C.3     1  UNL1        0.0438
     25 C         -15.0973    4.9791   24.9110 C.3     1  UNL1        0.0038
     26 C         -14.6850    4.8706   23.4729 C.3     1  UNL1        0.0038
@<TRIPOS>BOND
     1    10    11    1
     2    11    12    2
     3    11    13   am
     4    13     8    1
     5     8     9    1
     6     8     6    1
     7     6     7    2
     8     7     1    1
     9     1     2   ar
    10     2     3   ar
    11     3     4   ar
    12     4    15    1
    13    15    16    1
    14    16    17   ar
    15    17    18   ar
    16    18    19   ar
    17    19    22    1
    18    22    23    1
    19    23    24    1
    20    24    25    1
    21    25    26    1
    22    19    20   ar
    23    20    21   ar
    24     4     5   ar
    25     5     1   ar
    26    21    16   ar
    27    26    24    1
    28    13    14    1
@<TRIPOS>MOLECULE
*****
 26 28 0 0 0
SMALL
GASTEIGER

@<TRIPOS>ATOM
      1 C           7.4200   -4.2466   25.1654 C.ar    1  UNL1        0.0527
      2 C           6.7486   -2.9670   24.7627 C.ar    1  UNL1        0.1091
      3 N           6.5802   -2.9810   23.2723 N.ar    1  UNL1       -0.2035
      4 C           7.1475   -4.2691   22.7537 C.ar    1  UNL1        0.2628
      5 S           7.6665   -5.0513   23.9237 S.2     1  UNL1       -0.0283
      6 C           7.1779   -5.8837   27.1682 C.2     1  UNL1       -0.0064
      7 C           7.7814   -4.6504   26.5640 C.2     1  UNL1        0.0052
      8 C           7.5393   -6.2876   28.5668 C.3     1  UNL1        0.0939
      9 C           8.6607   -7.2557   28.8019 C.3     1  UNL1        0.0262
     10 C           6.5771   -3.9971   31.6615 C.3     1  UNL1        0.0946
     11 C           7.3370   -4.5614   30.4980 C.2     1  UNL1        0.2232
     12 O           8.6546   -3.9639   30.1019 O.2     1  UNL1       -0.2751
     13 N           6.7794   -5.7233   29.7304 N.am    1  UNL1       -0.3022
     14 H           5.9146   -6.1155   29.9904 H       1  UNL1        0.1497
     15 O           7.1885   -4.6995   21.3174 O.3     1  UNL1       -0.4313
     16 C           6.5124   -3.8700   20.2663 C.ar    1  UNL1        0.1479
     17 C           5.1436   -4.2446   19.7807 C.ar    1  UNL1        0.0407
     18 C           4.4676   -3.4151   18.7296 C.ar    1  UNL1        0.0400
     19 C           5.1604   -2.2109   18.1640 C.ar    1  UNL1        0.1388
     20 C           6.5293   -1.8362   18.6496 C.ar    1  UNL1        0.0400
     21 C           7.2053   -2.6657   19.7007 C.ar    1  UNL1        0.0407
     22 O           4.4844   -1.3813   17.1129 O.3     1  UNL1       -0.4755
     23 C           3.7934   -0.1056   17.4937 C.3     1  UNL1        0.2053
     24 C           2.6795   -0.1270   18.4982 C.3     1  UNL1        0.0438
     25 C           2.0732   -0.6794   19.7540 C.3     1  UNL1        0.0038
     26 C           1.3565    0.3885   18.9820 C.3     1  UNL1        0.0038
@<TRIPOS>BOND
     1    10    11    1
     2    11    12    2
     3    11    13   am
     4    13     8    1
     5     8     9    1
     6     8     6    1
     7     6     7    2
     8     7     1    1
     9     1     2   ar
    10     2     3   ar
    11     3     4   ar
    12     4    15    1
    13    15    16    1
    14    16    17   ar
    15    17    18   ar
    16    18    19   ar
    17    19    22    1
    18    22    23    1
    19    23    24    1
    20    24    25    1
    21    25    26    1
    22    19    20   ar
    23    20    21   ar
    24     4     5   ar
    25     5     1   ar
    26    21    16   ar
    27    26    24    1
    28    13    14    1
@<TRIPOS>MOLECULE
*****
 26 28 0 0 0
SMALL
GASTEIGER

@<TRIPOS>ATOM
      1 C         -14.7355   -0.9703   18.8560 C.ar    1  UNL1        0.0527
      2 C         -15.7304   -1.8408   19.5648 C.ar    1  UNL1        0.1091
      3 N         -16.8188   -0.9590   20.1012 N.ar    1  UNL1       -0.2035
      4 C         -16.4966    0.4566   19.7239 C.ar    1  UNL1        0.2628
      5 S         -15.2091    0.4496   18.9544 S.2     1  UNL1       -0.0283
      6 C         -12.2396   -1.6833   18.9664 C.2     1  UNL1       -0.0064
      7 C         -13.4864   -1.4375   18.1694 C.2     1  UNL1        0.0052
      8 C         -10.9905   -2.1506   18.2798 C.3     1  UNL1        0.0939
      9 C         -10.6074   -1.5770   16.9478 C.3     1  UNL1        0.0262
     10 C          -9.4957   -5.6860   19.2875 C.3     1  UNL1        0.0946
     11 C         -10.3617   -4.6452   18.6421 C.2     1  UNL1        0.2232
     12 O         -11.4649   -5.0581   17.7135 O.2     1  UNL1       -0.2751
     13 N         -10.1245   -3.1914   18.9253 N.am    1  UNL1       -0.3022
     14 H          -9.4004   -2.9204   19.5348 H       1  UNL1        0.1497
     15 O         -17.3178    1.6666   20.0576 O.3     1  UNL1       -0.4313
     16 C         -17.0084    2.4670   21.2880 C.ar    1  UNL1        0.1479
     17 C         -16.1358    3.6832   21.1918 C.ar    1  UNL1        0.0407
     18 C         -15.8264    4.4835   22.4221 C.ar    1  UNL1        0.0400
     19 C         -16.3898    4.0676   23.7487 C.ar    1  UNL1        0.1388
     20 C         -17.2624    2.8514   23.8449 C.ar    1  UNL1        0.0400
     21 C         -17.5717    2.0511   22.6145 C.ar    1  UNL1        0.0407
     22 O         -16.0804    4.8680   24.9790 O.3     1  UNL1       -0.4755
     23 C         -14.8307    4.5894   25.7604 C.3     1  UNL1        0.2053
     24 C         -13.4881    4.8698   25.1529 C.3     1  UNL1        0.0438
     25 C         -12.5892    5.7533   24.3397 C.3     1  UNL1        0.0038
     26 C         -12.0617    4.4719   24.9140 C.3     1  UNL1        0.0038
@<TRIPOS>BOND
     1    10    11    1
     2    11    12    2
     3    11    13   am
     4    13     8    1
     5     8     9    1
     6     8     6    1
     7     6     7    2
     8     7     1    1
     9     1     2   ar
    10     2     3   ar
    11     3     4   ar
    12     4    15    1
    13    15    16    1
    14    16    17   ar
    15    17    18   ar
    16    18    19   ar
    17    19    22    1
    18    22    23    1
    19    23    24    1
    20    24    25    1
    21    25    26    1
    22    19    20   ar
    23    20    21   ar
    24     4     5   ar
    25     5     1   ar
    26    21    16   ar
    27    26    24    1
    28    13    14    1
