@<TRIPOS>MOLECULE
*****
 25 27 0 0 0
SMALL
GASTEIGER

@<TRIPOS>ATOM
      1 N          -7.4094  -19.8536   22.0107 N.am    1  UNL1       -0.3004
      2 C          -8.4251  -19.1084   21.1963 C.2     1  UNL1        0.2252
      3 O          -8.2285  -18.9459   19.7182 O.2     1  UNL1       -0.2750
      4 H          -7.5384  -19.9603   22.9808 H       1  UNL1        0.1497
      5 C          -6.1971  -20.4364   21.3467 C.3     1  UNL1        0.1163
      6 C          -2.5179  -17.9115   20.7652 C.ar    1  UNL1        0.0252
      7 C          -3.2504  -18.4550   19.5744 C.ar    1  UNL1        0.0059
      8 C          -4.4768  -19.2966   19.7682 C.ar    1  UNL1       -0.0021
      9 C          -4.9707  -19.5947   21.1529 C.ar    1  UNL1       -0.0025
     10 C          -4.2382  -19.0513   22.3437 C.ar    1  UNL1       -0.0021
     11 C          -3.0117  -18.2096   22.1498 C.ar    1  UNL1        0.0059
     12 C          -0.0511  -17.6758   19.9847 C.3     1  UNL1        0.0742
     13 S          -1.2915  -17.0698   20.5713 S.3     1  UNL1       -0.1127
     14 C          -9.6374  -18.5256   21.8603 C.3     1  UNL1        0.1154
     15 C          -9.9518  -18.8727   23.2852 C.3     1  UNL1        0.1377
     16 C         -10.7125  -20.0123   22.6748 C.3     1  UNL1        0.0335
     17 C          -9.1253  -17.6606   23.5977 C.3     1  UNL1        0.0613
     18 C          -9.0878  -17.4968   25.0884 C.3     1  UNL1        0.1290
     19 C          -9.1402  -17.4615   26.5870 C.3     1  UNL1        0.0305
     20 C          -8.4250  -16.3772   27.3371 C.3     1  UNL1        0.0025
     21 C          -7.6574  -15.3281   26.5886 C.3     1  UNL1        0.0002
     22 C          -7.6051  -15.3634   25.0899 C.3     1  UNL1        0.0025
     23 C          -8.3203  -16.4477   24.3398 C.3     1  UNL1        0.0305
     24 O          -9.8912  -18.6077   25.6971 O.3     1  UNL1       -0.2256
     25 O         -10.4252  -19.4581   24.5827 O.3     1  UNL1       -0.2251
@<TRIPOS>BOND
     1    12    13    1
     2    13     6    1
     3     6     7   ar
     4     7     8   ar
     5     8     9   ar
     6     9     5    1
     7     5     1    1
     8     1     2   am
     9     2     3    2
    10     2    14    1
    11    14    15    1
    12    15    16    1
    13    15    17    1
    14    17    18    1
    15    18    19    1
    16    19    20    1
    17    20    21    1
    18    21    22    1
    19    22    23    1
    20    18    24    1
    21    24    25    1
    22     9    10   ar
    23    10    11   ar
    24    11     6   ar
    25    25    15    1
    26    23    18    1
    27     1     4    1
@<TRIPOS>MOLECULE
*****
 25 27 0 0 0
SMALL
GASTEIGER

@<TRIPOS>ATOM
      1 N          -9.0866  -19.2776   21.9464 N.am    1  UNL1       -0.3004
      2 C          -9.8077  -17.9623   21.9364 C.2     1  UNL1        0.2252
      3 O          -9.5787  -16.9899   20.8176 O.2     1  UNL1       -0.2750
      4 H          -9.2369  -19.9159   22.6807 H       1  UNL1        0.1497
      5 C          -8.1364  -19.6204   20.8375 C.3     1  UNL1        0.1163
      6 C          -3.6969  -19.3004   21.4992 C.ar    1  UNL1        0.0252
      7 C          -4.6439  -18.5558   22.3928 C.ar    1  UNL1        0.0059
      8 C          -6.1238  -18.6625   22.1723 C.ar    1  UNL1       -0.0021
      9 C          -6.6566  -19.5137   21.0580 C.ar    1  UNL1       -0.0025
     10 C          -5.7095  -20.2584   20.1644 C.ar    1  UNL1       -0.0021
     11 C          -4.2296  -20.1517   20.3851 C.ar    1  UNL1        0.0059
     12 C          -1.3997  -18.2550   20.8828 C.3     1  UNL1        0.0742
     13 S          -2.2170  -19.1938   21.7198 S.3     1  UNL1       -0.1127
     14 C         -10.7580  -17.6196   23.0453 C.3     1  UNL1        0.1154
     15 C         -10.4059  -17.9535   24.4646 C.3     1  UNL1        0.1377
     16 C         -11.5358  -18.9332   24.3488 C.3     1  UNL1        0.0335
     17 C          -9.3496  -16.9039   24.2837 C.3     1  UNL1        0.0613
     18 C          -8.5808  -16.7939   25.5671 C.3     1  UNL1        0.1290
     19 C          -7.9063  -16.7962   26.9068 C.3     1  UNL1        0.0305
     20 C          -6.7580  -15.8677   27.1699 C.3     1  UNL1        0.0025
     21 C          -6.2842  -14.9369   26.0933 C.3     1  UNL1        0.0002
     22 C          -6.9588  -14.9346   24.7535 C.3     1  UNL1        0.0025
     23 C          -8.1070  -15.8631   24.4904 C.3     1  UNL1        0.0305
     24 O          -9.1620  -17.7755   26.5411 O.3     1  UNL1       -0.2256
     25 O         -10.2900  -18.4922   25.8598 O.3     1  UNL1       -0.2251
@<TRIPOS>BOND
     1    12    13    1
     2    13     6    1
     3     6     7   ar
     4     7     8   ar
     5     8     9   ar
     6     9     5    1
     7     5     1    1
     8     1     2   am
     9     2     3    2
    10     2    14    1
    11    14    15    1
    12    15    16    1
    13    15    17    1
    14    17    18    1
    15    18    19    1
    16    19    20    1
    17    20    21    1
    18    21    22    1
    19    22    23    1
    20    18    24    1
    21    24    25    1
    22     9    10   ar
    23    10    11   ar
    24    11     6   ar
    25    25    15    1
    26    23    18    1
    27     1     4    1
@<TRIPOS>MOLECULE
*****
 25 27 0 0 0
SMALL
GASTEIGER

@<TRIPOS>ATOM
      1 N          -6.6130  -20.5959   21.1311 N.am    1  UNL1       -0.3004
      2 C          -7.7116  -19.6893   20.6604 C.2     1  UNL1        0.2252
      3 O          -7.6115  -19.0227   19.3205 O.2     1  UNL1       -0.2750
      4 H          -6.6787  -21.0334   22.0106 H       1  UNL1        0.1497
      5 C          -5.4144  -20.8356   20.2618 C.3     1  UNL1        0.1163
      6 C          -1.9451  -17.9718   20.3732 C.ar    1  UNL1        0.0252
      7 C          -2.0998  -19.0047   21.4498 C.ar    1  UNL1        0.0059
      8 C          -3.2562  -19.9593   21.4126 C.ar    1  UNL1       -0.0021
      9 C          -4.2580  -19.8810   20.2989 C.ar    1  UNL1       -0.0025
     10 C          -4.1033  -18.8481   19.2223 C.ar    1  UNL1       -0.0021
     11 C          -2.9468  -17.8934   19.2595 C.ar    1  UNL1        0.0059
     12 C           0.5904  -17.4959   20.0654 C.3     1  UNL1        0.0742
     13 S          -0.7886  -17.0172   20.4103 S.3     1  UNL1       -0.1127
     14 C          -8.9103  -19.4496   21.5298 C.3     1  UNL1        0.1154
     15 C          -9.1875  -18.0751   22.0624 C.3     1  UNL1        0.1377
     16 C         -10.5874  -18.3486   21.5985 C.3     1  UNL1        0.0335
     17 C          -7.7296  -18.0888   22.4150 C.3     1  UNL1        0.0613
     18 C          -7.3983  -16.7799   23.0687 C.3     1  UNL1        0.1290
     19 C          -7.2179  -15.4323   23.7021 C.3     1  UNL1        0.0305
     20 C          -5.8702  -15.0188   24.2144 C.3     1  UNL1        0.0025
     21 C          -4.7028  -15.9529   24.0932 C.3     1  UNL1        0.0002
     22 C          -4.8832  -17.3005   23.4598 C.3     1  UNL1        0.0025
     23 C          -6.2309  -17.7140   22.9475 C.3     1  UNL1        0.0305
     24 O          -8.6515  -15.9572   23.1200 O.3     1  UNL1       -0.2256
     25 O          -9.7573  -16.7576   22.4981 O.3     1  UNL1       -0.2251
@<TRIPOS>BOND
     1    12    13    1
     2    13     6    1
     3     6     7   ar
     4     7     8   ar
     5     8     9   ar
     6     9     5    1
     7     5     1    1
     8     1     2   am
     9     2     3    2
    10     2    14    1
    11    14    15    1
    12    15    16    1
    13    15    17    1
    14    17    18    1
    15    18    19    1
    16    19    20    1
    17    20    21    1
    18    21    22    1
    19    22    23    1
    20    18    24    1
    21    24    25    1
    22     9    10   ar
    23    10    11   ar
    24    11     6   ar
    25    25    15    1
    26    23    18    1
    27     1     4    1
@<TRIPOS>MOLECULE
*****
 25 27 0 0 0
SMALL
GASTEIGER

@<TRIPOS>ATOM
      1 N         -13.3025   -8.0648   18.9831 N.am    1  UNL1       -0.3004
      2 C         -12.2146   -7.3203   18.2673 C.2     1  UNL1        0.2252
      3 O         -12.1612   -7.3284   16.7683 O.2     1  UNL1       -0.2750
      4 H         -13.3375   -8.0594   19.9670 H       1  UNL1        0.1497
      5 C         -14.3368   -8.8174   18.1999 C.3     1  UNL1        0.1163
      6 C         -18.6600   -8.6476   19.4372 C.ar    1  UNL1        0.0252
      7 C         -17.7510   -7.4902   19.7270 C.ar    1  UNL1        0.0059
      8 C         -16.3099   -7.5468   19.3146 C.ar    1  UNL1       -0.0021
      9 C         -15.7779   -8.7608   18.6123 C.ar    1  UNL1       -0.0025
     10 C         -16.6870   -9.9182   18.3225 C.ar    1  UNL1       -0.0021
     11 C         -18.1281   -9.8616   18.7350 C.ar    1  UNL1        0.0059
     12 C         -20.4629   -8.5247   21.3039 C.3     1  UNL1        0.0742
     13 S         -20.1011   -8.5909   19.8497 S.3     1  UNL1       -0.1127
     14 C         -11.1801   -6.5676   19.0506 C.3     1  UNL1        0.1154
     15 C         -11.0042   -5.0933   18.8376 C.3     1  UNL1        0.1377
     16 C          -9.5976   -5.4722   18.4800 C.3     1  UNL1        0.0335
     17 C         -12.4475   -5.0225   19.2397 C.3     1  UNL1        0.0613
     18 C         -12.8697   -3.5836   19.2005 C.3     1  UNL1        0.1290
     19 C         -13.1451   -2.1116   19.1160 C.3     1  UNL1        0.0305
     20 C         -14.5100   -1.5839   19.4453 C.3     1  UNL1        0.0025
     21 C         -15.5995   -2.5282   19.8591 C.3     1  UNL1        0.0002
     22 C         -15.3241   -4.0003   19.9437 C.3     1  UNL1        0.0025
     23 C         -13.9591   -4.5279   19.6143 C.3     1  UNL1        0.0305
     24 O         -11.6872   -2.7651   18.7742 O.3     1  UNL1       -0.2256
     25 O         -10.5342   -3.6981   18.5499 O.3     1  UNL1       -0.2251
@<TRIPOS>BOND
     1    12    13    1
     2    13     6    1
     3     6     7   ar
     4     7     8   ar
     5     8     9   ar
     6     9     5    1
     7     5     1    1
     8     1     2   am
     9     2     3    2
    10     2    14    1
    11    14    15    1
    12    15    16    1
    13    15    17    1
    14    17    18    1
    15    18    19    1
    16    19    20    1
    17    20    21    1
    18    21    22    1
    19    22    23    1
    20    18    24    1
    21    24    25    1
    22     9    10   ar
    23    10    11   ar
    24    11     6   ar
    25    25    15    1
    26    23    18    1
    27     1     4    1
@<TRIPOS>MOLECULE
*****
 25 27 0 0 0
SMALL
GASTEIGER

@<TRIPOS>ATOM
      1 N         -11.5931   -6.4976   17.1445 N.am    1  UNL1       -0.3004
      2 C         -10.4577   -6.3484   18.1134 C.2     1  UNL1        0.2252
      3 O         -10.1067   -7.4768   19.0371 O.2     1  UNL1       -0.2750
      4 H         -11.8234   -5.7569   16.5382 H       1  UNL1        0.1497
      5 C         -12.3774   -7.7754   17.0994 C.3     1  UNL1        0.1163
      6 C         -16.2743   -8.1032   19.3257 C.ar    1  UNL1        0.0252
      7 C         -15.4894   -6.8257   19.3717 C.ar    1  UNL1        0.0059
      8 C         -14.1905   -6.7165   18.6296 C.ar    1  UNL1       -0.0021
      9 C         -13.6764   -7.8846   17.8415 C.ar    1  UNL1       -0.0025
     10 C         -14.4612   -9.1621   17.7955 C.ar    1  UNL1       -0.0021
     11 C         -15.7602   -9.2713   18.5377 C.ar    1  UNL1        0.0059
     12 C         -18.6088   -9.2032   19.6254 C.3     1  UNL1        0.0742
     13 S         -17.5733   -8.2124   20.0679 S.3     1  UNL1       -0.1127
     14 C          -9.6733   -5.0705   18.1586 C.3     1  UNL1        0.1154
     15 C         -10.2200   -3.8318   17.5132 C.3     1  UNL1        0.1377
     16 C          -9.0708   -4.0081   16.5655 C.3     1  UNL1        0.0335
     17 C         -11.2549   -3.9144   18.5959 C.3     1  UNL1        0.0613
     18 C         -12.2012   -2.7636   18.4215 C.3     1  UNL1        0.1290
     19 C         -13.0605   -1.5709   18.1232 C.3     1  UNL1        0.0305
     20 C         -14.2482   -1.2673   18.9875 C.3     1  UNL1        0.0025
     21 C         -14.5766   -2.1564   20.1501 C.3     1  UNL1        0.0002
     22 C         -13.7173   -3.3490   20.4485 C.3     1  UNL1        0.0025
     23 C         -12.5296   -3.6526   19.5842 C.3     1  UNL1        0.0305
     24 O         -11.7510   -1.9697   17.2311 O.3     1  UNL1       -0.2256
     25 O         -10.5266   -2.6299   16.6697 O.3     1  UNL1       -0.2251
@<TRIPOS>BOND
     1    12    13    1
     2    13     6    1
     3     6     7   ar
     4     7     8   ar
     5     8     9   ar
     6     9     5    1
     7     5     1    1
     8     1     2   am
     9     2     3    2
    10     2    14    1
    11    14    15    1
    12    15    16    1
    13    15    17    1
    14    17    18    1
    15    18    19    1
    16    19    20    1
    17    20    21    1
    18    21    22    1
    19    22    23    1
    20    18    24    1
    21    24    25    1
    22     9    10   ar
    23    10    11   ar
    24    11     6   ar
    25    25    15    1
    26    23    18    1
    27     1     4    1
@<TRIPOS>MOLECULE
*****
 25 27 0 0 0
SMALL
GASTEIGER

@<TRIPOS>ATOM
      1 N         -13.1793   -8.0679   18.7687 N.am    1  UNL1       -0.3004
      2 C         -12.5063   -7.8026   17.4547 C.2     1  UNL1        0.2252
      3 O         -13.3235   -7.6964   16.2014 O.2     1  UNL1       -0.2750
      4 H         -12.6429   -8.1376   19.5913 H       1  UNL1        0.1497
      5 C         -14.6696   -8.2271   18.8294 C.3     1  UNL1        0.1163
      6 C         -17.2797   -4.6636   19.6890 C.ar    1  UNL1        0.0252
      7 C         -15.7869   -4.5167   19.6867 C.ar    1  UNL1        0.0059
      8 C         -14.9169   -5.7045   19.4002 C.ar    1  UNL1       -0.0021
      9 C         -15.5396   -7.0392   19.1159 C.ar    1  UNL1       -0.0025
     10 C         -17.0324   -7.1861   19.1183 C.ar    1  UNL1       -0.0021
     11 C         -17.9024   -5.9982   19.4048 C.ar    1  UNL1        0.0059
     12 C         -17.6772   -2.0970   19.6207 C.3     1  UNL1        0.0742
     13 S         -18.1497   -3.4757   19.9756 S.3     1  UNL1       -0.1127
     14 C         -11.0159   -7.6435   17.3940 C.3     1  UNL1        0.1154
     15 C         -10.3357   -6.6182   18.2519 C.3     1  UNL1        0.1377
     16 C          -9.4958   -7.7782   18.6982 C.3     1  UNL1        0.0335
     17 C         -11.3177   -5.6726   17.6262 C.3     1  UNL1        0.0613
     18 C         -11.0688   -4.3053   18.1907 C.3     1  UNL1        0.1290
     19 C         -10.7049   -3.0030   18.8401 C.3     1  UNL1        0.0305
     20 C         -11.4594   -1.7545   18.4913 C.3     1  UNL1        0.0025
     21 C         -12.5778   -1.8081   17.4931 C.3     1  UNL1        0.0002
     22 C         -12.9417   -3.1103   16.8437 C.3     1  UNL1        0.0025
     23 C         -12.1872   -4.3589   17.1926 C.3     1  UNL1        0.0305
     24 O          -9.9330   -4.4059   19.1653 O.3     1  UNL1       -0.2256
     25 O          -9.4798   -5.8354   19.2031 O.3     1  UNL1       -0.2251
@<TRIPOS>BOND
     1    12    13    1
     2    13     6    1
     3     6     7   ar
     4     7     8   ar
     5     8     9   ar
     6     9     5    1
     7     5     1    1
     8     1     2   am
     9     2     3    2
    10     2    14    1
    11    14    15    1
    12    15    16    1
    13    15    17    1
    14    17    18    1
    15    18    19    1
    16    19    20    1
    17    20    21    1
    18    21    22    1
    19    22    23    1
    20    18    24    1
    21    24    25    1
    22     9    10   ar
    23    10    11   ar
    24    11     6   ar
    25    25    15    1
    26    23    18    1
    27     1     4    1
@<TRIPOS>MOLECULE
*****
 25 27 0 0 0
SMALL
GASTEIGER

@<TRIPOS>ATOM
      1 N         -10.5408  -17.7764   21.2048 N.am    1  UNL1       -0.3004
      2 C         -10.4112  -19.1688   20.6620 C.2     1  UNL1        0.2252
      3 O         -10.9307  -20.3331   21.4521 O.2     1  UNL1       -0.2750
      4 H         -10.1998  -17.0122   20.6862 H       1  UNL1        0.1497
      5 C         -11.1900  -17.5485   22.5376 C.3     1  UNL1        0.1163
      6 C          -8.6700  -16.5214   26.1215 C.ar    1  UNL1        0.0252
      7 C          -8.7974  -15.5453   24.9897 C.ar    1  UNL1        0.0059
      8 C          -9.6374  -15.8877   23.7951 C.ar    1  UNL1       -0.0021
      9 C         -10.3500  -17.2061   23.7323 C.ar    1  UNL1       -0.0025
     10 C         -10.2227  -18.1822   24.8641 C.ar    1  UNL1       -0.0021
     11 C          -9.3826  -17.8397   26.0588 C.ar    1  UNL1        0.0059
     12 C          -6.5841  -15.3609   27.1473 C.3     1  UNL1        0.0742
     13 S          -7.8300  -16.1789   27.3162 S.3     1  UNL1       -0.1127
     14 C          -9.7619  -19.3967   19.3291 C.3     1  UNL1        0.1154
     15 C          -8.4876  -20.1829   19.2403 C.3     1  UNL1        0.1377
     16 C          -9.2079  -20.9290   18.1565 C.3     1  UNL1        0.0335
     17 C          -8.0337  -19.2725   20.3426 C.3     1  UNL1        0.0613
     18 C          -6.6293  -19.6520   20.7086 C.3     1  UNL1        0.1290
     19 C          -5.2349  -20.1424   20.9638 C.3     1  UNL1        0.0305
     20 C          -4.3926  -19.4912   22.0203 C.3     1  UNL1        0.0025
     21 C          -4.9446  -18.3497   22.8217 C.3     1  UNL1        0.0002
     22 C          -6.3390  -17.8593   22.5665 C.3     1  UNL1        0.0025
     23 C          -7.1813  -18.5105   21.5099 C.3     1  UNL1        0.0305
     24 O          -6.2153  -20.7970   19.8324 O.3     1  UNL1       -0.2256
     25 O          -7.3638  -21.1252   18.9249 O.3     1  UNL1       -0.2251
@<TRIPOS>BOND
     1    12    13    1
     2    13     6    1
     3     6     7   ar
     4     7     8   ar
     5     8     9   ar
     6     9     5    1
     7     5     1    1
     8     1     2   am
     9     2     3    2
    10     2    14    1
    11    14    15    1
    12    15    16    1
    13    15    17    1
    14    17    18    1
    15    18    19    1
    16    19    20    1
    17    20    21    1
    18    21    22    1
    19    22    23    1
    20    18    24    1
    21    24    25    1
    22     9    10   ar
    23    10    11   ar
    24    11     6   ar
    25    25    15    1
    26    23    18    1
    27     1     4    1
@<TRIPOS>MOLECULE
*****
 25 27 0 0 0
SMALL
GASTEIGER

@<TRIPOS>ATOM
      1 N         -10.7437   -2.6837   19.0777 N.am    1  UNL1       -0.3004
      2 C         -10.6212   -3.9526   18.2872 C.2     1  UNL1        0.2252
      3 O         -10.8436   -3.9367   16.8039 O.2     1  UNL1       -0.2750
      4 H         -10.5977   -2.6942   20.0513 H       1  UNL1        0.1497
      5 C         -11.0886   -1.3988   18.3848 C.3     1  UNL1        0.1163
      6 C         -15.2448    0.2933   18.7207 C.ar    1  UNL1        0.0252
      7 C         -14.9838   -1.1350   19.0972 C.ar    1  UNL1        0.0059
      8 C         -13.5985   -1.6991   18.9852 C.ar    1  UNL1       -0.0021
      9 C         -12.4740   -0.8348   18.4968 C.ar    1  UNL1       -0.0025
     10 C         -12.7349    0.5936   18.1203 C.ar    1  UNL1       -0.0021
     11 C         -14.1204    1.1576   18.2323 C.ar    1  UNL1        0.0059
     12 C         -17.5891    0.2964   19.8405 C.3     1  UNL1        0.0742
     13 S         -16.6302    0.8573   18.8327 S.3     1  UNL1       -0.1127
     14 C         -10.2763   -5.2376   18.9801 C.3     1  UNL1        0.1154
     15 C         -10.9701   -6.5092   18.5909 C.3     1  UNL1        0.1377
     16 C          -9.5890   -6.9656   18.2243 C.3     1  UNL1        0.0335
     17 C         -12.2061   -5.7869   19.0388 C.3     1  UNL1        0.0613
     18 C         -13.3752   -6.7076   18.8497 C.3     1  UNL1        0.1290
     19 C         -14.4416   -7.7338   18.6060 C.3     1  UNL1        0.0305
     20 C         -15.8728   -7.4186   18.9256 C.3     1  UNL1        0.0025
     21 C         -16.2376   -6.0770   19.4889 C.3     1  UNL1        0.0002
     22 C         -15.1711   -5.0508   19.7325 C.3     1  UNL1        0.0025
     23 C         -13.7399   -5.3661   19.4130 C.3     1  UNL1        0.0305
     24 O         -12.8617   -7.9989   18.2850 O.3     1  UNL1       -0.2256
     25 O         -11.3752   -7.8763   18.1250 O.3     1  UNL1       -0.2251
@<TRIPOS>BOND
     1    12    13    1
     2    13     6    1
     3     6     7   ar
     4     7     8   ar
     5     8     9   ar
     6     9     5    1
     7     5     1    1
     8     1     2   am
     9     2     3    2
    10     2    14    1
    11    14    15    1
    12    15    16    1
    13    15    17    1
    14    17    18    1
    15    18    19    1
    16    19    20    1
    17    20    21    1
    18    21    22    1
    19    22    23    1
    20    18    24    1
    21    24    25    1
    22     9    10   ar
    23    10    11   ar
    24    11     6   ar
    25    25    15    1
    26    23    18    1
    27     1     4    1
@<TRIPOS>MOLECULE
*****
 25 27 0 0 0
SMALL
GASTEIGER

@<TRIPOS>ATOM
      1 N         -15.6910   -3.2045   19.9951 N.am    1  UNL1       -0.3004
      2 C         -14.6932   -2.6590   19.0168 C.2     1  UNL1        0.2252
      3 O         -14.9408   -2.7869   17.5430 O.2     1  UNL1       -0.2750
      4 H         -15.5285   -3.1205   20.9625 H       1  UNL1        0.1497
      5 C         -16.9363   -3.8778   19.4995 C.3     1  UNL1        0.1163
      6 C         -17.2180   -8.3690   19.4997 C.ar    1  UNL1        0.0252
      7 C         -18.4610   -7.5396   19.6297 C.ar    1  UNL1        0.0059
      8 C         -18.3671   -6.0425   19.6296 C.ar    1  UNL1       -0.0021
      9 C         -17.0302   -5.3749   19.4996 C.ar    1  UNL1       -0.0025
     10 C         -15.7872   -6.2043   19.3696 C.ar    1  UNL1       -0.0021
     11 C         -15.8811   -7.7014   19.3697 C.ar    1  UNL1        0.0059
     12 C         -16.6909  -10.6566   18.3866 C.3     1  UNL1        0.0742
     13 S         -17.3119   -9.8661   19.4999 S.3     1  UNL1       -0.1127
     14 C         -13.4478   -1.9856   19.5125 C.3     1  UNL1        0.1154
     15 C         -12.1739   -2.0939   18.7283 C.3     1  UNL1        0.1377
     16 C         -12.3289   -0.6103   18.5711 C.3     1  UNL1        0.0335
     17 C         -12.2851   -3.5549   19.0494 C.3     1  UNL1        0.0613
     18 C         -11.1122   -4.2562   18.4308 C.3     1  UNL1        0.1290
     19 C          -9.8937   -4.8167   17.7592 C.3     1  UNL1        0.0305
     20 C          -9.6073   -6.2873   17.8314 C.3     1  UNL1        0.0025
     21 C         -10.5393   -7.1974   18.5751 C.3     1  UNL1        0.0002
     22 C         -11.7578   -6.6368   19.2466 C.3     1  UNL1        0.0025
     23 C         -12.0443   -5.1662   19.1745 C.3     1  UNL1        0.0305
     24 O         -10.2761   -3.2285   17.7273 O.3     1  UNL1       -0.2256
     25 O         -10.9322   -1.8921   17.9112 O.3     1  UNL1       -0.2251
@<TRIPOS>BOND
     1    12    13    1
     2    13     6    1
     3     6     7   ar
     4     7     8   ar
     5     8     9   ar
     6     9     5    1
     7     5     1    1
     8     1     2   am
     9     2     3    2
    10     2    14    1
    11    14    15    1
    12    15    16    1
    13    15    17    1
    14    17    18    1
    15    18    19    1
    16    19    20    1
    17    20    21    1
    18    21    22    1
    19    22    23    1
    20    18    24    1
    21    24    25    1
    22     9    10   ar
    23    10    11   ar
    24    11     6   ar
    25    25    15    1
    26    23    18    1
    27     1     4    1
