@<TRIPOS>MOLECULE
*****
 30 32 0 0 0
SMALL
GASTEIGER

@<TRIPOS>ATOM
      1 N          -8.0963  -18.4349   22.7364 N.am    1  UNL1       -0.2684
      2 C          -9.0053  -17.2509   22.5897 C.2     1  UNL1        0.2418
      3 O          -8.8531  -16.3293   21.4160 O.2     1  UNL1       -0.2733
      4 H          -8.1962  -19.0398   23.5067 H       1  UNL1        0.1563
      5 C          -8.5792  -19.6501   19.7464 C.3     1  UNL1        0.1552
      6 N          -7.2570  -19.2561   20.3350 N.ar    1  UNL1       -0.2356
      7 N          -5.9246  -19.3513   19.6527 N.ar    1  UNL1       -0.1681
      8 C          -4.8791  -18.8517   20.6053 C.ar    1  UNL1        0.1038
      9 C          -5.5654  -18.4476   21.8763 C.ar    1  UNL1        0.0549
     10 C          -7.0350  -18.6975   21.7093 C.ar    1  UNL1        0.1327
     11 C          -3.4060  -18.7704   20.3343 C.ar    1  UNL1        0.0225
     12 C          -2.9087  -18.1045   19.0856 C.ar    1  UNL1        0.0222
     13 C          -1.4357  -18.0233   18.8147 C.ar    1  UNL1        0.0989
     14 N          -0.4599  -18.6079   19.7925 N.ar    1  UNL1       -0.2423
     15 C          -0.9571  -19.2737   21.0412 C.ar    1  UNL1        0.0989
     16 C          -2.4302  -19.3550   21.3121 C.ar    1  UNL1        0.0222
     17 C         -10.0666  -16.9883   23.6167 C.3     1  UNL1        0.1365
     18 N         -11.3430  -17.7758   23.5943 N.3     1  UNL1       -0.2863
     19 H         -11.6983  -17.7880   24.5504 H       1  UNL1        0.1240
     20 C         -12.4781  -17.3396   22.7161 C.3     1  UNL1        0.1113
     21 C         -12.3389  -17.4025   21.2239 C.2     1  UNL1        0.0663
     22 O         -12.8618  -16.2826   20.3739 O.co2   1  UNL1       -0.5477
     23 O         -11.6769  -18.5854   20.5816 O.co2   1  UNL1       -0.5477
     24 C          -9.8515  -15.9383   24.6660 C.3     1  UNL1        0.0514
     25 C          -8.4937  -15.7550   25.2763 C.ar    1  UNL1       -0.0203
     26 C          -8.2731  -16.0746   26.7252 C.ar    1  UNL1       -0.0042
     27 C          -6.9153  -15.8913   27.3355 C.ar    1  UNL1       -0.0003
     28 C          -5.7778  -15.3884   26.4969 C.ar    1  UNL1       -0.0000
     29 C          -5.9982  -15.0688   25.0481 C.ar    1  UNL1       -0.0003
     30 C          -7.3562  -15.2521   24.4378 C.ar    1  UNL1       -0.0042
@<TRIPOS>UNITY_ATOM_ATTR
22 1
charge -1
@<TRIPOS>BOND
     1     5     6    1
     2     6     7   ar
     3     7     8   ar
     4     8    11    1
     5    11    12   ar
     6    12    13   ar
     7    13    14   ar
     8    14    15   ar
     9    15    16   ar
    10     8     9   ar
    11     9    10   ar
    12    10     1    1
    13     1     2   am
    14     2     3    2
    15     2    17    1
    16    17    24    1
    17    24    25    1
    18    25    26   ar
    19    26    27   ar
    20    27    28   ar
    21    28    29   ar
    22    29    30   ar
    23    17    18    1
    24    18    20    1
    25    20    21    1
    26    21    22   ar
    27    21    23   ar
    28    10     6   ar
    29    30    25   ar
    30    16    11   ar
    31     1     4    1
    32    18    19    1
@<TRIPOS>MOLECULE
*****
 30 32 0 0 0
SMALL
GASTEIGER

@<TRIPOS>ATOM
      1 N          -8.2179  -18.2258   22.6999 N.am    1  UNL1       -0.2684
      2 C          -9.0182  -16.9665   22.5464 C.2     1  UNL1        0.2418
      3 O          -8.7538  -16.0458   21.3921 O.2     1  UNL1       -0.2733
      4 H          -8.3914  -18.8301   23.4575 H       1  UNL1        0.1563
      5 C          -8.7005  -19.5753   19.7680 C.3     1  UNL1        0.1552
      6 N          -7.3749  -19.1847   20.3514 N.ar    1  UNL1       -0.2356
      7 N          -6.0385  -19.3458   19.6897 N.ar    1  UNL1       -0.1681
      8 C          -4.9907  -18.8251   20.6283 C.ar    1  UNL1        0.1038
      9 C          -5.6795  -18.3422   21.8701 C.ar    1  UNL1        0.0549
     10 C          -7.1531  -18.5644   21.6991 C.ar    1  UNL1        0.1327
     11 C          -3.5133  -18.7930   20.3703 C.ar    1  UNL1        0.0225
     12 C          -2.5726  -19.4869   21.3101 C.ar    1  UNL1        0.0222
     13 C          -1.0953  -19.4548   21.0521 C.ar    1  UNL1        0.0989
     14 N          -0.5588  -18.7287   19.8542 N.ar    1  UNL1       -0.2423
     15 C          -1.4996  -18.0347   18.9143 C.ar    1  UNL1        0.0989
     16 C          -2.9768  -18.0669   19.1724 C.ar    1  UNL1        0.0222
     17 C         -10.0830  -16.6279   23.5472 C.3     1  UNL1        0.1365
     18 N         -11.4307  -17.2803   23.4581 N.3     1  UNL1       -0.2863
     19 H         -11.5977  -17.4775   22.4714 H       1  UNL1        0.1240
     20 C         -11.6987  -18.5529   24.2054 C.3     1  UNL1        0.1113
     21 C         -10.7052  -19.6757   24.1551 C.2     1  UNL1        0.0663
     22 O          -9.9571  -20.0713   25.3936 O.co2   1  UNL1       -0.5477
     23 O         -10.4599  -20.4028   22.8663 O.co2   1  UNL1       -0.5477
     24 C          -9.8000  -15.6369   24.6371 C.3     1  UNL1        0.0514
     25 C          -8.4442  -15.5927   25.2770 C.ar    1  UNL1       -0.0203
     26 C          -7.2539  -15.1438   24.4822 C.ar    1  UNL1       -0.0042
     27 C          -5.8980  -15.0995   25.1221 C.ar    1  UNL1       -0.0003
     28 C          -5.7323  -15.5042   26.5570 C.ar    1  UNL1       -0.0000
     29 C          -6.9226  -15.9531   27.3518 C.ar    1  UNL1       -0.0003
     30 C          -8.2785  -15.9973   26.7119 C.ar    1  UNL1       -0.0042
@<TRIPOS>UNITY_ATOM_ATTR
22 1
charge -1
@<TRIPOS>BOND
     1     5     6    1
     2     6     7   ar
     3     7     8   ar
     4     8    11    1
     5    11    12   ar
     6    12    13   ar
     7    13    14   ar
     8    14    15   ar
     9    15    16   ar
    10     8     9   ar
    11     9    10   ar
    12    10     1    1
    13     1     2   am
    14     2     3    2
    15     2    17    1
    16    17    24    1
    17    24    25    1
    18    25    26   ar
    19    26    27   ar
    20    27    28   ar
    21    28    29   ar
    22    29    30   ar
    23    17    18    1
    24    18    20    1
    25    20    21    1
    26    21    22   ar
    27    21    23   ar
    28    10     6   ar
    29    30    25   ar
    30    16    11   ar
    31     1     4    1
    32    18    19    1
@<TRIPOS>MOLECULE
*****
 30 32 0 0 0
SMALL
GASTEIGER

@<TRIPOS>ATOM
      1 N          -8.8853  -18.3275   21.7771 N.am    1  UNL1       -0.2684
      2 C          -9.3812  -19.1647   22.9186 C.2     1  UNL1        0.2418
      3 O          -8.6550  -20.4212   23.2981 O.2     1  UNL1       -0.2733
      4 H          -9.3619  -17.5028   21.5281 H       1  UNL1        0.1563
      5 C          -8.8501  -20.0511   19.0063 C.3     1  UNL1        0.1552
      6 N          -7.6470  -19.5390   19.7414 N.ar    1  UNL1       -0.2356
      7 N          -6.2166  -19.7293   19.3320 N.ar    1  UNL1       -0.1681
      8 C          -5.3487  -19.0546   20.3526 C.ar    1  UNL1        0.1038
      9 C          -6.2427  -18.4473   21.3927 C.ar    1  UNL1        0.0549
     10 C          -7.6632  -18.7467   21.0150 C.ar    1  UNL1        0.1327
     11 C          -3.8498  -18.9972   20.3359 C.ar    1  UNL1        0.0225
     12 C          -3.0628  -19.6246   21.4481 C.ar    1  UNL1        0.0222
     13 C          -1.5641  -19.5672   21.4313 C.ar    1  UNL1        0.0989
     14 N          -0.8523  -18.8824   20.3024 N.ar    1  UNL1       -0.2423
     15 C          -1.6393  -18.2550   19.1903 C.ar    1  UNL1        0.0989
     16 C          -3.1380  -18.3124   19.2070 C.ar    1  UNL1        0.0222
     17 C         -10.6033  -18.7454   23.6807 C.3     1  UNL1        0.1365
     18 N         -11.9330  -18.6823   22.9897 N.3     1  UNL1       -0.2863
     19 H         -12.6036  -19.1523   23.5979 H       1  UNL1        0.1240
     20 C         -12.5301  -17.3535   22.6321 C.3     1  UNL1        0.1113
     21 C         -12.0097  -16.5914   21.4494 C.2     1  UNL1        0.0663
     22 O         -12.8615  -16.4339   20.2248 O.co2   1  UNL1       -0.5477
     23 O         -10.6376  -15.9867   21.4915 O.co2   1  UNL1       -0.5477
     24 C         -10.4955  -18.3893   25.1338 C.3     1  UNL1        0.0514
     25 C          -9.5114  -17.3490   25.5801 C.ar    1  UNL1       -0.0203
     26 C          -9.0651  -16.2806   24.6265 C.ar    1  UNL1       -0.0042
     27 C          -8.0810  -15.2403   25.0727 C.ar    1  UNL1       -0.0003
     28 C          -7.5430  -15.2684   26.4726 C.ar    1  UNL1       -0.0000
     29 C          -7.9892  -16.3368   27.4263 C.ar    1  UNL1       -0.0003
     30 C          -8.9734  -17.3771   26.9800 C.ar    1  UNL1       -0.0042
@<TRIPOS>UNITY_ATOM_ATTR
22 1
charge -1
@<TRIPOS>BOND
     1     5     6    1
     2     6     7   ar
     3     7     8   ar
     4     8    11    1
     5    11    12   ar
     6    12    13   ar
     7    13    14   ar
     8    14    15   ar
     9    15    16   ar
    10     8     9   ar
    11     9    10   ar
    12    10     1    1
    13     1     2   am
    14     2     3    2
    15     2    17    1
    16    17    24    1
    17    24    25    1
    18    25    26   ar
    19    26    27   ar
    20    27    28   ar
    21    28    29   ar
    22    29    30   ar
    23    17    18    1
    24    18    20    1
    25    20    21    1
    26    21    22   ar
    27    21    23   ar
    28    10     6   ar
    29    30    25   ar
    30    16    11   ar
    31     1     4    1
    32    18    19    1
@<TRIPOS>MOLECULE
*****
 30 32 0 0 0
SMALL
GASTEIGER

@<TRIPOS>ATOM
      1 N          -8.4216  -18.1161   22.9397 N.am    1  UNL1       -0.2684
      2 C          -9.0835  -19.1590   23.7906 C.2     1  UNL1        0.2418
      3 O          -8.6963  -20.6010   23.6465 O.2     1  UNL1       -0.2733
      4 H          -8.6757  -17.1696   23.0343 H       1  UNL1        0.1563
      5 C          -8.9599  -19.5251   20.0458 C.3     1  UNL1        0.1552
      6 N          -7.6200  -19.1628   20.6144 N.ar    1  UNL1       -0.2356
      7 N          -6.2922  -19.3845   19.9527 N.ar    1  UNL1       -0.1681
      8 C          -5.2242  -18.8738   20.8739 C.ar    1  UNL1        0.1038
      9 C          -5.8918  -18.3365   22.1049 C.ar    1  UNL1        0.0549
     10 C          -7.3725  -18.5151   21.9446 C.ar    1  UNL1        0.1327
     11 C          -3.7476  -18.8965   20.6103 C.ar    1  UNL1        0.0225
     12 C          -3.2006  -18.2865   19.3538 C.ar    1  UNL1        0.0222
     13 C          -1.7242  -18.3092   19.0903 C.ar    1  UNL1        0.0989
     14 N          -0.7947  -18.9419   20.0831 N.ar    1  UNL1       -0.2423
     15 C          -1.3417  -19.5519   21.3395 C.ar    1  UNL1        0.0989
     16 C          -2.8182  -19.5292   21.6031 C.ar    1  UNL1        0.0222
     17 C         -10.1326  -18.7599   24.7857 C.3     1  UNL1        0.1365
     18 N          -9.7514  -18.4961   26.2122 N.3     1  UNL1       -0.2863
     19 H          -9.5130  -19.3979   26.6249 H       1  UNL1        0.1240
     20 C          -8.6191  -17.5635   26.5258 C.3     1  UNL1        0.1113
     21 C          -8.7313  -16.1068   26.1860 C.2     1  UNL1        0.0663
     22 O          -9.0501  -15.6865   24.7818 O.co2   1  UNL1       -0.5477
     23 O          -8.5246  -15.0703   27.2505 O.co2   1  UNL1       -0.5477
     24 C         -11.5628  -18.6248   24.3543 C.3     1  UNL1        0.0514
     25 C         -11.9009  -17.8656   23.1056 C.ar    1  UNL1       -0.0203
     26 C         -12.3085  -16.4246   23.1911 C.ar    1  UNL1       -0.0042
     27 C         -12.6467  -15.6655   21.9424 C.ar    1  UNL1       -0.0003
     28 C         -12.5772  -16.3473   20.6081 C.ar    1  UNL1       -0.0000
     29 C         -12.1696  -17.7883   20.5226 C.ar    1  UNL1       -0.0003
     30 C         -11.8315  -18.5475   21.7714 C.ar    1  UNL1       -0.0042
@<TRIPOS>UNITY_ATOM_ATTR
22 1
charge -1
@<TRIPOS>BOND
     1     5     6    1
     2     6     7   ar
     3     7     8   ar
     4     8    11    1
     5    11    12   ar
     6    12    13   ar
     7    13    14   ar
     8    14    15   ar
     9    15    16   ar
    10     8     9   ar
    11     9    10   ar
    12    10     1    1
    13     1     2   am
    14     2     3    2
    15     2    17    1
    16    17    24    1
    17    24    25    1
    18    25    26   ar
    19    26    27   ar
    20    27    28   ar
    21    28    29   ar
    22    29    30   ar
    23    17    18    1
    24    18    20    1
    25    20    21    1
    26    21    22   ar
    27    21    23   ar
    28    10     6   ar
    29    30    25   ar
    30    16    11   ar
    31     1     4    1
    32    18    19    1
@<TRIPOS>MOLECULE
*****
 30 32 0 0 0
SMALL
GASTEIGER

@<TRIPOS>ATOM
      1 N          -7.4482  -17.8256   22.9639 N.am    1  UNL1       -0.2684
      2 C          -8.1401  -16.4977   22.8760 C.2     1  UNL1        0.2418
      3 O          -7.8309  -15.5644   21.7431 O.2     1  UNL1       -0.2733
      4 H          -7.6512  -18.4381   23.7075 H       1  UNL1        0.1563
      5 C          -8.0969  -19.4183   20.1904 C.3     1  UNL1        0.1552
      6 N          -6.7452  -18.9524   20.6441 N.ar    1  UNL1       -0.2356
      7 N          -5.4544  -19.1367   19.9027 N.ar    1  UNL1       -0.1681
      8 C          -4.3584  -18.5186   20.7193 C.ar    1  UNL1        0.1038
      9 C          -4.9719  -17.9522   21.9654 C.ar    1  UNL1        0.0549
     10 C          -6.4470  -18.2203   21.9190 C.ar    1  UNL1        0.1327
     11 C          -2.9042  -18.4746   20.3539 C.ar    1  UNL1        0.0225
     12 C          -1.8636  -18.8318   21.3734 C.ar    1  UNL1        0.0222
     13 C          -0.4095  -18.7878   21.0080 C.ar    1  UNL1        0.0989
     14 N           0.0040  -18.3866   19.6230 N.ar    1  UNL1       -0.2423
     15 C          -1.0366  -18.0293   18.6035 C.ar    1  UNL1        0.0989
     16 C          -2.4907  -18.0733   18.9690 C.ar    1  UNL1        0.0222
     17 C          -9.1413  -16.1030   23.9209 C.3     1  UNL1        0.1365
     18 N          -8.7468  -15.1612   25.0197 N.3     1  UNL1       -0.2863
     19 H          -9.5945  -14.9529   25.5475 H       1  UNL1        0.1240
     20 C          -7.7042  -15.5685   26.0182 C.3     1  UNL1        0.1113
     21 C          -6.2489  -15.4233   25.6845 C.2     1  UNL1        0.0663
     22 O          -5.2101  -16.0355   26.5768 O.co2   1  UNL1       -0.5477
     23 O          -5.8325  -14.6659   24.4585 O.co2   1  UNL1       -0.5477
     24 C         -10.5369  -16.6501   23.8670 C.3     1  UNL1        0.0514
     25 C         -10.8554  -17.8050   22.9646 C.ar    1  UNL1       -0.0203
     26 C         -10.6251  -19.2105   23.4353 C.ar    1  UNL1       -0.0042
     27 C         -10.9435  -20.3654   22.5328 C.ar    1  UNL1       -0.0003
     28 C         -11.4924  -20.1150   21.1595 C.ar    1  UNL1       -0.0000
     29 C         -11.7227  -18.7096   20.6887 C.ar    1  UNL1       -0.0003
     30 C         -11.4042  -17.5546   21.5912 C.ar    1  UNL1       -0.0042
@<TRIPOS>UNITY_ATOM_ATTR
22 1
charge -1
@<TRIPOS>BOND
     1     5     6    1
     2     6     7   ar
     3     7     8   ar
     4     8    11    1
     5    11    12   ar
     6    12    13   ar
     7    13    14   ar
     8    14    15   ar
     9    15    16   ar
    10     8     9   ar
    11     9    10   ar
    12    10     1    1
    13     1     2   am
    14     2     3    2
    15     2    17    1
    16    17    24    1
    17    24    25    1
    18    25    26   ar
    19    26    27   ar
    20    27    28   ar
    21    28    29   ar
    22    29    30   ar
    23    17    18    1
    24    18    20    1
    25    20    21    1
    26    21    22   ar
    27    21    23   ar
    28    10     6   ar
    29    30    25   ar
    30    16    11   ar
    31     1     4    1
    32    18    19    1
@<TRIPOS>MOLECULE
*****
 30 32 0 0 0
SMALL
GASTEIGER

@<TRIPOS>ATOM
      1 N          -6.8041  -19.8807   21.6652 N.am    1  UNL1       -0.2684
      2 C          -5.8513  -18.8319   22.1573 C.2     1  UNL1        0.2418
      3 O          -6.3653  -17.4819   22.5611 O.2     1  UNL1       -0.2733
      4 H          -6.4667  -20.7668   21.4001 H       1  UNL1        0.1563
      5 C          -8.5715  -19.7376   18.9256 C.3     1  UNL1        0.1552
      6 N          -9.0833  -19.5137   20.3176 N.ar    1  UNL1       -0.2356
      7 N         -10.4973  -19.1846   20.6950 N.ar    1  UNL1       -0.1681
      8 C         -10.5588  -19.0470   22.1874 C.ar    1  UNL1        0.1038
      9 C          -9.1828  -19.2911   22.7325 C.ar    1  UNL1        0.0549
     10 C          -8.2709  -19.5794   21.5769 C.ar    1  UNL1        0.1327
     11 C         -11.7816  -18.7224   22.9932 C.ar    1  UNL1        0.0225
     12 C         -11.8294  -19.0617   24.4536 C.ar    1  UNL1        0.0222
     13 C         -13.0522  -18.7371   25.2593 C.ar    1  UNL1        0.0989
     14 N         -14.2272  -18.0732   24.6048 N.ar    1  UNL1       -0.2423
     15 C         -14.1795  -17.7339   23.1445 C.ar    1  UNL1        0.0989
     16 C         -12.9567  -18.0585   22.3387 C.ar    1  UNL1        0.0222
     17 C          -4.3845  -19.1332   22.2455 C.3     1  UNL1        0.1365
     18 N          -3.6144  -18.7571   23.4764 N.3     1  UNL1       -0.2863
     19 H          -2.9946  -19.5395   23.6865 H       1  UNL1        0.1240
     20 C          -2.7667  -17.5196   23.4819 C.3     1  UNL1        0.1113
     21 C          -3.2177  -16.2983   22.7368 C.2     1  UNL1        0.0663
     22 O          -4.4120  -15.5267   23.2144 O.co2   1  UNL1       -0.5477
     23 O          -2.4743  -15.8486   21.5140 O.co2   1  UNL1       -0.5477
     24 C          -3.6879  -19.8106   21.1027 C.3     1  UNL1        0.0514
     25 C          -2.7100  -19.0457   20.2610 C.ar    1  UNL1       -0.0203
     26 C          -1.2570  -19.0232   20.6329 C.ar    1  UNL1       -0.0042
     27 C          -0.2791  -18.2584   19.7912 C.ar    1  UNL1       -0.0003
     28 C          -0.7541  -17.5158   18.5775 C.ar    1  UNL1       -0.0000
     29 C          -2.2070  -17.5382   18.2056 C.ar    1  UNL1       -0.0003
     30 C          -3.1850  -18.3032   19.0474 C.ar    1  UNL1       -0.0042
@<TRIPOS>UNITY_ATOM_ATTR
22 1
charge -1
@<TRIPOS>BOND
     1     5     6    1
     2     6     7   ar
     3     7     8   ar
     4     8    11    1
     5    11    12   ar
     6    12    13   ar
     7    13    14   ar
     8    14    15   ar
     9    15    16   ar
    10     8     9   ar
    11     9    10   ar
    12    10     1    1
    13     1     2   am
    14     2     3    2
    15     2    17    1
    16    17    24    1
    17    24    25    1
    18    25    26   ar
    19    26    27   ar
    20    27    28   ar
    21    28    29   ar
    22    29    30   ar
    23    17    18    1
    24    18    20    1
    25    20    21    1
    26    21    22   ar
    27    21    23   ar
    28    10     6   ar
    29    30    25   ar
    30    16    11   ar
    31     1     4    1
    32    18    19    1
@<TRIPOS>MOLECULE
*****
 30 32 0 0 0
SMALL
GASTEIGER

@<TRIPOS>ATOM
      1 N         -14.6314   -5.7497   19.5550 N.am    1  UNL1       -0.2684
      2 C         -14.3376   -6.4483   18.2606 C.2     1  UNL1        0.2418
      3 O         -14.8302   -5.8696   16.9674 O.2     1  UNL1       -0.2733
      4 H         -14.3082   -6.1296   20.4038 H       1  UNL1        0.1563
      5 C         -17.8828   -5.4986   19.4299 C.3     1  UNL1        0.1552
      6 N         -16.9123   -4.3569   19.4987 N.ar    1  UNL1       -0.2356
      7 N         -17.2658   -2.8994   19.5221 N.ar    1  UNL1       -0.1681
      8 C         -15.9898   -2.1140   19.5941 C.ar    1  UNL1        0.1038
      9 C         -14.8477   -3.0861   19.6151 C.ar    1  UNL1        0.0549
     10 C         -15.4178   -4.4723   19.5562 C.ar    1  UNL1        0.1327
     11 C         -15.8760   -0.6189   19.6373 C.ar    1  UNL1        0.0225
     12 C         -16.8137    0.1802   20.4930 C.ar    1  UNL1        0.0222
     13 C         -16.6999    1.6752   20.5362 C.ar    1  UNL1        0.0989
     14 N         -15.6483    2.3711   19.7238 N.ar    1  UNL1       -0.2423
     15 C         -14.7106    1.5721   18.8682 C.ar    1  UNL1        0.0989
     16 C         -14.8245    0.0770   18.8250 C.ar    1  UNL1        0.0222
     17 C         -13.5513   -7.7257   18.2594 C.3     1  UNL1        0.1365
     18 N         -14.1573   -8.9799   18.8157 N.3     1  UNL1       -0.2863
     19 H         -14.5881   -8.7292   19.7056 H       1  UNL1        0.1240
     20 C         -15.1934   -9.7256   18.0279 C.3     1  UNL1        0.1113
     21 C         -16.4667  -10.1637   18.6890 C.2     1  UNL1        0.0663
     22 O         -16.7162  -11.6204   18.9450 O.co2   1  UNL1       -0.5477
     23 O         -17.4904   -9.1448   19.0941 O.co2   1  UNL1       -0.5477
     24 C         -12.1590   -7.7488   17.7018 C.3     1  UNL1        0.0514
     25 C         -11.3416   -6.4915   17.6732 C.ar    1  UNL1       -0.0203
     26 C         -11.1366   -5.7594   16.3802 C.ar    1  UNL1       -0.0042
     27 C         -10.3193   -4.5020   16.3515 C.ar    1  UNL1       -0.0003
     28 C          -9.7068   -3.9767   17.6160 C.ar    1  UNL1       -0.0000
     29 C          -9.9117   -4.7088   18.9091 C.ar    1  UNL1       -0.0003
     30 C         -10.7291   -5.9662   18.9377 C.ar    1  UNL1       -0.0042
@<TRIPOS>UNITY_ATOM_ATTR
22 1
charge -1
@<TRIPOS>BOND
     1     5     6    1
     2     6     7   ar
     3     7     8   ar
     4     8    11    1
     5    11    12   ar
     6    12    13   ar
     7    13    14   ar
     8    14    15   ar
     9    15    16   ar
    10     8     9   ar
    11     9    10   ar
    12    10     1    1
    13     1     2   am
    14     2     3    2
    15     2    17    1
    16    17    24    1
    17    24    25    1
    18    25    26   ar
    19    26    27   ar
    20    27    28   ar
    21    28    29   ar
    22    29    30   ar
    23    17    18    1
    24    18    20    1
    25    20    21    1
    26    21    22   ar
    27    21    23   ar
    28    10     6   ar
    29    30    25   ar
    30    16    11   ar
    31     1     4    1
    32    18    19    1
@<TRIPOS>MOLECULE
*****
 30 32 0 0 0
SMALL
GASTEIGER

@<TRIPOS>ATOM
      1 N          -7.1977  -18.3768   23.2013 N.am    1  UNL1       -0.2684
      2 C          -7.8572  -19.4412   22.3754 C.2     1  UNL1        0.2418
      3 O          -7.1556  -19.9997   21.1729 O.2     1  UNL1       -0.2733
      4 H          -7.6581  -18.0103   23.9905 H       1  UNL1        0.1563
      5 C          -5.5531  -15.9935   24.7062 C.3     1  UNL1        0.1552
      6 N          -5.0807  -16.7755   23.5165 N.ar    1  UNL1       -0.2356
      7 N          -3.7695  -16.5993   22.8096 N.ar    1  UNL1       -0.1681
      8 C          -3.7151  -17.5859   21.6811 C.ar    1  UNL1        0.1038
      9 C          -4.9926  -18.3718   21.6904 C.ar    1  UNL1        0.0549
     10 C          -5.8367  -17.8710   22.8247 C.ar    1  UNL1        0.1327
     11 C          -2.5819  -17.7565   20.7131 C.ar    1  UNL1        0.0225
     12 C          -2.8610  -17.8657   19.2433 C.ar    1  UNL1        0.0222
     13 C          -1.7279  -18.0364   18.2754 C.ar    1  UNL1        0.0989
     14 N          -0.3157  -18.0978   18.7773 N.ar    1  UNL1       -0.2423
     15 C          -0.0366  -17.9886   20.2470 C.ar    1  UNL1        0.0989
     16 C          -1.1697  -17.8180   21.2149 C.ar    1  UNL1        0.0222
     17 C          -9.2182  -19.9471   22.7519 C.3     1  UNL1        0.1365
     18 N          -9.4816  -20.4212   24.1503 N.3     1  UNL1       -0.2863
     19 H          -8.5732  -20.6173   24.5707 H       1  UNL1        0.1240
     20 C         -10.2236  -19.5421   25.1130 C.3     1  UNL1        0.1113
     21 C          -9.6941  -18.1782   25.4443 C.2     1  UNL1        0.0663
     22 O          -9.7315  -17.0885   24.4141 O.co2   1  UNL1       -0.5477
     23 O          -9.1272  -17.9041   26.8057 O.co2   1  UNL1       -0.5477
     24 C         -10.3157  -19.9788   21.7299 C.3     1  UNL1        0.0514
     25 C         -11.0327  -18.7143   21.3599 C.ar    1  UNL1       -0.0203
     26 C         -10.6950  -18.0074   20.0807 C.ar    1  UNL1       -0.0042
     27 C         -11.4120  -16.7430   19.7106 C.ar    1  UNL1       -0.0003
     28 C         -12.4667  -16.1853   20.6198 C.ar    1  UNL1       -0.0000
     29 C         -12.8044  -16.8921   21.8990 C.ar    1  UNL1       -0.0003
     30 C         -12.0874  -18.1566   22.2690 C.ar    1  UNL1       -0.0042
@<TRIPOS>UNITY_ATOM_ATTR
22 1
charge -1
@<TRIPOS>BOND
     1     5     6    1
     2     6     7   ar
     3     7     8   ar
     4     8    11    1
     5    11    12   ar
     6    12    13   ar
     7    13    14   ar
     8    14    15   ar
     9    15    16   ar
    10     8     9   ar
    11     9    10   ar
    12    10     1    1
    13     1     2   am
    14     2     3    2
    15     2    17    1
    16    17    24    1
    17    24    25    1
    18    25    26   ar
    19    26    27   ar
    20    27    28   ar
    21    28    29   ar
    22    29    30   ar
    23    17    18    1
    24    18    20    1
    25    20    21    1
    26    21    22   ar
    27    21    23   ar
    28    10     6   ar
    29    30    25   ar
    30    16    11   ar
    31     1     4    1
    32    18    19    1
@<TRIPOS>MOLECULE
*****
 30 32 0 0 0
SMALL
GASTEIGER

@<TRIPOS>ATOM
      1 N         -13.4053   -3.4255   17.6482 N.am    1  UNL1       -0.2684
      2 C         -12.2523   -2.9602   18.4873 C.2     1  UNL1        0.2418
      3 O         -12.3429   -3.0159   19.9835 O.2     1  UNL1       -0.2733
      4 H         -13.3459   -3.3889   16.6662 H       1  UNL1        0.1563
      5 C         -15.6428   -1.6360   19.2107 C.3     1  UNL1        0.1552
      6 N         -15.6775   -3.1239   19.0236 N.ar    1  UNL1       -0.2356
      7 N         -16.7467   -4.0505   19.5218 N.ar    1  UNL1       -0.1681
      8 C         -16.3790   -5.4457   19.1116 C.ar    1  UNL1        0.1038
      9 C         -15.0826   -5.3814   18.3598 C.ar    1  UNL1        0.0549
     10 C         -14.6490   -3.9464   18.3054 C.ar    1  UNL1        0.1327
     11 C         -17.1691   -6.6872   19.4022 C.ar    1  UNL1        0.0225
     12 C         -16.4737   -8.0125   19.5024 C.ar    1  UNL1        0.0222
     13 C         -17.2637   -9.2539   19.7930 C.ar    1  UNL1        0.0989
     14 N         -18.7493   -9.1702   19.9833 N.ar    1  UNL1       -0.2423
     15 C         -19.4447   -7.8450   19.8830 C.ar    1  UNL1        0.0989
     16 C         -18.6546   -6.6035   19.5924 C.ar    1  UNL1        0.0222
     17 C         -11.0086   -2.4392   17.8301 C.3     1  UNL1        0.1365
     18 N         -10.8009   -0.9610   17.6833 N.3     1  UNL1       -0.2863
     19 H          -9.9155   -0.8354   17.1926 H       1  UNL1        0.1240
     20 C         -11.8184   -0.1288   16.9607 C.3     1  UNL1        0.1113
     21 C         -12.3349    1.1336   17.5850 C.2     1  UNL1        0.0663
     22 O         -13.4446    1.0726   18.5923 O.co2   1  UNL1       -0.5477
     23 O         -11.7416    2.4570   17.2019 O.co2   1  UNL1       -0.5477
     24 C          -9.9727   -3.3965   17.3197 C.3     1  UNL1        0.0514
     25 C         -10.1404   -4.8707   17.5401 C.ar    1  UNL1       -0.0203
     26 C          -9.5399   -5.5211   18.7510 C.ar    1  UNL1       -0.0042
     27 C          -9.7076   -6.9953   18.9715 C.ar    1  UNL1       -0.0003
     28 C         -10.4758   -7.8191   17.9810 C.ar    1  UNL1       -0.0000
     29 C         -11.0764   -7.1687   16.7701 C.ar    1  UNL1       -0.0003
     30 C         -10.9087   -5.6945   16.5496 C.ar    1  UNL1       -0.0042
@<TRIPOS>UNITY_ATOM_ATTR
22 1
charge -1
@<TRIPOS>BOND
     1     5     6    1
     2     6     7   ar
     3     7     8   ar
     4     8    11    1
     5    11    12   ar
     6    12    13   ar
     7    13    14   ar
     8    14    15   ar
     9    15    16   ar
    10     8     9   ar
    11     9    10   ar
    12    10     1    1
    13     1     2   am
    14     2     3    2
    15     2    17    1
    16    17    24    1
    17    24    25    1
    18    25    26   ar
    19    26    27   ar
    20    27    28   ar
    21    28    29   ar
    22    29    30   ar
    23    17    18    1
    24    18    20    1
    25    20    21    1
    26    21    22   ar
    27    21    23   ar
    28    10     6   ar
    29    30    25   ar
    30    16    11   ar
    31     1     4    1
    32    18    19    1
