@<TRIPOS>MOLECULE
*****
 24 27 0 0 0
SMALL
GASTEIGER

@<TRIPOS>ATOM
      1 N          -8.7716  -17.5060   23.0697 N.pl3   1  UNL1       -0.3024
      2 CL        -13.8729  -17.9753   23.9400 Cl      1  UNL1       -0.0822
      3 C         -12.7275  -17.8129   22.9852 C.ar    1  UNL1        0.0589
      4 C         -12.9874  -17.7228   21.5105 C.ar    1  UNL1        0.0115
      5 C         -11.8421  -17.5604   20.5557 C.ar    1  UNL1        0.0021
      6 C         -10.4368  -17.4882   21.0754 C.ar    1  UNL1        0.0146
      7 C         -10.1769  -17.5783   22.5499 C.ar    1  UNL1        0.0490
      8 C         -11.3223  -17.7407   23.5048 C.ar    1  UNL1        0.0259
      9 C          -8.2321  -16.2089   23.5952 C.3     1  UNL1        0.1045
     10 C          -7.3164  -15.1472   23.0620 C.3     1  UNL1        0.0900
     11 N          -7.4691  -14.3744   24.3385 N.3     1  UNL1       -0.2946
     12 C          -8.3849  -15.4360   24.8717 C.3     1  UNL1        0.0900
     13 H          -7.9115  -13.4626   24.2228 H       1  UNL1        0.1233
     14 C          -7.9059  -18.7310   23.0638 C.3     1  UNL1        0.1177
     15 C          -6.7225  -18.8086   22.1453 C.ar    1  UNL1       -0.0024
     16 C          -6.9130  -19.1902   20.7073 C.ar    1  UNL1       -0.0026
     17 C          -5.7296  -19.2679   19.7888 C.ar    1  UNL1       -0.0003
     18 C          -4.3557  -18.9639   20.3084 C.ar    1  UNL1       -0.0000
     19 C          -3.1723  -19.0415   19.3900 C.ar    1  UNL1       -0.0000
     20 C          -1.7985  -18.7375   19.9096 C.ar    1  UNL1       -0.0000
     21 C          -1.6080  -18.3559   21.3477 C.ar    1  UNL1       -0.0000
     22 C          -2.7913  -18.2782   22.2661 C.ar    1  UNL1       -0.0000
     23 C          -4.1652  -18.5822   21.7465 C.ar    1  UNL1       -0.0003
     24 C          -5.3486  -18.5046   22.6650 C.ar    1  UNL1       -0.0026
@<TRIPOS>BOND
     1     2     3    1
     2     3     4   ar
     3     4     5   ar
     4     5     6   ar
     5     6     7   ar
     6     7     1    1
     7     1    14    1
     8    14    15    1
     9    15    16   ar
    10    16    17   ar
    11    17    18   ar
    12    18    19   ar
    13    19    20   ar
    14    20    21   ar
    15    21    22   ar
    16    22    23   ar
    17    23    24   ar
    18     1     9    1
    19     9    10    1
    20    10    11    1
    21    11    12    1
    22     7     8   ar
    23     8     3   ar
    24    24    15   ar
    25    12     9    1
    26    23    18   ar
    27    11    13    1
@<TRIPOS>MOLECULE
*****
 24 27 0 0 0
SMALL
GASTEIGER

@<TRIPOS>ATOM
      1 N          -9.7107  -17.7128   22.2765 N.pl3   1  UNL1       -0.3024
      2 CL         -8.6163  -16.6425   27.2421 Cl      1  UNL1       -0.0822
      3 C          -8.4532  -16.3409   25.7818 C.ar    1  UNL1        0.0589
      4 C          -7.5799  -15.2026   25.3439 C.ar    1  UNL1        0.0115
      5 C          -7.4168  -14.9011   23.8836 C.ar    1  UNL1        0.0021
      6 C          -8.1271  -15.7378   22.8612 C.ar    1  UNL1        0.0146
      7 C          -9.0004  -16.8761   23.2990 C.ar    1  UNL1        0.0490
      8 C          -9.1635  -17.1776   24.7593 C.ar    1  UNL1        0.0259
      9 C         -10.8844  -17.1501   21.5311 C.3     1  UNL1        0.1045
     10 C         -12.0228  -16.2372   21.8784 C.3     1  UNL1        0.0900
     11 N         -12.5444  -16.3544   20.4769 N.3     1  UNL1       -0.2946
     12 C         -11.4060  -17.2673   20.1296 C.3     1  UNL1        0.0900
     13 H         -12.5467  -15.4758   19.9587 H       1  UNL1        0.1233
     14 C          -9.2472  -19.1123   21.9995 C.3     1  UNL1        0.1177
     15 C          -7.8502  -19.3567   21.5107 C.ar    1  UNL1       -0.0024
     16 C          -7.6251  -20.0036   20.1762 C.ar    1  UNL1       -0.0026
     17 C          -6.2282  -20.2480   19.6873 C.ar    1  UNL1       -0.0003
     18 C          -5.0564  -19.8456   20.5330 C.ar    1  UNL1       -0.0000
     19 C          -3.6596  -20.0900   20.0441 C.ar    1  UNL1       -0.0000
     20 C          -2.4879  -19.6875   20.8897 C.ar    1  UNL1       -0.0000
     21 C          -2.7131  -19.0406   22.2242 C.ar    1  UNL1       -0.0000
     22 C          -4.1099  -18.7962   22.7130 C.ar    1  UNL1       -0.0000
     23 C          -5.2816  -19.1987   21.8674 C.ar    1  UNL1       -0.0003
     24 C          -6.6785  -18.9542   22.3563 C.ar    1  UNL1       -0.0026
@<TRIPOS>BOND
     1     2     3    1
     2     3     4   ar
     3     4     5   ar
     4     5     6   ar
     5     6     7   ar
     6     7     1    1
     7     1    14    1
     8    14    15    1
     9    15    16   ar
    10    16    17   ar
    11    17    18   ar
    12    18    19   ar
    13    19    20   ar
    14    20    21   ar
    15    21    22   ar
    16    22    23   ar
    17    23    24   ar
    18     1     9    1
    19     9    10    1
    20    10    11    1
    21    11    12    1
    22     7     8   ar
    23     8     3   ar
    24    24    15   ar
    25    12     9    1
    26    23    18   ar
    27    11    13    1
@<TRIPOS>MOLECULE
*****
 24 27 0 0 0
SMALL
GASTEIGER

@<TRIPOS>ATOM
      1 N          -7.9482  -19.4128   21.9091 N.pl3   1  UNL1       -0.3024
      2 CL         -7.4696  -14.8048   24.2622 Cl      1  UNL1       -0.0822
      3 C          -8.1046  -16.1612   24.1791 C.ar    1  UNL1        0.0589
      4 C          -9.1351  -16.5701   25.1895 C.ar    1  UNL1        0.0115
      5 C          -9.7701  -17.9266   25.1064 C.ar    1  UNL1        0.0021
      6 C          -9.3744  -18.8741   24.0129 C.ar    1  UNL1        0.0146
      7 C          -8.3439  -18.4652   23.0026 C.ar    1  UNL1        0.0490
      8 C          -7.7089  -17.1088   23.0857 C.ar    1  UNL1        0.0259
      9 C          -8.7963  -19.5334   20.6778 C.3     1  UNL1        0.1045
     10 C          -8.5215  -19.7016   19.2129 C.3     1  UNL1        0.0900
     11 N          -9.9958  -19.7039   18.9365 N.3     1  UNL1       -0.2946
     12 C         -10.2707  -19.5357   20.4015 C.3     1  UNL1        0.0900
     13 H         -10.3447  -20.5788   18.5451 H       1  UNL1        0.1233
     14 C          -6.7044  -20.2398   22.0470 C.3     1  UNL1        0.1177
     15 C          -5.4216  -19.7747   21.4238 C.ar    1  UNL1       -0.0024
     16 C          -4.9009  -20.4472   20.1883 C.ar    1  UNL1       -0.0026
     17 C          -3.6182  -19.9822   19.5652 C.ar    1  UNL1       -0.0003
     18 C          -2.8561  -18.8445   20.1776 C.ar    1  UNL1       -0.0000
     19 C          -1.5734  -18.3794   19.5544 C.ar    1  UNL1       -0.0000
     20 C          -0.8114  -17.2418   20.1668 C.ar    1  UNL1       -0.0000
     21 C          -1.3321  -16.5692   21.4024 C.ar    1  UNL1       -0.0000
     22 C          -2.6148  -17.0343   22.0255 C.ar    1  UNL1       -0.0000
     23 C          -3.3768  -18.1719   21.4131 C.ar    1  UNL1       -0.0003
     24 C          -4.6596  -18.6370   22.0362 C.ar    1  UNL1       -0.0026
@<TRIPOS>BOND
     1     2     3    1
     2     3     4   ar
     3     4     5   ar
     4     5     6   ar
     5     6     7   ar
     6     7     1    1
     7     1    14    1
     8    14    15    1
     9    15    16   ar
    10    16    17   ar
    11    17    18   ar
    12    18    19   ar
    13    19    20   ar
    14    20    21   ar
    15    21    22   ar
    16    22    23   ar
    17    23    24   ar
    18     1     9    1
    19     9    10    1
    20    10    11    1
    21    11    12    1
    22     7     8   ar
    23     8     3   ar
    24    24    15   ar
    25    12     9    1
    26    23    18   ar
    27    11    13    1
@<TRIPOS>MOLECULE
*****
 24 27 0 0 0
SMALL
GASTEIGER

@<TRIPOS>ATOM
      1 N          -6.5881  -17.7665   22.7444 N.pl3   1  UNL1       -0.3024
      2 CL         -2.7069  -20.3357   20.4344 Cl      1  UNL1       -0.0822
      3 C          -3.1797  -19.3121   21.4238 C.ar    1  UNL1        0.0589
      4 C          -2.1846  -18.5496   22.2475 C.ar    1  UNL1        0.0115
      5 C          -2.6574  -17.5261   23.2369 C.ar    1  UNL1        0.0021
      6 C          -4.1252  -17.2651   23.4025 C.ar    1  UNL1        0.0146
      7 C          -5.1202  -18.0276   22.5788 C.ar    1  UNL1        0.0490
      8 C          -4.6474  -19.0511   21.5894 C.ar    1  UNL1        0.0259
      9 C          -7.0590  -16.4514   23.2908 C.3     1  UNL1        0.1045
     10 C          -7.1018  -15.8225   24.6519 C.3     1  UNL1        0.0900
     11 N          -7.7250  -14.5914   24.0636 N.3     1  UNL1       -0.2946
     12 C          -7.6822  -15.2204   22.7024 C.3     1  UNL1        0.0900
     13 H          -7.1527  -13.7518   24.1525 H       1  UNL1        0.1233
     14 C          -7.5849  -18.8207   22.3636 C.3     1  UNL1        0.1177
     15 C          -9.0539  -18.5283   22.4456 C.ar    1  UNL1       -0.0024
     16 C          -9.7612  -17.9071   21.2778 C.ar    1  UNL1       -0.0026
     17 C         -11.2302  -17.6147   21.3596 C.ar    1  UNL1       -0.0003
     18 C         -11.9919  -17.9436   22.6094 C.ar    1  UNL1       -0.0000
     19 C         -13.4608  -17.6513   22.6912 C.ar    1  UNL1       -0.0000
     20 C         -14.2224  -17.9801   23.9409 C.ar    1  UNL1       -0.0000
     21 C         -13.5151  -18.6014   25.1087 C.ar    1  UNL1       -0.0000
     22 C         -12.0462  -18.8937   25.0268 C.ar    1  UNL1       -0.0000
     23 C         -11.2845  -18.5649   23.7772 C.ar    1  UNL1       -0.0003
     24 C          -9.8155  -18.8572   23.6952 C.ar    1  UNL1       -0.0026
@<TRIPOS>BOND
     1     2     3    1
     2     3     4   ar
     3     4     5   ar
     4     5     6   ar
     5     6     7   ar
     6     7     1    1
     7     1    14    1
     8    14    15    1
     9    15    16   ar
    10    16    17   ar
    11    17    18   ar
    12    18    19   ar
    13    19    20   ar
    14    20    21   ar
    15    21    22   ar
    16    22    23   ar
    17    23    24   ar
    18     1     9    1
    19     9    10    1
    20    10    11    1
    21    11    12    1
    22     7     8   ar
    23     8     3   ar
    24    24    15   ar
    25    12     9    1
    26    23    18   ar
    27    11    13    1
@<TRIPOS>MOLECULE
*****
 24 27 0 0 0
SMALL
GASTEIGER

@<TRIPOS>ATOM
      1 N          -3.9483  -17.9465   22.6474 N.pl3   1  UNL1       -0.3024
      2 CL         -7.6624  -14.6568   24.1911 Cl      1  UNL1       -0.0822
      3 C          -6.4357  -15.4654   24.4932 C.ar    1  UNL1        0.0589
      4 C          -5.8394  -15.4379   25.8694 C.ar    1  UNL1        0.0115
      5 C          -4.6127  -16.2465   26.1715 C.ar    1  UNL1        0.0021
      6 C          -3.9823  -17.0828   25.0975 C.ar    1  UNL1        0.0146
      7 C          -4.5786  -17.1103   23.7214 C.ar    1  UNL1        0.0490
      8 C          -5.8054  -16.3016   23.4193 C.ar    1  UNL1        0.0259
      9 C          -2.7208  -17.4560   21.9384 C.3     1  UNL1        0.1045
     10 C          -2.0511  -16.1237   21.7757 C.3     1  UNL1        0.0900
     11 N          -0.9848  -16.7623   20.9358 N.3     1  UNL1       -0.2946
     12 C          -1.6546  -18.0946   21.0986 C.3     1  UNL1        0.0900
     13 H          -0.0503  -16.7137   21.3416 H       1  UNL1        0.1233
     14 C          -4.5455  -19.2732   22.2824 C.3     1  UNL1        0.1177
     15 C          -5.9047  -19.3356   21.6508 C.ar    1  UNL1       -0.0024
     16 C          -6.0438  -19.2449   20.1600 C.ar    1  UNL1       -0.0026
     17 C          -7.4028  -19.3073   19.5284 C.ar    1  UNL1       -0.0003
     18 C          -8.6229  -19.4603   20.3875 C.ar    1  UNL1       -0.0000
     19 C          -9.9820  -19.5227   19.7559 C.ar    1  UNL1       -0.0000
     20 C         -11.2019  -19.6757   20.6151 C.ar    1  UNL1       -0.0000
     21 C         -11.0628  -19.7664   22.1059 C.ar    1  UNL1       -0.0000
     22 C          -9.7038  -19.7040   22.7375 C.ar    1  UNL1       -0.0000
     23 C          -8.4838  -19.5510   21.8783 C.ar    1  UNL1       -0.0003
     24 C          -7.1246  -19.4886   22.5099 C.ar    1  UNL1       -0.0026
@<TRIPOS>BOND
     1     2     3    1
     2     3     4   ar
     3     4     5   ar
     4     5     6   ar
     5     6     7   ar
     6     7     1    1
     7     1    14    1
     8    14    15    1
     9    15    16   ar
    10    16    17   ar
    11    17    18   ar
    12    18    19   ar
    13    19    20   ar
    14    20    21   ar
    15    21    22   ar
    16    22    23   ar
    17    23    24   ar
    18     1     9    1
    19     9    10    1
    20    10    11    1
    21    11    12    1
    22     7     8   ar
    23     8     3   ar
    24    24    15   ar
    25    12     9    1
    26    23    18   ar
    27    11    13    1
@<TRIPOS>MOLECULE
*****
 24 27 0 0 0
SMALL
GASTEIGER

@<TRIPOS>ATOM
      1 N          -5.7884  -19.0578   21.9015 N.pl3   1  UNL1       -0.3024
      2 CL         -8.0165  -14.9993   24.2604 Cl      1  UNL1       -0.0822
      3 C          -6.8075  -15.8488   24.0025 C.ar    1  UNL1        0.0589
      4 C          -5.5034  -15.5186   24.6662 C.ar    1  UNL1        0.0115
      5 C          -4.2943  -16.3681   24.4083 C.ar    1  UNL1        0.0021
      6 C          -4.3894  -17.5478   23.4867 C.ar    1  UNL1        0.0146
      7 C          -5.6934  -17.8780   22.8231 C.ar    1  UNL1        0.0490
      8 C          -6.9024  -17.0285   23.0810 C.ar    1  UNL1        0.0259
      9 C          -4.7308  -19.2849   20.8624 C.3     1  UNL1        0.1045
     10 C          -3.4214  -20.0157   20.8238 C.3     1  UNL1        0.0900
     11 N          -3.2350  -19.6061   19.3929 N.3     1  UNL1       -0.2946
     12 C          -4.5443  -18.8753   19.4315 C.3     1  UNL1        0.0900
     13 H          -3.2127  -20.3861   18.7360 H       1  UNL1        0.1233
     14 C          -6.9412  -20.0103   22.0191 C.3     1  UNL1        0.1177
     15 C          -8.3487  -19.4943   21.9686 C.ar    1  UNL1       -0.0024
     16 C          -8.9278  -19.0210   20.6683 C.ar    1  UNL1       -0.0026
     17 C         -10.3353  -18.5049   20.6178 C.ar    1  UNL1       -0.0003
     18 C         -11.1638  -18.4621   21.8676 C.ar    1  UNL1       -0.0000
     19 C         -12.5713  -17.9460   21.8170 C.ar    1  UNL1       -0.0000
     20 C         -13.3997  -17.9032   23.0668 C.ar    1  UNL1       -0.0000
     21 C         -12.8206  -18.3765   24.3670 C.ar    1  UNL1       -0.0000
     22 C         -11.4131  -18.8926   24.4176 C.ar    1  UNL1       -0.0000
     23 C         -10.5847  -18.9354   23.1678 C.ar    1  UNL1       -0.0003
     24 C          -9.1771  -19.4515   23.2183 C.ar    1  UNL1       -0.0026
@<TRIPOS>BOND
     1     2     3    1
     2     3     4   ar
     3     4     5   ar
     4     5     6   ar
     5     6     7   ar
     6     7     1    1
     7     1    14    1
     8    14    15    1
     9    15    16   ar
    10    16    17   ar
    11    17    18   ar
    12    18    19   ar
    13    19    20   ar
    14    20    21   ar
    15    21    22   ar
    16    22    23   ar
    17    23    24   ar
    18     1     9    1
    19     9    10    1
    20    10    11    1
    21    11    12    1
    22     7     8   ar
    23     8     3   ar
    24    24    15   ar
    25    12     9    1
    26    23    18   ar
    27    11    13    1
@<TRIPOS>MOLECULE
*****
 24 27 0 0 0
SMALL
GASTEIGER

@<TRIPOS>ATOM
      1 N          -5.5018  -18.5237   22.2788 N.pl3   1  UNL1       -0.3024
      2 CL         -0.8747  -16.8837   20.5758 Cl      1  UNL1       -0.0822
      3 C          -2.0556  -17.7999   20.4486 C.ar    1  UNL1        0.0589
      4 C          -2.1037  -18.8123   19.3428 C.ar    1  UNL1        0.0115
      5 C          -3.2846  -19.7284   19.2156 C.ar    1  UNL1        0.0021
      6 C          -4.4173  -19.6322   20.1943 C.ar    1  UNL1        0.0146
      7 C          -4.3691  -18.6199   21.3001 C.ar    1  UNL1        0.0490
      8 C          -3.1882  -17.7038   21.4273 C.ar    1  UNL1        0.0259
      9 C          -5.5781  -17.3631   23.2259 C.3     1  UNL1        0.1045
     10 C          -6.5891  -16.2927   23.5125 C.3     1  UNL1        0.0900
     11 N          -5.6861  -15.7217   24.5654 N.3     1  UNL1       -0.2946
     12 C          -4.6751  -16.7921   24.2788 C.3     1  UNL1        0.0900
     13 H          -6.0726  -15.7558   25.5087 H       1  UNL1        0.1233
     14 C          -6.5582  -19.5882   22.3103 C.3     1  UNL1        0.1177
     15 C          -7.9870  -19.2357   22.0201 C.ar    1  UNL1       -0.0024
     16 C          -8.4515  -19.0953   20.6008 C.ar    1  UNL1       -0.0026
     17 C          -9.8803  -18.7428   20.3106 C.ar    1  UNL1       -0.0003
     18 C         -10.8447  -18.5307   21.4397 C.ar    1  UNL1       -0.0000
     19 C         -12.2735  -18.1782   21.1495 C.ar    1  UNL1       -0.0000
     20 C         -13.2378  -17.9661   22.2786 C.ar    1  UNL1       -0.0000
     21 C         -12.7734  -18.1065   23.6980 C.ar    1  UNL1       -0.0000
     22 C         -11.3446  -18.4590   23.9882 C.ar    1  UNL1       -0.0000
     23 C         -10.3803  -18.6711   22.8591 C.ar    1  UNL1       -0.0003
     24 C          -8.9514  -19.0236   23.1493 C.ar    1  UNL1       -0.0026
@<TRIPOS>BOND
     1     2     3    1
     2     3     4   ar
     3     4     5   ar
     4     5     6   ar
     5     6     7   ar
     6     7     1    1
     7     1    14    1
     8    14    15    1
     9    15    16   ar
    10    16    17   ar
    11    17    18   ar
    12    18    19   ar
    13    19    20   ar
    14    20    21   ar
    15    21    22   ar
    16    22    23   ar
    17    23    24   ar
    18     1     9    1
    19     9    10    1
    20    10    11    1
    21    11    12    1
    22     7     8   ar
    23     8     3   ar
    24    24    15   ar
    25    12     9    1
    26    23    18   ar
    27    11    13    1
@<TRIPOS>MOLECULE
*****
 24 27 0 0 0
SMALL
GASTEIGER

@<TRIPOS>ATOM
      1 N          -6.3359  -18.8551   22.0776 N.pl3   1  UNL1       -0.3024
      2 CL         -5.0961  -15.2792   25.6380 Cl      1  UNL1       -0.0822
      3 C          -5.9658  -15.7372   24.5049 C.ar    1  UNL1        0.0589
      4 C          -7.0853  -14.8650   24.0188 C.ar    1  UNL1        0.0115
      5 C          -7.9550  -15.3229   22.8857 C.ar    1  UNL1        0.0021
      6 C          -7.7052  -16.6530   22.2386 C.ar    1  UNL1        0.0146
      7 C          -6.5857  -17.5250   22.7247 C.ar    1  UNL1        0.0490
      8 C          -5.7160  -17.0671   23.8578 C.ar    1  UNL1        0.0259
      9 C          -4.9941  -19.1579   21.4794 C.3     1  UNL1        0.1045
     10 C          -3.6346  -19.4735   22.0291 C.3     1  UNL1        0.0900
     11 N          -3.0965  -19.5861   20.6334 N.3     1  UNL1       -0.2946
     12 C          -4.4560  -19.2705   20.0838 C.3     1  UNL1        0.0900
     13 H          -2.7556  -20.5168   20.3924 H       1  UNL1        0.1233
     14 C          -7.4279  -19.8823   22.0287 C.3     1  UNL1        0.1177
     15 C          -8.7532  -19.5991   22.6717 C.ar    1  UNL1       -0.0024
     16 C          -9.0183  -20.0553   24.0758 C.ar    1  UNL1       -0.0026
     17 C         -10.3436  -19.7722   24.7188 C.ar    1  UNL1       -0.0003
     18 C         -11.4038  -19.0328   23.9577 C.ar    1  UNL1       -0.0000
     19 C         -12.7291  -18.7496   24.6007 C.ar    1  UNL1       -0.0000
     20 C         -13.7892  -18.0103   23.8395 C.ar    1  UNL1       -0.0000
     21 C         -13.5241  -17.5541   22.4354 C.ar    1  UNL1       -0.0000
     22 C         -12.1989  -17.8372   21.7924 C.ar    1  UNL1       -0.0000
     23 C         -11.1387  -18.5766   22.5536 C.ar    1  UNL1       -0.0003
     24 C          -9.8134  -18.8597   21.9106 C.ar    1  UNL1       -0.0026
@<TRIPOS>BOND
     1     2     3    1
     2     3     4   ar
     3     4     5   ar
     4     5     6   ar
     5     6     7   ar
     6     7     1    1
     7     1    14    1
     8    14    15    1
     9    15    16   ar
    10    16    17   ar
    11    17    18   ar
    12    18    19   ar
    13    19    20   ar
    14    20    21   ar
    15    21    22   ar
    16    22    23   ar
    17    23    24   ar
    18     1     9    1
    19     9    10    1
    20    10    11    1
    21    11    12    1
    22     7     8   ar
    23     8     3   ar
    24    24    15   ar
    25    12     9    1
    26    23    18   ar
    27    11    13    1
@<TRIPOS>MOLECULE
*****
 24 27 0 0 0
SMALL
GASTEIGER

@<TRIPOS>ATOM
      1 N         -12.0117   -5.7899   17.5935 N.pl3   1  UNL1       -0.3024
      2 CL        -10.4078   -0.9044   16.8458 Cl      1  UNL1       -0.0822
      3 C         -11.1846   -1.9087   17.6444 C.ar    1  UNL1        0.0589
      4 C         -11.9363   -1.4747   18.8678 C.ar    1  UNL1        0.0115
      5 C         -12.7132   -2.4790   19.6664 C.ar    1  UNL1        0.0021
      6 C         -12.7383   -3.9175   19.2416 C.ar    1  UNL1        0.0146
      7 C         -11.9866   -4.3515   18.0183 C.ar    1  UNL1        0.0490
      8 C         -11.2098   -3.3471   17.2197 C.ar    1  UNL1        0.0259
      9 C         -10.8816   -6.7024   17.9680 C.3     1  UNL1        0.1045
     10 C         -10.4168   -8.0554   17.5171 C.3     1  UNL1        0.0900
     11 N          -9.2835   -7.9928   18.4977 N.3     1  UNL1       -0.2946
     12 C          -9.7483   -6.6398   18.9486 C.3     1  UNL1        0.0900
     13 H          -8.3591   -7.9932   18.0664 H       1  UNL1        0.1233
     14 C         -13.1669   -6.3158   16.7942 C.3     1  UNL1        0.1177
     15 C         -14.2506   -7.1024   17.4704 C.ar    1  UNL1       -0.0024
     16 C         -14.1591   -8.5979   17.5411 C.ar    1  UNL1       -0.0026
     17 C         -15.2426   -9.3845   18.2172 C.ar    1  UNL1       -0.0003
     18 C         -16.4177   -8.6755   18.8227 C.ar    1  UNL1       -0.0000
     19 C         -17.5013   -9.4621   19.4989 C.ar    1  UNL1       -0.0000
     20 C         -18.6763   -8.7531   20.1043 C.ar    1  UNL1       -0.0000
     21 C         -18.7677   -7.2576   20.0337 C.ar    1  UNL1       -0.0000
     22 C         -17.6842   -6.4710   19.3575 C.ar    1  UNL1       -0.0000
     23 C         -16.5092   -7.1800   18.7521 C.ar    1  UNL1       -0.0003
     24 C         -15.4256   -6.3934   18.0759 C.ar    1  UNL1       -0.0026
@<TRIPOS>BOND
     1     2     3    1
     2     3     4   ar
     3     4     5   ar
     4     5     6   ar
     5     6     7   ar
     6     7     1    1
     7     1    14    1
     8    14    15    1
     9    15    16   ar
    10    16    17   ar
    11    17    18   ar
    12    18    19   ar
    13    19    20   ar
    14    20    21   ar
    15    21    22   ar
    16    22    23   ar
    17    23    24   ar
    18     1     9    1
    19     9    10    1
    20    10    11    1
    21    11    12    1
    22     7     8   ar
    23     8     3   ar
    24    24    15   ar
    25    12     9    1
    26    23    18   ar
    27    11    13    1
