@<TRIPOS>MOLECULE
*****
 36 39 0 0 0
SMALL
GASTEIGER

@<TRIPOS>ATOM
      1 N         -10.8790  -17.1319   20.1367 N.ar    1  UNL1       -0.2962
      2 C         -10.8115  -18.5066   19.5403 C.ar    1  UNL1        0.1797
      3 N         -10.0229  -19.3780   20.4724 N.ar    1  UNL1       -0.2195
      4 C          -9.6030  -18.5418   21.6449 C.ar    1  UNL1        0.1484
      5 C          -8.8073  -18.8651   22.8746 C.ar    1  UNL1        0.1524
      6 N          -8.5407  -17.8003   23.8968 N.ar    1  UNL1       -0.1974
      7 C          -9.0697  -16.4122   23.6893 C.ar    1  UNL1        0.2195
      8 N          -9.8655  -16.0888   22.4595 N.ar    1  UNL1       -0.1947
      9 C         -10.1321  -17.1537   21.4373 C.ar    1  UNL1        0.1684
     10 C         -10.7791  -14.9088   18.7958 C.3     1  UNL1        0.0246
     11 C         -11.5717  -15.9439   19.5375 C.3     1  UNL1        0.0885
     12 C         -13.0570  -15.7911   19.6801 C.3     1  UNL1        0.0246
     13 N          -8.2782  -20.2533   23.0822 N.pl3   1  UNL1       -0.3131
     14 H          -8.5210  -20.7566   23.8927 H       1  UNL1        0.1485
     15 C          -7.3793  -20.8747   22.0547 C.3     1  UNL1        0.1154
     16 C          -6.0725  -20.2240   21.7096 C.ar    1  UNL1       -0.0026
     17 C          -5.3930  -20.5475   20.4121 C.ar    1  UNL1       -0.0026
     18 C          -4.0864  -19.8968   20.0672 C.ar    1  UNL1        0.0012
     19 C          -3.4591  -18.9224   21.0197 C.ar    1  UNL1        0.0176
     20 C          -4.1386  -18.5989   22.3172 C.ar    1  UNL1        0.0012
     21 C          -5.4453  -19.2497   22.6622 C.ar    1  UNL1       -0.0026
     22 C          -2.1524  -18.2717   20.6748 C.ar    1  UNL1        0.0813
     23 C          -1.9213  -16.8284   21.0116 C.ar    1  UNL1        0.0191
     24 C          -0.6146  -16.1776   20.6666 C.ar    1  UNL1        0.0031
     25 C           0.4610  -16.9702   19.9848 C.ar    1  UNL1        0.0207
     26 C           0.2299  -18.4135   19.6479 C.ar    1  UNL1        0.0988
     27 N          -1.0767  -19.0643   19.9929 N.ar    1  UNL1       -0.2438
     28 N          -8.8031  -15.3473   24.7116 N.pl3   1  UNL1       -0.3005
     29 H          -9.3794  -14.5502   24.7540 H       1  UNL1        0.1497
     30 C          -7.6583  -15.4968   25.6693 C.3     1  UNL1        0.1215
     31 C          -6.2715  -15.1127   25.2462 C.3     1  UNL1        0.1591
     32 O          -5.4205  -14.2658   26.1455 O.3     1  UNL1       -0.3802
     33 H          -5.9139  -14.0555   26.9537 H       1  UNL1        0.2105
     34 C          -5.7356  -15.5756   23.9238 C.3     1  UNL1        0.1680
     35 O          -5.0521  -14.6025   23.0095 O.3     1  UNL1       -0.3795
     36 H          -5.6930  -13.9422   22.7028 H       1  UNL1        0.2105
@<TRIPOS>BOND
     1    10    11    1
     2    11    12    1
     3    11     1    1
     4     1     2   ar
     5     2     3   ar
     6     3     4   ar
     7     4     5   ar
     8     5    13    1
     9    13    15    1
    10    15    16    1
    11    16    17   ar
    12    17    18   ar
    13    18    19   ar
    14    19    22    1
    15    22    23   ar
    16    23    24   ar
    17    24    25   ar
    18    25    26   ar
    19    26    27   ar
    20    19    20   ar
    21    20    21   ar
    22     5     6   ar
    23     6     7   ar
    24     7    28    1
    25    28    30    1
    26    30    31    1
    27    31    32    1
    28    31    34    1
    29    34    35    1
    30     7     8   ar
    31     8     9   ar
    32     9     1   ar
    33     9     4   ar
    34    21    16   ar
    35    27    22   ar
    36    13    14    1
    37    28    29    1
    38    32    33    1
    39    35    36    1
@<TRIPOS>MOLECULE
*****
 36 39 0 0 0
SMALL
GASTEIGER

@<TRIPOS>ATOM
      1 N           0.0434    1.8716   26.4629 N.ar    1  UNL1       -0.2962
      2 C           1.2279    1.4871   25.6268 C.ar    1  UNL1        0.1797
      3 N           1.0163    2.0313   24.2450 N.ar    1  UNL1       -0.2195
      4 C          -0.2991    2.7521   24.2272 C.ar    1  UNL1        0.1484
      5 C          -1.0270    3.4855   23.1399 C.ar    1  UNL1        0.1524
      6 N          -2.3562    4.1203   23.4234 N.ar    1  UNL1       -0.1974
      7 C          -2.9574    4.0217   24.7940 C.ar    1  UNL1        0.2195
      8 N          -2.2295    3.2882   25.8813 N.ar    1  UNL1       -0.1947
      9 C          -0.9003    2.6534   25.5979 C.ar    1  UNL1        0.1684
     10 C          -1.0607    0.3964   28.2945 C.3     1  UNL1        0.0246
     11 C          -0.1614    1.5337   27.9099 C.3     1  UNL1        0.0885
     12 C           0.5330    2.3330   28.9723 C.3     1  UNL1        0.0246
     13 N          -0.4258    3.5842   21.7692 N.pl3   1  UNL1       -0.3131
     14 H           0.1732    4.3333   21.5472 H       1  UNL1        0.1485
     15 C          -0.7370    2.5414   20.7369 C.3     1  UNL1        0.1154
     16 C           0.3143    1.5519   20.3297 C.ar    1  UNL1       -0.0026
     17 C           0.5961    0.3587   21.1938 C.ar    1  UNL1       -0.0026
     18 C           1.6474   -0.6306   20.7866 C.ar    1  UNL1        0.0012
     19 C           2.4168   -0.4269   19.5151 C.ar    1  UNL1        0.0176
     20 C           2.1349    0.7663   18.6510 C.ar    1  UNL1        0.0012
     21 C           1.0837    1.7557   19.0583 C.ar    1  UNL1       -0.0026
     22 C           3.4680   -1.4163   19.1079 C.ar    1  UNL1        0.0813
     23 C           3.2768   -2.8757   19.3974 C.ar    1  UNL1        0.0191
     24 C           4.3281   -3.8651   18.9902 C.ar    1  UNL1        0.0031
     25 C           5.5706   -3.3952   18.2934 C.ar    1  UNL1        0.0207
     26 C           5.7618   -1.9359   18.0040 C.ar    1  UNL1        0.0988
     27 N           4.7106   -0.9464   18.4112 N.ar    1  UNL1       -0.2438
     28 N          -4.2866    4.6565   25.0774 N.pl3   1  UNL1       -0.3005
     29 H          -4.3279    5.5425   25.5045 H       1  UNL1        0.1497
     30 C          -5.5529    3.9413   24.7100 C.3     1  UNL1        0.1215
     31 C          -5.9606    3.8294   23.2708 C.3     1  UNL1        0.1591
     32 O          -5.0214    3.2240   22.2701 O.3     1  UNL1       -0.3802
     33 H          -4.2013    2.9592   22.7154 H       1  UNL1        0.2105
     34 C          -7.3076    4.3230   22.8324 C.3     1  UNL1        0.1680
     35 O          -8.5498    3.7889   23.4817 O.3     1  UNL1       -0.3795
     36 H          -8.6455    2.8470   23.2707 H       1  UNL1        0.2105
@<TRIPOS>BOND
     1    10    11    1
     2    11    12    1
     3    11     1    1
     4     1     2   ar
     5     2     3   ar
     6     3     4   ar
     7     4     5   ar
     8     5    13    1
     9    13    15    1
    10    15    16    1
    11    16    17   ar
    12    17    18   ar
    13    18    19   ar
    14    19    22    1
    15    22    23   ar
    16    23    24   ar
    17    24    25   ar
    18    25    26   ar
    19    26    27   ar
    20    19    20   ar
    21    20    21   ar
    22     5     6   ar
    23     6     7   ar
    24     7    28    1
    25    28    30    1
    26    30    31    1
    27    31    32    1
    28    31    34    1
    29    34    35    1
    30     7     8   ar
    31     8     9   ar
    32     9     1   ar
    33     9     4   ar
    34    21    16   ar
    35    27    22   ar
    36    13    14    1
    37    28    29    1
    38    32    33    1
    39    35    36    1
@<TRIPOS>MOLECULE
*****
 36 39 0 0 0
SMALL
GASTEIGER

@<TRIPOS>ATOM
      1 N          -4.1625    3.9764   19.0879 N.ar    1  UNL1       -0.2962
      2 C          -2.8033    4.1111   18.4678 C.ar    1  UNL1        0.1797
      3 N          -1.7810    3.9676   19.5560 N.ar    1  UNL1       -0.2195
      4 C          -2.5083    3.7442   20.8487 C.ar    1  UNL1        0.1484
      5 C          -2.0206    3.5366   22.2519 C.ar    1  UNL1        0.1524
      6 N          -3.0046    3.3344   23.3658 N.ar    1  UNL1       -0.1974
      7 C          -4.4764    3.3399   23.0765 C.ar    1  UNL1        0.2195
      8 N          -4.9642    3.5475   21.6733 N.ar    1  UNL1       -0.1947
      9 C          -3.9801    3.7497   20.5594 C.ar    1  UNL1        0.1684
     10 C          -5.6701    5.0682   17.2754 C.3     1  UNL1        0.0246
     11 C          -5.4737    4.0548   18.3637 C.3     1  UNL1        0.0885
     12 C          -6.5886    3.1197   18.7277 C.3     1  UNL1        0.0246
     13 N          -0.5487    3.5311   22.5412 N.pl3   1  UNL1       -0.3131
     14 H           0.0317    4.2254   22.1536 H       1  UNL1        0.1485
     15 C           0.0387    2.4678   23.4211 C.3     1  UNL1        0.1154
     16 C           0.8853    1.3831   22.8237 C.ar    1  UNL1       -0.0026
     17 C           0.6402    0.9306   21.4147 C.ar    1  UNL1       -0.0026
     18 C           1.4867   -0.1540   20.8174 C.ar    1  UNL1        0.0012
     19 C           2.5784   -0.7862   21.6289 C.ar    1  UNL1        0.0176
     20 C           2.8235   -0.3337   23.0379 C.ar    1  UNL1        0.0012
     21 C           1.9769    0.7510   23.6352 C.ar    1  UNL1       -0.0026
     22 C           3.4250   -1.8707   21.0315 C.ar    1  UNL1        0.0813
     23 C           3.2677   -2.2338   19.5846 C.ar    1  UNL1        0.0191
     24 C           4.1143   -3.3185   18.9872 C.ar    1  UNL1        0.0031
     25 C           5.1181   -4.0400   19.8367 C.ar    1  UNL1        0.0207
     26 C           5.2754   -3.6770   21.2836 C.ar    1  UNL1        0.0988
     27 N           4.4289   -2.5924   21.8810 N.ar    1  UNL1       -0.2438
     28 N          -5.4605    3.1377   24.1904 N.pl3   1  UNL1       -0.3005
     29 H          -5.8493    2.2471   24.3481 H       1  UNL1        0.1497
     30 C          -5.8521    4.2924   25.0640 C.3     1  UNL1        0.1215
     31 C          -6.8224    5.3191   24.5597 C.3     1  UNL1        0.1591
     32 O          -6.8669    6.6809   25.1869 O.3     1  UNL1       -0.3802
     33 H          -6.2090    6.7310   25.8980 H       1  UNL1        0.2105
     34 C          -7.7482    4.9839   23.4280 C.3     1  UNL1        0.1680
     35 O          -8.5730    3.7321   23.4796 O.3     1  UNL1       -0.3795
     36 H          -7.9889    2.9584   23.4461 H       1  UNL1        0.2105
@<TRIPOS>BOND
     1    10    11    1
     2    11    12    1
     3    11     1    1
     4     1     2   ar
     5     2     3   ar
     6     3     4   ar
     7     4     5   ar
     8     5    13    1
     9    13    15    1
    10    15    16    1
    11    16    17   ar
    12    17    18   ar
    13    18    19   ar
    14    19    22    1
    15    22    23   ar
    16    23    24   ar
    17    24    25   ar
    18    25    26   ar
    19    26    27   ar
    20    19    20   ar
    21    20    21   ar
    22     5     6   ar
    23     6     7   ar
    24     7    28    1
    25    28    30    1
    26    30    31    1
    27    31    32    1
    28    31    34    1
    29    34    35    1
    30     7     8   ar
    31     8     9   ar
    32     9     1   ar
    33     9     4   ar
    34    21    16   ar
    35    27    22   ar
    36    13    14    1
    37    28    29    1
    38    32    33    1
    39    35    36    1
@<TRIPOS>MOLECULE
*****
 36 39 0 0 0
SMALL
GASTEIGER

@<TRIPOS>ATOM
      1 N           2.4442    1.2815   31.2850 N.ar    1  UNL1       -0.2962
      2 C           2.4822    0.2478   30.1987 C.ar    1  UNL1        0.1797
      3 N           3.2000   -0.9572   30.7304 N.ar    1  UNL1       -0.2195
      4 C           3.6056   -0.6683   32.1453 C.ar    1  UNL1        0.1484
      5 C           4.3399   -1.4864   33.1658 C.ar    1  UNL1        0.1524
      6 N           4.6072   -0.9208   34.5292 N.ar    1  UNL1       -0.1974
      7 C           4.1401    0.4627   34.8719 C.ar    1  UNL1        0.2195
      8 N           3.4058    1.2809   33.8514 N.ar    1  UNL1       -0.1947
      9 C           3.1385    0.7153   32.4881 C.ar    1  UNL1        0.1684
     10 C           0.4723    2.8958   31.7907 C.3     1  UNL1        0.0246
     11 C           1.8213    2.6425   31.1857 C.3     1  UNL1        0.0885
     12 C           2.5474    3.7500   30.4814 C.3     1  UNL1        0.0246
     13 N           4.8070   -2.8700   32.8231 N.pl3   1  UNL1       -0.3131
     14 H           4.1700   -3.6205   32.8306 H       1  UNL1        0.1485
     15 C           6.2447   -3.1100   32.4689 C.3     1  UNL1        0.1154
     16 C           6.5941   -3.8401   31.2060 C.ar    1  UNL1       -0.0026
     17 C           6.4956   -3.1399   29.8831 C.ar    1  UNL1       -0.0026
     18 C           6.8450   -3.8700   28.6203 C.ar    1  UNL1        0.0012
     19 C           7.2930   -5.3004   28.6803 C.ar    1  UNL1        0.0176
     20 C           7.3915   -6.0005   30.0032 C.ar    1  UNL1        0.0012
     21 C           7.0420   -5.2704   31.2660 C.ar    1  UNL1       -0.0026
     22 C           7.6424   -6.0305   27.4175 C.ar    1  UNL1        0.0813
     23 C           7.3229   -5.4198   26.0851 C.ar    1  UNL1        0.0191
     24 C           7.6724   -6.1499   24.8222 C.ar    1  UNL1        0.0031
     25 C           8.3413   -7.4907   24.8917 C.ar    1  UNL1        0.0207
     26 C           8.6607   -8.1013   26.2240 C.ar    1  UNL1        0.0988
     27 N           8.3114   -7.3713   27.4869 N.ar    1  UNL1       -0.2438
     28 N           4.4074    1.0283   36.2354 N.pl3   1  UNL1       -0.3005
     29 H           5.3070    0.9589   36.6294 H       1  UNL1        0.1497
     30 C           3.3041    1.6995   36.9984 C.3     1  UNL1        0.1215
     31 C           3.1382    1.4351   38.4655 C.3     1  UNL1        0.1591
     32 O           4.2034    1.8649   39.4303 O.3     1  UNL1       -0.3802
     33 H           4.9247    2.2951   38.9449 H       1  UNL1        0.2105
     34 C           1.9071    0.7407   38.9678 C.3     1  UNL1        0.1680
     35 O           1.9971   -0.1910   40.1399 O.3     1  UNL1       -0.3795
     36 H           2.5321   -0.9633   39.8987 H       1  UNL1        0.2105
@<TRIPOS>BOND
     1    10    11    1
     2    11    12    1
     3    11     1    1
     4     1     2   ar
     5     2     3   ar
     6     3     4   ar
     7     4     5   ar
     8     5    13    1
     9    13    15    1
    10    15    16    1
    11    16    17   ar
    12    17    18   ar
    13    18    19   ar
    14    19    22    1
    15    22    23   ar
    16    23    24   ar
    17    24    25   ar
    18    25    26   ar
    19    26    27   ar
    20    19    20   ar
    21    20    21   ar
    22     5     6   ar
    23     6     7   ar
    24     7    28    1
    25    28    30    1
    26    30    31    1
    27    31    32    1
    28    31    34    1
    29    34    35    1
    30     7     8   ar
    31     8     9   ar
    32     9     1   ar
    33     9     4   ar
    34    21    16   ar
    35    27    22   ar
    36    13    14    1
    37    28    29    1
    38    32    33    1
    39    35    36    1
@<TRIPOS>MOLECULE
*****
 36 39 0 0 0
SMALL
GASTEIGER

@<TRIPOS>ATOM
      1 N           3.9796    1.3307   35.2178 N.ar    1  UNL1       -0.2962
      2 C           4.7030    0.3596   36.1030 C.ar    1  UNL1        0.1797
      3 N           4.9008   -0.9118   35.3320 N.ar    1  UNL1       -0.2195
      4 C           4.2997   -0.7264   33.9702 C.ar    1  UNL1        0.1484
      5 C           4.1971   -1.6406   32.7854 C.ar    1  UNL1        0.1524
      6 N           3.5253   -1.1687   31.5301 N.ar    1  UNL1       -0.1974
      7 C           2.9559    0.2171   31.4595 C.ar    1  UNL1        0.2195
      8 N           3.0584    1.1314   32.6444 N.ar    1  UNL1       -0.1947
      9 C           3.7303    0.6595   33.8997 C.ar    1  UNL1        0.1684
     10 C           2.2206    3.2427   35.2027 C.3     1  UNL1        0.0246
     11 C           3.5762    2.7278   35.5861 C.3     1  UNL1        0.0885
     12 C           4.5285    3.6099   36.3376 C.3     1  UNL1        0.0246
     13 N           4.7665   -3.0265   32.8559 N.pl3   1  UNL1       -0.3131
     14 H           4.2048   -3.7744   33.1635 H       1  UNL1        0.1485
     15 C           6.1915   -3.2731   32.4579 C.3     1  UNL1        0.1154
     16 C           6.5019   -3.8996   31.1308 C.ar    1  UNL1       -0.0026
     17 C           6.9713   -5.3227   31.0646 C.ar    1  UNL1       -0.0026
     18 C           7.2816   -5.9491   29.7376 C.ar    1  UNL1        0.0012
     19 C           7.1224   -5.1525   28.4765 C.ar    1  UNL1        0.0176
     20 C           6.6530   -3.7294   28.5427 C.ar    1  UNL1        0.0012
     21 C           6.3427   -3.1030   29.8699 C.ar    1  UNL1       -0.0026
     22 C           7.4327   -5.7789   27.1495 C.ar    1  UNL1        0.0813
     23 C           7.7351   -7.2458   27.0648 C.ar    1  UNL1        0.0191
     24 C           8.0454   -7.8722   25.7377 C.ar    1  UNL1        0.0031
     25 C           8.0533   -7.0319   24.4952 C.ar    1  UNL1        0.0207
     26 C           7.7510   -5.5652   24.5799 C.ar    1  UNL1        0.0988
     27 N           7.4407   -4.9386   25.9069 N.ar    1  UNL1       -0.2438
     28 N           2.2840    0.6890   30.2040 N.pl3   1  UNL1       -0.3005
     29 H           2.3400    1.6363   29.9420 H       1  UNL1        0.1497
     30 C           1.5270   -0.2826   29.3479 C.3     1  UNL1        0.1215
     31 C           0.1098    0.0112   28.9537 C.3     1  UNL1        0.1591
     32 O          -0.9962   -0.9001   29.3969 O.3     1  UNL1       -0.3802
     33 H          -0.6262   -1.6240   29.9260 H       1  UNL1        0.2105
     34 C          -0.2012    1.2162   28.1163 C.3     1  UNL1        0.1680
     35 O           0.7372    2.3864   28.1083 O.3     1  UNL1       -0.3795
     36 H           0.7486    2.7977   28.9868 H       1  UNL1        0.2105
@<TRIPOS>BOND
     1    10    11    1
     2    11    12    1
     3    11     1    1
     4     1     2   ar
     5     2     3   ar
     6     3     4   ar
     7     4     5   ar
     8     5    13    1
     9    13    15    1
    10    15    16    1
    11    16    17   ar
    12    17    18   ar
    13    18    19   ar
    14    19    22    1
    15    22    23   ar
    16    23    24   ar
    17    24    25   ar
    18    25    26   ar
    19    26    27   ar
    20    19    20   ar
    21    20    21   ar
    22     5     6   ar
    23     6     7   ar
    24     7    28    1
    25    28    30    1
    26    30    31    1
    27    31    32    1
    28    31    34    1
    29    34    35    1
    30     7     8   ar
    31     8     9   ar
    32     9     1   ar
    33     9     4   ar
    34    21    16   ar
    35    27    22   ar
    36    13    14    1
    37    28    29    1
    38    32    33    1
    39    35    36    1
@<TRIPOS>MOLECULE
*****
 36 39 0 0 0
SMALL
GASTEIGER

@<TRIPOS>ATOM
      1 N          -4.9789    4.8344   18.4194 N.ar    1  UNL1       -0.2962
      2 C          -3.7982    4.9897   17.5074 C.ar    1  UNL1        0.1797
      3 N          -2.5851    4.4823   18.2292 N.ar    1  UNL1       -0.2195
      4 C          -3.0161    4.0134   19.5873 C.ar    1  UNL1        0.1484
      5 C          -2.2526    3.4164   20.7321 C.ar    1  UNL1        0.1524
      6 N          -2.9685    3.0371   21.9944 N.ar    1  UNL1       -0.1974
      7 C          -4.4479    3.2547   22.1120 C.ar    1  UNL1        0.2195
      8 N          -5.2115    3.8517   20.9671 N.ar    1  UNL1       -0.1947
      9 C          -4.4956    4.2310   19.7048 C.ar    1  UNL1        0.1684
     10 C          -7.4799    4.9757   19.1088 C.3     1  UNL1        0.0246
     11 C          -6.3945    5.2155   18.1017 C.3     1  UNL1        0.0885
     12 C          -6.7247    5.8365   16.7768 C.3     1  UNL1        0.0246
     13 N          -0.7731    3.1988   20.6146 N.pl3   1  UNL1       -0.3131
     14 H          -0.1816    3.4191   21.3702 H       1  UNL1        0.1485
     15 C          -0.1948    2.6457   19.3460 C.3     1  UNL1        0.1154
     16 C           0.7574    1.4878   19.3982 C.ar    1  UNL1       -0.0026
     17 C           1.9415    1.4483   18.4783 C.ar    1  UNL1       -0.0026
     18 C           2.8936    0.2905   18.5306 C.ar    1  UNL1        0.0012
     19 C           2.6616   -0.8281   19.5028 C.ar    1  UNL1        0.0176
     20 C           1.4775   -0.7886   20.4226 C.ar    1  UNL1        0.0012
     21 C           0.5253    0.3693   20.3703 C.ar    1  UNL1       -0.0026
     22 C           3.6137   -1.9859   19.5550 C.ar    1  UNL1        0.0813
     23 C           5.0454   -1.7627   19.9431 C.ar    1  UNL1        0.0191
     24 C           5.9976   -2.9206   19.9953 C.ar    1  UNL1        0.0031
     25 C           5.5180   -4.3017   19.6596 C.ar    1  UNL1        0.0207
     26 C           4.0864   -4.5248   19.2716 C.ar    1  UNL1        0.0988
     27 N           3.1342   -3.3670   19.2193 N.ar    1  UNL1       -0.2438
     28 N          -5.1639    2.8753   23.3744 N.pl3   1  UNL1       -0.3005
     29 H          -5.5490    1.9743   23.4701 H       1  UNL1        0.1497
     30 C          -5.2931    3.8687   24.4908 C.3     1  UNL1        0.1215
     31 C          -6.2222    5.0379   24.3506 C.3     1  UNL1        0.1591
     32 O          -5.7355    6.4235   24.6560 O.3     1  UNL1       -0.3802
     33 H          -4.8051    6.3867   24.9281 H       1  UNL1        0.2105
     34 C          -7.6381    4.8215   23.9048 C.3     1  UNL1        0.1680
     35 O          -7.9379    3.8417   22.8094 O.3     1  UNL1       -0.3795
     36 H          -7.5525    4.1587   21.9776 H       1  UNL1        0.2105
@<TRIPOS>BOND
     1    10    11    1
     2    11    12    1
     3    11     1    1
     4     1     2   ar
     5     2     3   ar
     6     3     4   ar
     7     4     5   ar
     8     5    13    1
     9    13    15    1
    10    15    16    1
    11    16    17   ar
    12    17    18   ar
    13    18    19   ar
    14    19    22    1
    15    22    23   ar
    16    23    24   ar
    17    24    25   ar
    18    25    26   ar
    19    26    27   ar
    20    19    20   ar
    21    20    21   ar
    22     5     6   ar
    23     6     7   ar
    24     7    28    1
    25    28    30    1
    26    30    31    1
    27    31    32    1
    28    31    34    1
    29    34    35    1
    30     7     8   ar
    31     8     9   ar
    32     9     1   ar
    33     9     4   ar
    34    21    16   ar
    35    27    22   ar
    36    13    14    1
    37    28    29    1
    38    32    33    1
    39    35    36    1
@<TRIPOS>MOLECULE
*****
 36 39 0 0 0
SMALL
GASTEIGER

@<TRIPOS>ATOM
      1 N           4.3529   -0.4907   32.1807 N.ar    1  UNL1       -0.2962
      2 C           3.0719    0.2462   31.9237 C.ar    1  UNL1        0.1797
      3 N           2.7281    0.0861   30.4725 N.ar    1  UNL1       -0.2195
      4 C           3.7967   -0.7496   29.8324 C.ar    1  UNL1        0.1484
      5 C           3.9851   -1.2321   28.4247 C.ar    1  UNL1        0.1524
      6 N           5.1777   -2.0711   28.0727 N.ar    1  UNL1       -0.1974
      7 C           6.1818   -2.4275   29.1284 C.ar    1  UNL1        0.2195
      8 N           5.9935   -1.9450   30.5362 N.ar    1  UNL1       -0.1947
      9 C           4.8009   -1.1061   30.8882 C.ar    1  UNL1        0.1684
     10 C           6.4036    0.0508   33.6812 C.3     1  UNL1        0.0246
     11 C           5.0616   -0.5939   33.4987 C.3     1  UNL1        0.0885
     12 C           4.4283   -1.3419   34.6342 C.3     1  UNL1        0.0246
     13 N           2.9810   -0.8757   27.3690 N.pl3   1  UNL1       -0.3131
     14 H           2.0426   -1.1568   27.4672 H       1  UNL1        0.1485
     15 C           3.4065   -0.0910   26.1635 C.3     1  UNL1        0.1154
     16 C           3.6454   -0.7914   24.8587 C.ar    1  UNL1       -0.0026
     17 C           2.8396   -0.4197   23.6494 C.ar    1  UNL1       -0.0026
     18 C           3.0785   -1.1201   22.3447 C.ar    1  UNL1        0.0012
     19 C           4.1233   -2.1923   22.2493 C.ar    1  UNL1        0.0176
     20 C           4.9291   -2.5640   23.4586 C.ar    1  UNL1        0.0012
     21 C           4.6901   -1.8635   24.7633 C.ar    1  UNL1       -0.0026
     22 C           4.3622   -2.8927   20.9446 C.ar    1  UNL1        0.0813
     23 C           3.7934   -4.2613   20.7129 C.ar    1  UNL1        0.0191
     24 C           4.0324   -4.9617   19.4081 C.ar    1  UNL1        0.0031
     25 C           4.8400   -4.2935   18.3351 C.ar    1  UNL1        0.0207
     26 C           5.4087   -2.9250   18.5669 C.ar    1  UNL1        0.0988
     27 N           5.1698   -2.2246   19.8715 N.ar    1  UNL1       -0.2438
     28 N           7.3745   -3.2665   28.7764 N.pl3   1  UNL1       -0.3005
     29 H           7.7477   -3.2341   27.8660 H       1  UNL1        0.1497
     30 C           7.9984   -4.1549   29.8116 C.3     1  UNL1        0.1215
     31 C           7.3740   -5.4791   30.1382 C.3     1  UNL1        0.1591
     32 O           7.0835   -6.4619   29.0430 O.3     1  UNL1       -0.3802
     33 H           7.3582   -6.0875   28.1913 H       1  UNL1        0.2105
     34 C           7.0402   -5.8203   31.5603 C.3     1  UNL1        0.1680
     35 O           6.3579   -4.8096   32.4337 O.3     1  UNL1       -0.3795
     36 H           6.9520   -4.0573   32.5825 H       1  UNL1        0.2105
@<TRIPOS>BOND
     1    10    11    1
     2    11    12    1
     3    11     1    1
     4     1     2   ar
     5     2     3   ar
     6     3     4   ar
     7     4     5   ar
     8     5    13    1
     9    13    15    1
    10    15    16    1
    11    16    17   ar
    12    17    18   ar
    13    18    19   ar
    14    19    22    1
    15    22    23   ar
    16    23    24   ar
    17    24    25   ar
    18    25    26   ar
    19    26    27   ar
    20    19    20   ar
    21    20    21   ar
    22     5     6   ar
    23     6     7   ar
    24     7    28    1
    25    28    30    1
    26    30    31    1
    27    31    32    1
    28    31    34    1
    29    34    35    1
    30     7     8   ar
    31     8     9   ar
    32     9     1   ar
    33     9     4   ar
    34    21    16   ar
    35    27    22   ar
    36    13    14    1
    37    28    29    1
    38    32    33    1
    39    35    36    1
@<TRIPOS>MOLECULE
*****
 36 39 0 0 0
SMALL
GASTEIGER

@<TRIPOS>ATOM
      1 N           3.6049   -1.9189   19.8750 N.ar    1  UNL1       -0.2962
      2 C           2.7504   -0.7904   19.3788 C.ar    1  UNL1        0.1797
      3 N           2.3588    0.0484   20.5591 N.ar    1  UNL1       -0.2195
      4 C           2.9714   -0.5618   21.7849 C.ar    1  UNL1        0.1484
      5 C           2.9274   -0.1674   23.2314 C.ar    1  UNL1        0.1524
      6 N           3.6536   -0.9889   24.2551 N.ar    1  UNL1       -0.1974
      7 C           4.4236   -2.2046   23.8323 C.ar    1  UNL1        0.2195
      8 N           4.4676   -2.5991   22.3857 N.ar    1  UNL1       -0.1947
      9 C           3.7415   -1.7776   21.3620 C.ar    1  UNL1        0.1684
     10 C           5.3707   -2.6828   18.1290 C.3     1  UNL1        0.0246
     11 C           4.2156   -2.9990   19.0321 C.3     1  UNL1        0.0885
     12 C           3.6711   -4.3954   19.0923 C.3     1  UNL1        0.0246
     13 N           2.1574    1.0484   23.6543 N.pl3   1  UNL1       -0.3131
     14 H           2.0464    1.8022   23.0308 H       1  UNL1        0.1485
     15 C           1.5564    1.1157   25.0270 C.3     1  UNL1        0.1154
     16 C           0.2858    1.8803   25.2527 C.ar    1  UNL1       -0.0026
     17 C          -0.2881    1.9903   26.6342 C.ar    1  UNL1       -0.0026
     18 C          -1.5586    2.7548   26.8598 C.ar    1  UNL1        0.0012
     19 C          -2.2554    3.4096   25.7040 C.ar    1  UNL1        0.0176
     20 C          -1.6815    3.2996   24.3225 C.ar    1  UNL1        0.0012
     21 C          -0.4109    2.5350   24.0969 C.ar    1  UNL1       -0.0026
     22 C          -3.5259    4.1742   25.9297 C.ar    1  UNL1        0.0813
     23 C          -4.7352    3.8837   25.0908 C.ar    1  UNL1        0.0191
     24 C          -6.0058    4.6484   25.3165 C.ar    1  UNL1        0.0031
     25 C          -6.0672    5.7034   26.3810 C.ar    1  UNL1        0.0207
     26 C          -4.8580    5.9938   27.2197 C.ar    1  UNL1        0.0988
     27 N          -3.5874    5.2293   26.9941 N.ar    1  UNL1       -0.2438
     28 N           5.1498   -3.0261   24.8561 N.pl3   1  UNL1       -0.3005
     29 H           4.9245   -3.9772   24.9740 H       1  UNL1        0.1497
     30 C           6.2191   -2.3984   25.7002 C.3     1  UNL1        0.1215
     31 C           5.9966   -2.2047   27.1709 C.3     1  UNL1        0.1591
     32 O           7.0177   -2.6939   28.1547 O.3     1  UNL1       -0.3802
     33 H           7.7539   -3.1079   27.6778 H       1  UNL1        0.2105
     34 C           4.7529   -1.5217   27.6576 C.3     1  UNL1        0.1680
     35 O           3.4065   -2.0047   27.2060 O.3     1  UNL1       -0.3795
     36 H           3.3120   -1.8538   26.2525 H       1  UNL1        0.2105
@<TRIPOS>BOND
     1    10    11    1
     2    11    12    1
     3    11     1    1
     4     1     2   ar
     5     2     3   ar
     6     3     4   ar
     7     4     5   ar
     8     5    13    1
     9    13    15    1
    10    15    16    1
    11    16    17   ar
    12    17    18   ar
    13    18    19   ar
    14    19    22    1
    15    22    23   ar
    16    23    24   ar
    17    24    25   ar
    18    25    26   ar
    19    26    27   ar
    20    19    20   ar
    21    20    21   ar
    22     5     6   ar
    23     6     7   ar
    24     7    28    1
    25    28    30    1
    26    30    31    1
    27    31    32    1
    28    31    34    1
    29    34    35    1
    30     7     8   ar
    31     8     9   ar
    32     9     1   ar
    33     9     4   ar
    34    21    16   ar
    35    27    22   ar
    36    13    14    1
    37    28    29    1
    38    32    33    1
    39    35    36    1
@<TRIPOS>MOLECULE
*****
 36 39 0 0 0
SMALL
GASTEIGER

@<TRIPOS>ATOM
      1 N           0.6720    4.0257   29.9586 N.ar    1  UNL1       -0.2962
      2 C           0.0896    4.6918   28.7473 C.ar    1  UNL1        0.1797
      3 N           0.0365    3.6792   27.6419 N.ar    1  UNL1       -0.2195
      4 C           0.5862    2.3873   28.1700 C.ar    1  UNL1        0.1484
      5 C           0.7798    1.0436   27.5321 C.ar    1  UNL1        0.1524
      6 N           1.3661   -0.0860   28.3260 N.ar    1  UNL1       -0.1974
      7 C           1.7588    0.1281   29.7576 C.ar    1  UNL1        0.2195
      8 N           1.5652    1.4719   30.3956 N.ar    1  UNL1       -0.1947
      9 C           0.9789    2.6014   29.6017 C.ar    1  UNL1        0.1684
     10 C           2.0410    5.6354   31.4700 C.3     1  UNL1        0.0246
     11 C           0.9063    4.6706   31.2924 C.3     1  UNL1        0.0885
     12 C           0.0060    4.3507   32.4487 C.3     1  UNL1        0.0246
     13 N           0.3871    0.8294   26.1003 N.pl3   1  UNL1       -0.3131
     14 H          -0.3877    0.2627   25.8819 H       1  UNL1        0.1485
     15 C           1.1749    1.4787   25.0014 C.3     1  UNL1        0.1154
     16 C           1.8054    0.6365   23.9321 C.ar    1  UNL1       -0.0026
     17 C           1.3893    0.8060   22.5010 C.ar    1  UNL1       -0.0026
     18 C           2.0198   -0.0362   21.4319 C.ar    1  UNL1        0.0012
     19 C           3.0665   -1.0480   21.7938 C.ar    1  UNL1        0.0176
     20 C           3.4825   -1.2174   23.2250 C.ar    1  UNL1        0.0012
     21 C           2.8520   -0.3752   24.2941 C.ar    1  UNL1       -0.0026
     22 C           3.6970   -1.8901   20.7247 C.ar    1  UNL1        0.0813
     23 C           4.2730   -3.2318   21.0689 C.ar    1  UNL1        0.0191
     24 C           4.9035   -4.0740   19.9998 C.ar    1  UNL1        0.0031
     25 C           4.9580   -3.5746   18.5864 C.ar    1  UNL1        0.0207
     26 C           4.3820   -2.2331   18.2422 C.ar    1  UNL1        0.0988
     27 N           3.7515   -1.3908   19.3113 N.ar    1  UNL1       -0.2438
     28 N           2.3452   -1.0016   30.5516 N.pl3   1  UNL1       -0.3005
     29 H           1.8892   -1.8737   30.5774 H       1  UNL1        0.1497
     30 C           3.6262   -0.8023   31.3060 C.3     1  UNL1        0.1215
     31 C           3.5945   -0.5502   32.7843 C.3     1  UNL1        0.1591
     32 O           2.9967    0.7186   33.3161 O.3     1  UNL1       -0.3802
     33 H           2.6797    1.2612   32.5772 H       1  UNL1        0.2105
     34 C           4.1607   -1.5669   33.7308 C.3     1  UNL1        0.1680
     35 O           4.0987   -3.0261   33.3889 O.3     1  UNL1       -0.3795
     36 H           3.1731   -3.3157   33.3742 H       1  UNL1        0.2105
@<TRIPOS>BOND
     1    10    11    1
     2    11    12    1
     3    11     1    1
     4     1     2   ar
     5     2     3   ar
     6     3     4   ar
     7     4     5   ar
     8     5    13    1
     9    13    15    1
    10    15    16    1
    11    16    17   ar
    12    17    18   ar
    13    18    19   ar
    14    19    22    1
    15    22    23   ar
    16    23    24   ar
    17    24    25   ar
    18    25    26   ar
    19    26    27   ar
    20    19    20   ar
    21    20    21   ar
    22     5     6   ar
    23     6     7   ar
    24     7    28    1
    25    28    30    1
    26    30    31    1
    27    31    32    1
    28    31    34    1
    29    34    35    1
    30     7     8   ar
    31     8     9   ar
    32     9     1   ar
    33     9     4   ar
    34    21    16   ar
    35    27    22   ar
    36    13    14    1
    37    28    29    1
    38    32    33    1
    39    35    36    1
