@<TRIPOS>MOLECULE
*****
 39 42 0 0 0
SMALL
GASTEIGER

@<TRIPOS>ATOM
      1 C           6.4557   -3.3823   20.2609 C.ar    1  UNL1        0.1432
      2 C           5.7432   -2.1252   19.8587 C.ar    1  UNL1        0.0691
      3 C           4.3668   -2.1997   19.2671 C.ar    1  UNL1        0.1368
      4 N           3.7029   -3.5314   19.0779 N.ar    1  UNL1       -0.2088
      5 C           4.4154   -4.7886   19.4801 C.ar    1  UNL1        0.2012
      6 N           5.7919   -4.7141   20.0717 N.ar    1  UNL1       -0.2085
      7 N           6.9570   -4.4235   23.0295 N.am    1  UNL1       -0.2663
      8 C           8.0828   -3.8284   22.2368 C.2     1  UNL1        0.3126
      9 O           9.4592   -3.7539   22.8283 O.2     1  UNL1       -0.2519
     10 N           7.8322   -3.3078   20.8525 N.am    1  UNL1       -0.2261
     11 C           8.9579   -2.7127   20.0598 C.3     1  UNL1        0.1231
     12 H           6.0536   -4.4724   22.6412 H       1  UNL1        0.1565
     13 C           8.1414   -6.7863   25.9900 C.ar    1  UNL1        0.1535
     14 C           7.7088   -5.9854   27.1822 C.ar    1  UNL1        0.0756
     15 C           7.0256   -4.6639   26.9902 C.ar    1  UNL1        0.1535
     16 C           6.7750   -4.1433   25.6060 C.ar    1  UNL1        0.1060
     17 CL          6.0917   -2.8218   25.4140 Cl      1  UNL1       -0.0777
     18 C           7.2076   -4.9442   24.4138 C.ar    1  UNL1        0.0788
     19 C           7.8908   -6.2656   24.6058 C.ar    1  UNL1        0.1060
     20 CL          8.3234   -7.0665   23.4134 Cl      1  UNL1       -0.0777
     21 C           8.4832   -8.9637   27.3655 C.3     1  UNL1        0.2525
     22 O           8.8247   -8.1078   26.1820 O.3     1  UNL1       -0.4704
     23 O           6.5929   -3.8631   28.1825 O.3     1  UNL1       -0.4704
     24 C           6.7915   -4.4097   29.5652 C.3     1  UNL1        0.2525
     25 N           3.6543   -0.9426   18.8649 N.pl3   1  UNL1       -0.2978
     26 H           3.8662   -0.5098   18.0064 H       1  UNL1        0.1536
     27 C           2.6188   -0.3447   19.7707 C.ar    1  UNL1        0.0506
     28 C           1.3419    0.1945   19.1971 C.ar    1  UNL1        0.0147
     29 C           0.3065    0.7923   20.1028 C.ar    1  UNL1        0.0025
     30 C           0.5478    0.8509   21.5821 C.ar    1  UNL1        0.0146
     31 C           1.8246    0.3117   22.1556 C.ar    1  UNL1        0.0492
     32 C           2.8601   -0.2861   21.2499 C.ar    1  UNL1        0.0291
     33 N           2.0660    0.3704   23.6350 N.pl3   1  UNL1       -0.3046
     34 C           1.1844    1.2157   24.5058 C.3     1  UNL1        0.1081
     35 C           1.4257    1.2743   25.9851 C.3     1  UNL1        0.0938
     36 N           2.5486    0.4877   26.5936 N.3     1  UNL1       -0.2686
     37 C           2.7900    0.5463   28.0729 C.3     1  UNL1        0.0897
     38 C           3.4302   -0.3576   25.7227 C.3     1  UNL1        0.0938
     39 C           3.1889   -0.4163   24.2435 C.3     1  UNL1        0.1081
@<TRIPOS>BOND
     1    21    22    1
     2    22    13    1
     3    13    14   ar
     4    14    15   ar
     5    15    23    1
     6    23    24    1
     7    15    16   ar
     8    16    17    1
     9    16    18   ar
    10    18     7    1
    11     7     8   am
    12     8     9    2
    13     8    10   am
    14    10    11    1
    15    10     1    1
    16     1     2   ar
    17     2     3   ar
    18     3    25    1
    19    25    27    1
    20    27    28   ar
    21    28    29   ar
    22    29    30   ar
    23    30    31   ar
    24    31    33    1
    25    33    34    1
    26    34    35    1
    27    35    36    1
    28    36    37    1
    29    36    38    1
    30    38    39    1
    31    31    32   ar
    32     3     4   ar
    33     4     5   ar
    34     5     6   ar
    35    18    19   ar
    36    19    20    1
    37    19    13   ar
    38     6     1   ar
    39    32    27   ar
    40    39    33    1
    41     7    12    1
    42    25    26    1
@<TRIPOS>MOLECULE
*****
 39 42 0 0 0
SMALL
GASTEIGER

@<TRIPOS>ATOM
      1 C           6.3932   -3.3668   20.2292 C.ar    1  UNL1        0.1432
      2 C           5.6729   -2.1127   19.8314 C.ar    1  UNL1        0.0691
      3 C           4.2866   -2.1918   19.2640 C.ar    1  UNL1        0.1368
      4 N           3.6206   -3.5250   19.0945 N.ar    1  UNL1       -0.2088
      5 C           4.3408   -4.7792   19.4924 C.ar    1  UNL1        0.2012
      6 N           5.7271   -4.7001   20.0598 N.ar    1  UNL1       -0.2085
      7 N           6.9436   -4.3946   22.9934 N.am    1  UNL1       -0.2663
      8 C           8.0547   -3.8016   22.1787 C.2     1  UNL1        0.3126
      9 O           9.4410   -3.7225   22.7461 O.2     1  UNL1       -0.2519
     10 N           7.7795   -3.2877   20.7966 N.am    1  UNL1       -0.2261
     11 C           8.8906   -2.6946   19.9819 C.3     1  UNL1        0.1231
     12 H           6.0337   -4.4466   22.6210 H       1  UNL1        0.1565
     13 C           7.0767   -4.6189   26.9535 C.ar    1  UNL1        0.1535
     14 C           7.7691   -5.9364   27.1397 C.ar    1  UNL1        0.0756
     15 C           8.1864   -6.7400   25.9438 C.ar    1  UNL1        0.1535
     16 C           7.9112   -6.2261   24.5617 C.ar    1  UNL1        0.1060
     17 CL          8.3285   -7.0297   23.3659 Cl      1  UNL1       -0.0777
     18 C           7.2188   -4.9086   24.3755 C.ar    1  UNL1        0.0788
     19 C           6.8015   -4.1050   25.5714 C.ar    1  UNL1        0.1060
     20 CL          6.1091   -2.7874   25.3852 Cl      1  UNL1       -0.0777
     21 C           6.7663   -4.4056   29.5241 C.3     1  UNL1        0.2525
     22 O           6.6594   -3.8153   28.1493 O.3     1  UNL1       -0.4704
     23 O           8.8788   -8.0575   26.1301 O.3     1  UNL1       -0.4704
     24 C           8.5565   -8.9126   27.3196 C.3     1  UNL1        0.2525
     25 N           3.5664   -0.9376   18.8661 N.pl3   1  UNL1       -0.2978
     26 H           3.7580   -0.5142   17.9982 H       1  UNL1        0.1536
     27 C           2.5541   -0.3286   19.7906 C.ar    1  UNL1        0.0506
     28 C           1.2804    0.2395   19.2385 C.ar    1  UNL1        0.0147
     29 C           0.2681    0.8485   20.1629 C.ar    1  UNL1        0.0025
     30 C           0.5297    0.8893   21.6393 C.ar    1  UNL1        0.0146
     31 C           1.8034    0.3212   22.1914 C.ar    1  UNL1        0.0492
     32 C           2.8156   -0.2878   21.2670 C.ar    1  UNL1        0.0291
     33 N           2.0649    0.3620   23.6679 N.pl3   1  UNL1       -0.3046
     34 C           3.1984   -0.4285   24.2510 C.3     1  UNL1        0.1081
     35 C           3.4599   -0.3877   25.7275 C.3     1  UNL1        0.0938
     36 N           2.5878    0.4438   26.6209 N.3     1  UNL1       -0.2686
     37 C           2.8492    0.4846   28.0973 C.3     1  UNL1        0.0897
     38 C           1.4542    1.2344   26.0377 C.3     1  UNL1        0.0938
     39 C           1.1928    1.1935   24.5613 C.3     1  UNL1        0.1081
@<TRIPOS>BOND
     1    21    22    1
     2    22    13    1
     3    13    14   ar
     4    14    15   ar
     5    15    23    1
     6    23    24    1
     7    15    16   ar
     8    16    17    1
     9    16    18   ar
    10    18     7    1
    11     7     8   am
    12     8     9    2
    13     8    10   am
    14    10    11    1
    15    10     1    1
    16     1     2   ar
    17     2     3   ar
    18     3    25    1
    19    25    27    1
    20    27    28   ar
    21    28    29   ar
    22    29    30   ar
    23    30    31   ar
    24    31    33    1
    25    33    34    1
    26    34    35    1
    27    35    36    1
    28    36    37    1
    29    36    38    1
    30    38    39    1
    31    31    32   ar
    32     3     4   ar
    33     4     5   ar
    34     5     6   ar
    35    18    19   ar
    36    19    20    1
    37    19    13   ar
    38     6     1   ar
    39    32    27   ar
    40    39    33    1
    41     7    12    1
    42    25    26    1
@<TRIPOS>MOLECULE
*****
 39 42 0 0 0
SMALL
GASTEIGER

@<TRIPOS>ATOM
      1 C           0.8302    3.2620   22.7037 C.ar    1  UNL1        0.1432
      2 C           0.9859    1.9625   21.9710 C.ar    1  UNL1        0.0691
      3 C          -0.0928    1.4920   21.0409 C.ar    1  UNL1        0.1368
      4 N          -1.3272    2.3210   20.8435 N.ar    1  UNL1       -0.2088
      5 C          -1.4829    3.6206   21.5763 C.ar    1  UNL1        0.2012
      6 N          -0.4042    4.0911   22.5064 N.ar    1  UNL1       -0.2085
      7 N           1.3114    1.8239   25.2922 N.am    1  UNL1       -0.2663
      8 C           2.1495    3.0134   24.9281 C.2     1  UNL1        0.3126
      9 O           3.2282    3.4839   25.8582 O.2     1  UNL1       -0.2519
     10 N           1.9089    3.7325   23.6338 N.am    1  UNL1       -0.2261
     11 C           2.7470    4.9220   23.2697 C.3     1  UNL1        0.1231
     12 H           0.6034    1.5151   24.6817 H       1  UNL1        0.1565
     13 C           0.9700    0.7215   29.0893 C.ar    1  UNL1        0.1535
     14 C           2.0331   -0.3333   29.1750 C.ar    1  UNL1        0.0756
     15 C           2.8556   -0.6689   27.9664 C.ar    1  UNL1        0.1535
     16 C           2.6151    0.0501   26.6721 C.ar    1  UNL1        0.1060
     17 CL          3.4376   -0.2856   25.4635 Cl      1  UNL1       -0.0777
     18 C           1.5520    1.1048   26.5865 C.ar    1  UNL1        0.0788
     19 C           0.7295    1.4405   27.7951 C.ar    1  UNL1        0.1060
     20 CL         -0.3337    2.4953   27.7094 Cl      1  UNL1       -0.0777
     21 C           0.5911    2.1472   31.2280 C.3     1  UNL1        0.2525
     22 O           0.1475    1.0572   30.2980 O.3     1  UNL1       -0.4704
     23 O           3.9187   -1.7237   28.0520 O.3     1  UNL1       -0.4704
     24 C           5.2783   -1.3769   28.5823 C.3     1  UNL1        0.2525
     25 N           0.0629    0.1925   20.3081 N.pl3   1  UNL1       -0.2978
     26 H          -0.7113   -0.4053   20.1962 H       1  UNL1        0.1536
     27 C           1.3981   -0.1963   19.7459 C.ar    1  UNL1        0.0506
     28 C           1.8077    0.2844   18.3853 C.ar    1  UNL1        0.0147
     29 C           3.1429   -0.1043   17.8231 C.ar    1  UNL1        0.0025
     30 C           4.0685   -0.9737   18.6214 C.ar    1  UNL1        0.0146
     31 C           3.6589   -1.4544   19.9820 C.ar    1  UNL1        0.0492
     32 C           2.3237   -1.0657   20.5443 C.ar    1  UNL1        0.0291
     33 N           4.5846   -2.3238   20.7804 N.pl3   1  UNL1       -0.3046
     34 C           4.2956   -2.5975   22.2266 C.3     1  UNL1        0.1081
     35 C           5.2213   -3.4669   23.0249 C.3     1  UNL1        0.0938
     36 N           6.4359   -4.0626   22.3770 N.3     1  UNL1       -0.2686
     37 C           7.3616   -4.9319   23.1753 C.3     1  UNL1        0.0897
     38 C           6.7249   -3.7888   20.9308 C.3     1  UNL1        0.0938
     39 C           5.7993   -2.9194   20.1325 C.3     1  UNL1        0.1081
@<TRIPOS>BOND
     1    21    22    1
     2    22    13    1
     3    13    14   ar
     4    14    15   ar
     5    15    23    1
     6    23    24    1
     7    15    16   ar
     8    16    17    1
     9    16    18   ar
    10    18     7    1
    11     7     8   am
    12     8     9    2
    13     8    10   am
    14    10    11    1
    15    10     1    1
    16     1     2   ar
    17     2     3   ar
    18     3    25    1
    19    25    27    1
    20    27    28   ar
    21    28    29   ar
    22    29    30   ar
    23    30    31   ar
    24    31    33    1
    25    33    34    1
    26    34    35    1
    27    35    36    1
    28    36    37    1
    29    36    38    1
    30    38    39    1
    31    31    32   ar
    32     3     4   ar
    33     4     5   ar
    34     5     6   ar
    35    18    19   ar
    36    19    20    1
    37    19    13   ar
    38     6     1   ar
    39    32    27   ar
    40    39    33    1
    41     7    12    1
    42    25    26    1
@<TRIPOS>MOLECULE
*****
 39 42 0 0 0
SMALL
GASTEIGER

@<TRIPOS>ATOM
      1 C           0.8423    3.2836   22.7001 C.ar    1  UNL1        0.1432
      2 C           0.9898    1.9839   21.9661 C.ar    1  UNL1        0.0691
      3 C          -0.0943    1.5185   21.0397 C.ar    1  UNL1        0.1368
      4 N          -1.3259    2.3528   20.8475 N.ar    1  UNL1       -0.2088
      5 C          -1.4734    3.6526   21.5815 C.ar    1  UNL1        0.2012
      6 N          -0.3893    4.1181   22.5078 N.ar    1  UNL1       -0.2085
      7 N           1.3272    1.8420   25.2859 N.am    1  UNL1       -0.2663
      8 C           2.1689    3.0282   24.9194 C.2     1  UNL1        0.3126
      9 O           3.2530    3.4936   25.8457 O.2     1  UNL1       -0.2519
     10 N           1.9265    3.7491   23.6264 N.am    1  UNL1       -0.2261
     11 C           2.7681    4.9353   23.2598 C.3     1  UNL1        0.1231
     12 H           0.6157    1.5365   24.6780 H       1  UNL1        0.1565
     13 C           2.8624   -0.6679   27.9494 C.ar    1  UNL1        0.1535
     14 C           2.0546   -0.3206   29.1646 C.ar    1  UNL1        0.0756
     15 C           1.0043    0.7476   29.0870 C.ar    1  UNL1        0.1535
     16 C           0.7619    1.4684   27.7941 C.ar    1  UNL1        0.1060
     17 CL         -0.2884    2.5366   27.7165 Cl      1  UNL1       -0.0777
     18 C           1.5697    1.1211   26.5789 C.ar    1  UNL1        0.0788
     19 C           2.6199    0.0530   26.6566 C.ar    1  UNL1        0.1060
     20 CL          3.4277   -0.2943   25.4412 Cl      1  UNL1       -0.0777
     21 C           5.2703   -1.4143   28.5776 C.3     1  UNL1        0.2525
     22 O           3.9126   -1.7360   28.0271 O.3     1  UNL1       -0.4704
     23 O           0.1965    1.0949   30.3023 O.3     1  UNL1       -0.4704
     24 C           0.7082    2.1138   31.2770 C.3     1  UNL1        0.2525
     25 N           0.0532    0.2187   20.3057 N.pl3   1  UNL1       -0.2978
     26 H          -0.7251   -0.3734   20.1919 H       1  UNL1        0.1536
     27 C           1.3865   -0.1790   19.7452 C.ar    1  UNL1        0.0506
     28 C           1.7973    0.2917   18.3815 C.ar    1  UNL1        0.0147
     29 C           3.1306   -0.1059   17.8209 C.ar    1  UNL1        0.0025
     30 C           4.0530   -0.9744   18.6240 C.ar    1  UNL1        0.0146
     31 C           3.6421   -1.4451   19.9877 C.ar    1  UNL1        0.0492
     32 C           2.3089   -1.0474   20.5483 C.ar    1  UNL1        0.0291
     33 N           4.5646   -2.3136   20.7908 N.pl3   1  UNL1       -0.3046
     34 C           4.2708   -2.5839   22.2367 C.3     1  UNL1        0.1081
     35 C           5.1933   -3.4524   23.0398 C.3     1  UNL1        0.0938
     36 N           6.4095   -4.0505   22.3969 N.3     1  UNL1       -0.2686
     37 C           7.3319   -4.9189   23.1999 C.3     1  UNL1        0.0897
     38 C           6.7032   -3.7801   20.9510 C.3     1  UNL1        0.0938
     39 C           5.7807   -2.9117   20.1480 C.3     1  UNL1        0.1081
@<TRIPOS>BOND
     1    21    22    1
     2    22    13    1
     3    13    14   ar
     4    14    15   ar
     5    15    23    1
     6    23    24    1
     7    15    16   ar
     8    16    17    1
     9    16    18   ar
    10    18     7    1
    11     7     8   am
    12     8     9    2
    13     8    10   am
    14    10    11    1
    15    10     1    1
    16     1     2   ar
    17     2     3   ar
    18     3    25    1
    19    25    27    1
    20    27    28   ar
    21    28    29   ar
    22    29    30   ar
    23    30    31   ar
    24    31    33    1
    25    33    34    1
    26    34    35    1
    27    35    36    1
    28    36    37    1
    29    36    38    1
    30    38    39    1
    31    31    32   ar
    32     3     4   ar
    33     4     5   ar
    34     5     6   ar
    35    18    19   ar
    36    19    20    1
    37    19    13   ar
    38     6     1   ar
    39    32    27   ar
    40    39    33    1
    41     7    12    1
    42    25    26    1
@<TRIPOS>MOLECULE
*****
 39 42 0 0 0
SMALL
GASTEIGER

@<TRIPOS>ATOM
      1 C           7.1775   -2.8069   29.8909 C.ar    1  UNL1        0.1432
      2 C           6.6226   -3.5641   28.7210 C.ar    1  UNL1        0.0691
      3 C           6.4488   -5.0517   28.8047 C.ar    1  UNL1        0.1368
      4 N           6.8299   -5.7820   30.0582 N.ar    1  UNL1       -0.2088
      5 C           7.3847   -5.0247   31.2282 C.ar    1  UNL1        0.2012
      6 N           7.5585   -3.5372   31.1445 N.ar    1  UNL1       -0.2085
      7 N           5.4630   -1.0000   31.5630 N.am    1  UNL1       -0.2663
      8 C           6.4940   -0.4159   30.6434 C.2     1  UNL1        0.3126
      9 O           6.6678    1.0717   30.5597 O.2     1  UNL1       -0.2519
     10 N           7.3513   -1.3193   29.8073 N.am    1  UNL1       -0.2261
     11 C           8.3823   -0.7352   28.8876 C.3     1  UNL1        0.1231
     12 H           5.3490   -1.9763   31.6179 H       1  UNL1        0.1565
     13 C           4.2220    1.2493   34.5881 C.ar    1  UNL1        0.1535
     14 C           2.8915    1.7103   34.0713 C.ar    1  UNL1        0.0756
     15 C           2.4181    1.2679   32.7184 C.ar    1  UNL1        0.1535
     16 C           3.2753    0.3645   31.8824 C.ar    1  UNL1        0.1060
     17 CL          2.8019   -0.0779   30.5295 Cl      1  UNL1       -0.0777
     18 C           4.6058   -0.0965   32.3991 C.ar    1  UNL1        0.0788
     19 C           5.0792    0.3459   33.7520 C.ar    1  UNL1        0.1060
     20 CL          6.4098   -0.1152   34.2687 Cl      1  UNL1       -0.0777
     21 C           4.4060    0.8507   37.1488 C.3     1  UNL1        0.2525
     22 O           4.6954    1.6917   35.9409 O.3     1  UNL1       -0.4704
     23 O           1.0875    1.7289   32.2017 O.3     1  UNL1       -0.4704
     24 C           0.9657    3.0645   31.5298 C.3     1  UNL1        0.2525
     25 N           5.8940   -5.8089   27.6348 N.pl3   1  UNL1       -0.2978
     26 H           4.9318   -6.0127   27.5919 H       1  UNL1        0.1536
     27 C           6.8052   -6.2556   26.5301 C.ar    1  UNL1        0.0506
     28 C           7.5588   -7.5465   26.6553 C.ar    1  UNL1        0.0147
     29 C           8.4699   -7.9932   25.5507 C.ar    1  UNL1        0.0025
     30 C           8.6275   -7.1490   24.3209 C.ar    1  UNL1        0.0146
     31 C           7.8740   -5.8581   24.1957 C.ar    1  UNL1        0.0492
     32 C           6.9628   -5.4114   25.3003 C.ar    1  UNL1        0.0291
     33 N           8.0316   -5.0139   22.9658 N.pl3   1  UNL1       -0.3046
     34 C           7.0562   -3.9098   22.6839 C.3     1  UNL1        0.1081
     35 C           7.2139   -3.0656   21.4541 C.3     1  UNL1        0.0938
     36 N           8.3469   -3.3255   20.5061 N.3     1  UNL1       -0.2686
     37 C           8.5046   -2.4814   19.2763 C.3     1  UNL1        0.0897
     38 C           9.3223   -4.4297   20.7880 C.3     1  UNL1        0.0938
     39 C           9.1646   -5.2739   22.0179 C.3     1  UNL1        0.1081
@<TRIPOS>BOND
     1    21    22    1
     2    22    13    1
     3    13    14   ar
     4    14    15   ar
     5    15    23    1
     6    23    24    1
     7    15    16   ar
     8    16    17    1
     9    16    18   ar
    10    18     7    1
    11     7     8   am
    12     8     9    2
    13     8    10   am
    14    10    11    1
    15    10     1    1
    16     1     2   ar
    17     2     3   ar
    18     3    25    1
    19    25    27    1
    20    27    28   ar
    21    28    29   ar
    22    29    30   ar
    23    30    31   ar
    24    31    33    1
    25    33    34    1
    26    34    35    1
    27    35    36    1
    28    36    37    1
    29    36    38    1
    30    38    39    1
    31    31    32   ar
    32     3     4   ar
    33     4     5   ar
    34     5     6   ar
    35    18    19   ar
    36    19    20    1
    37    19    13   ar
    38     6     1   ar
    39    32    27   ar
    40    39    33    1
    41     7    12    1
    42    25    26    1
@<TRIPOS>MOLECULE
*****
 39 42 0 0 0
SMALL
GASTEIGER

@<TRIPOS>ATOM
      1 C           5.0029   -3.0515   20.9565 C.ar    1  UNL1        0.1432
      2 C           6.2453   -3.7794   21.3766 C.ar    1  UNL1        0.0691
      3 C           6.5927   -3.8923   22.8314 C.ar    1  UNL1        0.1368
      4 N           5.6978   -3.2772   23.8662 N.ar    1  UNL1       -0.2088
      5 C           4.4553   -2.5492   23.4461 C.ar    1  UNL1        0.2012
      6 N           4.1079   -2.4364   21.9913 N.ar    1  UNL1       -0.2085
      7 N           3.9812   -0.4546   19.8554 N.am    1  UNL1       -0.2663
      8 C           4.1446   -1.6401   18.9511 C.2     1  UNL1        0.3126
      9 O           3.7972   -1.5272   17.4963 O.2     1  UNL1       -0.2519
     10 N           4.6554   -2.9386   19.5017 N.am    1  UNL1       -0.2261
     11 C           4.8188   -4.1241   18.5974 C.3     1  UNL1        0.1231
     12 H           4.2093   -0.5287   20.8103 H       1  UNL1        0.1565
     13 C           1.4836    2.4032   18.6957 C.ar    1  UNL1        0.1535
     14 C           2.4487    3.4408   18.2039 C.ar    1  UNL1        0.0756
     15 C           3.9247    3.1799   18.2625 C.ar    1  UNL1        0.1535
     16 C           4.4355    1.8815   18.8130 C.ar    1  UNL1        0.1060
     17 CL          5.9115    1.6206   18.8716 Cl      1  UNL1       -0.0777
     18 C           3.4704    0.8439   19.3049 C.ar    1  UNL1        0.0788
     19 C           1.9944    1.1048   19.2462 C.ar    1  UNL1        0.1060
     20 CL          1.0293    0.0672   19.7381 Cl      1  UNL1       -0.0777
     21 C          -0.5582    3.5313   17.5518 C.3     1  UNL1        0.2525
     22 O           0.0076    2.6641   18.6371 O.3     1  UNL1       -0.4704
     23 O           4.8898    4.2175   17.7706 O.3     1  UNL1       -0.4704
     24 C           4.4349    5.2627   16.7955 C.3     1  UNL1        0.2525
     25 N           7.8351   -4.6202   23.2515 N.pl3   1  UNL1       -0.2978
     26 H           8.6632   -4.5233   22.7280 H       1  UNL1        0.1536
     27 C           7.8158   -5.4959   24.4693 C.ar    1  UNL1        0.0506
     28 C           8.0900   -6.9650   24.3410 C.ar    1  UNL1        0.0147
     29 C           8.0707   -7.8407   25.5587 C.ar    1  UNL1        0.0025
     30 C           7.7773   -7.2472   26.9047 C.ar    1  UNL1        0.0146
     31 C           7.5031   -5.7780   27.0329 C.ar    1  UNL1        0.0492
     32 C           7.5224   -4.9024   25.8152 C.ar    1  UNL1        0.0291
     33 N           7.2097   -5.1845   28.3790 N.pl3   1  UNL1       -0.3046
     34 C           7.3215   -6.0309   29.6123 C.3     1  UNL1        0.1081
     35 C           7.0281   -5.4374   30.9584 C.3     1  UNL1        0.0938
     36 N           6.6228   -3.9976   31.0710 N.3     1  UNL1       -0.2686
     37 C           6.3294   -3.4041   32.4169 C.3     1  UNL1        0.0897
     38 C           6.5110   -3.1512   29.8375 C.3     1  UNL1        0.0938
     39 C           6.8045   -3.7447   28.4916 C.3     1  UNL1        0.1081
@<TRIPOS>BOND
     1    21    22    1
     2    22    13    1
     3    13    14   ar
     4    14    15   ar
     5    15    23    1
     6    23    24    1
     7    15    16   ar
     8    16    17    1
     9    16    18   ar
    10    18     7    1
    11     7     8   am
    12     8     9    2
    13     8    10   am
    14    10    11    1
    15    10     1    1
    16     1     2   ar
    17     2     3   ar
    18     3    25    1
    19    25    27    1
    20    27    28   ar
    21    28    29   ar
    22    29    30   ar
    23    30    31   ar
    24    31    33    1
    25    33    34    1
    26    34    35    1
    27    35    36    1
    28    36    37    1
    29    36    38    1
    30    38    39    1
    31    31    32   ar
    32     3     4   ar
    33     4     5   ar
    34     5     6   ar
    35    18    19   ar
    36    19    20    1
    37    19    13   ar
    38     6     1   ar
    39    32    27   ar
    40    39    33    1
    41     7    12    1
    42    25    26    1
@<TRIPOS>MOLECULE
*****
 39 42 0 0 0
SMALL
GASTEIGER

@<TRIPOS>ATOM
      1 C           7.6206   -3.1688   28.9789 C.ar    1  UNL1        0.1432
      2 C           6.9529   -2.7883   30.2670 C.ar    1  UNL1        0.0691
      3 C           6.5151   -3.8536   31.2281 C.ar    1  UNL1        0.1368
      4 N           6.7450   -5.2993   30.9010 N.ar    1  UNL1       -0.2088
      5 C           7.4128   -5.6798   29.6128 C.ar    1  UNL1        0.2012
      6 N           7.8506   -4.6146   28.6518 N.ar    1  UNL1       -0.2085
      7 N           6.2035   -2.8414   26.3550 N.am    1  UNL1       -0.2663
      8 C           7.3499   -1.9399   26.7059 C.2     1  UNL1        0.3126
      9 O           7.7877   -0.8747   25.7448 O.2     1  UNL1       -0.2519
     10 N           8.0585   -2.1036   28.0178 N.am    1  UNL1       -0.2261
     11 C           9.2049   -1.2022   28.3687 C.3     1  UNL1        0.1231
     12 H           5.9162   -3.5405   26.9858 H       1  UNL1        0.1565
     13 C           5.1523   -3.3866   22.5672 C.ar    1  UNL1        0.1535
     14 C           4.0779   -2.3503   22.4192 C.ar    1  UNL1        0.0756
     15 C           3.7121   -1.4778   23.5832 C.ar    1  UNL1        0.1535
     16 C           4.4206   -1.6414   24.8951 C.ar    1  UNL1        0.1060
     17 CL          4.0548   -0.7689   26.0591 Cl      1  UNL1       -0.0777
     18 C           5.4949   -2.6777   25.0431 C.ar    1  UNL1        0.0788
     19 C           5.8608   -3.5502   23.8791 C.ar    1  UNL1        0.1060
     20 CL          6.9352   -4.5865   24.0271 Cl      1  UNL1       -0.0777
     21 C           6.5171   -3.7805   20.3919 C.3     1  UNL1        0.2525
     22 O           5.5181   -4.2591   21.4032 O.3     1  UNL1       -0.4704
     23 O           2.6376   -0.4415   23.4352 O.3     1  UNL1       -0.4704
     24 C           2.9424    0.8640   22.7622 C.3     1  UNL1        0.2525
     25 N           5.8473   -3.4731   32.5162 N.pl3   1  UNL1       -0.2978
     26 H           5.8061   -4.1183   33.2586 H       1  UNL1        0.1536
     27 C           5.2423   -2.1094   32.6731 C.ar    1  UNL1        0.0506
     28 C           5.7031   -1.2073   33.7793 C.ar    1  UNL1        0.0147
     29 C           5.0982    0.1563   33.9363 C.ar    1  UNL1        0.0025
     30 C           4.0324    0.6177   32.9871 C.ar    1  UNL1        0.0146
     31 C           3.5715   -0.2845   31.8809 C.ar    1  UNL1        0.0492
     32 C           4.1764   -1.6481   31.7239 C.ar    1  UNL1        0.0291
     33 N           2.5056    0.1770   30.9316 N.pl3   1  UNL1       -0.3046
     34 C           1.6867    1.3911   31.2561 C.3     1  UNL1        0.1081
     35 C           0.6208    1.8525   30.3069 C.3     1  UNL1        0.0938
     36 N           0.3739    1.0998   29.0331 N.3     1  UNL1       -0.2686
     37 C          -0.6919    1.5612   28.0839 C.3     1  UNL1        0.0897
     38 C           1.1928   -0.1143   28.7086 C.3     1  UNL1        0.0938
     39 C           2.2586   -0.5757   29.6579 C.3     1  UNL1        0.1081
@<TRIPOS>BOND
     1    21    22    1
     2    22    13    1
     3    13    14   ar
     4    14    15   ar
     5    15    23    1
     6    23    24    1
     7    15    16   ar
     8    16    17    1
     9    16    18   ar
    10    18     7    1
    11     7     8   am
    12     8     9    2
    13     8    10   am
    14    10    11    1
    15    10     1    1
    16     1     2   ar
    17     2     3   ar
    18     3    25    1
    19    25    27    1
    20    27    28   ar
    21    28    29   ar
    22    29    30   ar
    23    30    31   ar
    24    31    33    1
    25    33    34    1
    26    34    35    1
    27    35    36    1
    28    36    37    1
    29    36    38    1
    30    38    39    1
    31    31    32   ar
    32     3     4   ar
    33     4     5   ar
    34     5     6   ar
    35    18    19   ar
    36    19    20    1
    37    19    13   ar
    38     6     1   ar
    39    32    27   ar
    40    39    33    1
    41     7    12    1
    42    25    26    1
@<TRIPOS>MOLECULE
*****
 39 42 0 0 0
SMALL
GASTEIGER

@<TRIPOS>ATOM
      1 C           7.6869   -3.0853   29.2102 C.ar    1  UNL1        0.1432
      2 C           6.9123   -2.7319   30.4452 C.ar    1  UNL1        0.0691
      3 C           6.4932   -3.8089   31.4015 C.ar    1  UNL1        0.1368
      4 N           6.8486   -5.2392   31.1228 N.ar    1  UNL1       -0.2088
      5 C           7.6232   -5.5927   29.8879 C.ar    1  UNL1        0.2012
      6 N           8.0424   -4.5158   28.9316 N.ar    1  UNL1       -0.2085
      7 N           6.3016   -2.8069   26.5638 N.am    1  UNL1       -0.2663
      8 C           7.4133   -1.8692   26.9307 C.2     1  UNL1        0.3126
      9 O           7.8325   -0.7922   25.9744 O.2     1  UNL1       -0.2519
     10 N           8.1060   -2.0084   28.2539 N.am    1  UNL1       -0.2261
     11 C           9.2177   -1.0706   28.6208 C.3     1  UNL1        0.1231
     12 H           6.0265   -3.5138   27.1914 H       1  UNL1        0.1565
     13 C           3.8230   -1.5160   23.7460 C.ar    1  UNL1        0.1535
     14 C           4.2237   -2.3894   22.5942 C.ar    1  UNL1        0.0756
     15 C           5.3169   -3.4020   22.7656 C.ar    1  UNL1        0.1535
     16 C           6.0096   -3.5412   24.0888 C.ar    1  UNL1        0.1060
     17 CL          7.1029   -4.5538   24.2601 Cl      1  UNL1       -0.0777
     18 C           5.6090   -2.6678   25.2405 C.ar    1  UNL1        0.0788
     19 C           4.5157   -1.6552   25.0691 C.ar    1  UNL1        0.1060
     20 CL          4.1150   -0.7818   26.2210 Cl      1  UNL1       -0.0777
     21 C           2.6955    0.3636   22.3510 C.3     1  UNL1        0.2525
     22 O           2.7297   -0.5034   23.5746 O.3     1  UNL1       -0.4704
     23 O           5.7176   -4.2754   21.6137 O.3     1  UNL1       -0.4704
     24 C           6.7362   -3.7917   20.6245 C.3     1  UNL1        0.2525
     25 N           5.7186   -3.4555   32.6364 N.pl3   1  UNL1       -0.2978
     26 H           5.6069   -4.1198   33.3543 H       1  UNL1        0.1536
     27 C           5.1142   -2.0898   32.7775 C.ar    1  UNL1        0.0506
     28 C           5.5448   -1.1913   33.8987 C.ar    1  UNL1        0.0147
     29 C           4.9404    0.1743   34.0398 C.ar    1  UNL1        0.0025
     30 C           3.9054    0.6413   33.0597 C.ar    1  UNL1        0.0146
     31 C           3.4748   -0.2573   31.9385 C.ar    1  UNL1        0.0492
     32 C           4.0791   -1.6228   31.7974 C.ar    1  UNL1        0.0291
     33 N           2.4397    0.2098   30.9584 N.pl3   1  UNL1       -0.3046
     34 C           1.6559    1.4588   31.2334 C.3     1  UNL1        0.1081
     35 C           0.6209    1.9258   30.2533 C.3     1  UNL1        0.0938
     36 N           0.3697    1.1438   28.9982 N.3     1  UNL1       -0.2686
     37 C          -0.6653    1.6108   28.0181 C.3     1  UNL1        0.0897
     38 C           1.1535   -0.1052   28.7231 C.3     1  UNL1        0.0938
     39 C           2.1885   -0.5722   29.7032 C.3     1  UNL1        0.1081
@<TRIPOS>BOND
     1    21    22    1
     2    22    13    1
     3    13    14   ar
     4    14    15   ar
     5    15    23    1
     6    23    24    1
     7    15    16   ar
     8    16    17    1
     9    16    18   ar
    10    18     7    1
    11     7     8   am
    12     8     9    2
    13     8    10   am
    14    10    11    1
    15    10     1    1
    16     1     2   ar
    17     2     3   ar
    18     3    25    1
    19    25    27    1
    20    27    28   ar
    21    28    29   ar
    22    29    30   ar
    23    30    31   ar
    24    31    33    1
    25    33    34    1
    26    34    35    1
    27    35    36    1
    28    36    37    1
    29    36    38    1
    30    38    39    1
    31    31    32   ar
    32     3     4   ar
    33     4     5   ar
    34     5     6   ar
    35    18    19   ar
    36    19    20    1
    37    19    13   ar
    38     6     1   ar
    39    32    27   ar
    40    39    33    1
    41     7    12    1
    42    25    26    1
@<TRIPOS>MOLECULE
*****
 39 42 0 0 0
SMALL
GASTEIGER

@<TRIPOS>ATOM
      1 C           7.9238   -3.8013   24.3007 C.ar    1  UNL1        0.1432
      2 C           7.3605   -4.3956   25.5574 C.ar    1  UNL1        0.0691
      3 C           7.3725   -5.8824   25.7550 C.ar    1  UNL1        0.1368
      4 N           7.9480   -6.7751   24.6958 N.ar    1  UNL1       -0.2088
      5 C           8.5114   -6.1809   23.4389 C.ar    1  UNL1        0.2012
      6 N           8.4993   -4.6940   23.2414 N.ar    1  UNL1       -0.2085
      7 N           6.4966   -2.6127   21.9448 N.am    1  UNL1       -0.2663
      8 C           7.1981   -1.7201   22.9251 C.2     1  UNL1        0.3126
      9 O           7.1861   -0.2332   22.7276 O.2     1  UNL1       -0.2519
     10 N           7.9118   -2.3145   24.1031 N.am    1  UNL1       -0.2261
     11 C           8.6133   -1.4219   25.0835 C.3     1  UNL1        0.1231
     12 H           6.5046   -3.5886   22.0744 H       1  UNL1        0.1565
     13 C           3.6001   -1.1331   19.6707 C.ar    1  UNL1        0.1535
     14 C           4.3557   -0.8298   18.4110 C.ar    1  UNL1        0.0756
     15 C           5.8250   -1.1207   18.3291 C.ar    1  UNL1        0.1535
     16 C           6.5386   -1.7150   19.5070 C.ar    1  UNL1        0.1060
     17 CL          8.0078   -2.0060   19.4252 Cl      1  UNL1       -0.0777
     18 C           5.7830   -2.0184   20.7668 C.ar    1  UNL1        0.0788
     19 C           4.3138   -1.7274   20.8486 C.ar    1  UNL1        0.1060
     20 CL          3.5582   -2.0308   22.1085 Cl      1  UNL1       -0.0777
     21 C           1.5568    0.3323   19.0171 C.3     1  UNL1        0.2525
     22 O           2.1309   -0.8422   19.7526 O.3     1  UNL1       -0.4704
     23 O           6.5806   -0.8173   17.0693 O.3     1  UNL1       -0.4704
     24 C           6.6798    0.5958   16.5761 C.3     1  UNL1        0.2525
     25 N           6.8091   -6.4767   27.0117 N.pl3   1  UNL1       -0.2978
     26 H           6.1344   -7.1916   26.9587 H       1  UNL1        0.1536
     27 C           7.2738   -5.9815   28.3493 C.ar    1  UNL1        0.0506
     28 C           8.4783   -6.5954   28.9992 C.ar    1  UNL1        0.0147
     29 C           8.9429   -6.1004   30.3367 C.ar    1  UNL1        0.0025
     30 C           8.2031   -4.9914   31.0243 C.ar    1  UNL1        0.0146
     31 C           6.9986   -4.3776   30.3744 C.ar    1  UNL1        0.0492
     32 C           6.5339   -4.8726   29.0369 C.ar    1  UNL1        0.0291
     33 N           6.2587   -3.2686   31.0621 N.pl3   1  UNL1       -0.3046
     34 C           5.8380   -3.4225   32.4936 C.3     1  UNL1        0.1081
     35 C           5.0981   -2.3135   33.1813 C.3     1  UNL1        0.0938
     36 N           4.7790   -1.0506   32.4374 N.3     1  UNL1       -0.2686
     37 C           4.0392    0.0583   33.1250 C.3     1  UNL1        0.0897
     38 C           5.1998   -0.8968   31.0058 C.3     1  UNL1        0.0938
     39 C           5.9396   -2.0057   30.3182 C.3     1  UNL1        0.1081
@<TRIPOS>BOND
     1    21    22    1
     2    22    13    1
     3    13    14   ar
     4    14    15   ar
     5    15    23    1
     6    23    24    1
     7    15    16   ar
     8    16    17    1
     9    16    18   ar
    10    18     7    1
    11     7     8   am
    12     8     9    2
    13     8    10   am
    14    10    11    1
    15    10     1    1
    16     1     2   ar
    17     2     3   ar
    18     3    25    1
    19    25    27    1
    20    27    28   ar
    21    28    29   ar
    22    29    30   ar
    23    30    31   ar
    24    31    33    1
    25    33    34    1
    26    34    35    1
    27    35    36    1
    28    36    37    1
    29    36    38    1
    30    38    39    1
    31    31    32   ar
    32     3     4   ar
    33     4     5   ar
    34     5     6   ar
    35    18    19   ar
    36    19    20    1
    37    19    13   ar
    38     6     1   ar
    39    32    27   ar
    40    39    33    1
    41     7    12    1
    42    25    26    1
