@<TRIPOS>MOLECULE
*****
 35 37 0 0 0
SMALL
GASTEIGER

@<TRIPOS>ATOM
      1 N           4.9300   -1.0356   19.1254 N.am    1  UNL1       -0.3005
      2 C           4.5377   -2.3803   19.6621 C.2     1  UNL1        0.2480
      3 O           3.5549   -3.2297   18.9118 O.2     1  UNL1       -0.2701
      4 H           5.5750   -0.4782   19.6178 H       1  UNL1        0.1498
      5 C           5.1281   -2.8756   20.9489 C.ar    1  UNL1        0.0808
      6 C           6.4186   -3.6401   20.9368 C.ar    1  UNL1        0.0068
      7 C           7.0090   -4.1354   22.2237 C.ar    1  UNL1        0.0003
      8 C           6.3090   -3.8662   23.5227 C.ar    1  UNL1        0.0022
      9 C           5.0185   -3.1017   23.5349 C.ar    1  UNL1        0.0298
     10 C           4.4280   -2.6064   22.2480 C.ar    1  UNL1        0.1444
     11 F           3.1376   -1.8419   22.2601 F       1  UNL1       -0.2040
     12 C           6.8995   -4.3615   24.8096 C.ar    1  UNL1        0.0001
     13 C           7.6248   -5.6740   24.8458 C.ar    1  UNL1        0.0009
     14 C           8.2152   -6.1693   26.1327 C.ar    1  UNL1        0.0114
     15 C           8.0804   -5.3521   27.3833 C.ar    1  UNL1        0.0577
     16 CL          8.6708   -5.8474   28.6702 Cl      1  UNL1       -0.0822
     17 C           7.3550   -4.0396   27.3471 C.ar    1  UNL1        0.0114
     18 C           6.7646   -3.5443   26.0602 C.ar    1  UNL1        0.0009
     19 C           4.3395   -0.5403   17.8385 C.3     1  UNL1        0.0944
     20 C           2.9721    0.0761   17.8290 C.3     1  UNL1        0.0476
     21 C           1.1086    1.4772   21.6779 C.ar    1  UNL1       -0.0023
     22 C           2.2308    2.2576   21.0603 C.ar    1  UNL1       -0.0029
     23 C           2.8520    1.7906   19.7773 C.ar    1  UNL1       -0.0045
     24 C           2.3509    0.5431   19.1120 C.ar    1  UNL1       -0.0205
     25 C           1.2288   -0.2373   19.7296 C.ar    1  UNL1       -0.0045
     26 C           0.6076    0.2297   21.0126 C.ar    1  UNL1       -0.0029
     27 C           0.4875    1.9442   22.9609 C.3     1  UNL1        0.1217
     28 N           0.2510    0.7157   26.7272 N.am    1  UNL1       -0.2888
     29 C          -0.0830    1.4051   25.4376 C.2     1  UNL1        0.3043
     30 O          -1.3216    2.2450   25.3351 O.2     1  UNL1       -0.2526
     31 N           0.8215    1.2548   24.2505 N.am    1  UNL1       -0.2584
     32 C           2.0602    0.4149   24.3530 C.3     1  UNL1        0.1168
     33 H           1.0640    0.1645   26.7945 H       1  UNL1        0.1510
     34 C          -1.1285   -0.3493   28.6540 C.3     1  UNL1        0.0230
     35 C          -0.6535    0.8661   27.9143 C.3     1  UNL1        0.0910
@<TRIPOS>BOND
     1    34    35    1
     2    35    28    1
     3    28    29   am
     4    29    30    2
     5    29    31   am
     6    31    32    1
     7    31    27    1
     8    27    21    1
     9    21    22   ar
    10    22    23   ar
    11    23    24   ar
    12    24    20    1
    13    20    19    1
    14    19     1    1
    15     1     2   am
    16     2     3    2
    17     2     5    1
    18     5     6   ar
    19     6     7   ar
    20     7     8   ar
    21     8    12    1
    22    12    13   ar
    23    13    14   ar
    24    14    15   ar
    25    15    16    1
    26    15    17   ar
    27    17    18   ar
    28     8     9   ar
    29     9    10   ar
    30    10    11    1
    31    24    25   ar
    32    25    26   ar
    33    26    21   ar
    34    10     5   ar
    35    18    12   ar
    36    28    33    1
    37     1     4    1
@<TRIPOS>MOLECULE
*****
 35 37 0 0 0
SMALL
GASTEIGER

@<TRIPOS>ATOM
      1 N           6.8083   -6.8712   27.2745 N.am    1  UNL1       -0.3005
      2 C           7.6841   -6.6116   28.4643 C.2     1  UNL1        0.2480
      3 O           8.9635   -7.3757   28.6348 O.2     1  UNL1       -0.2701
      4 H           5.9685   -6.3697   27.1626 H       1  UNL1        0.1498
      5 C           7.2803   -5.5881   29.4838 C.ar    1  UNL1        0.0808
      6 C           7.2128   -5.9610   30.9351 C.ar    1  UNL1        0.0068
      7 C           6.8090   -4.9374   31.9545 C.ar    1  UNL1        0.0003
      8 C           6.4727   -3.5409   31.5226 C.ar    1  UNL1        0.0022
      9 C           6.5401   -3.1679   30.0712 C.ar    1  UNL1        0.0298
     10 C           6.9439   -4.1915   29.0518 C.ar    1  UNL1        0.1444
     11 F           7.0113   -3.8186   27.6005 F       1  UNL1       -0.2040
     12 C           6.0689   -2.5173   32.5420 C.ar    1  UNL1        0.0001
     13 C           7.0259   -1.4308   32.9338 C.ar    1  UNL1        0.0009
     14 C           6.6221   -0.4072   33.9532 C.ar    1  UNL1        0.0114
     15 C           5.2613   -0.4701   34.5809 C.ar    1  UNL1        0.0577
     16 CL          4.8575    0.5535   35.6003 Cl      1  UNL1       -0.0822
     17 C           4.3041   -1.5566   34.1891 C.ar    1  UNL1        0.0114
     18 C           4.7079   -2.5802   33.1697 C.ar    1  UNL1        0.0009
     19 C           7.2121   -7.8948   26.2550 C.3     1  UNL1        0.0944
     20 C           8.4206   -7.6629   25.3974 C.3     1  UNL1        0.0476
     21 C           8.2129   -4.7786   21.9495 C.ar    1  UNL1       -0.0023
     22 C           7.5829   -4.4233   23.2635 C.ar    1  UNL1       -0.0029
     23 C           7.6521   -5.3847   24.4128 C.ar    1  UNL1       -0.0045
     24 C           8.3514   -6.7015   24.2481 C.ar    1  UNL1       -0.0205
     25 C           8.9814   -7.0568   22.9340 C.ar    1  UNL1       -0.0045
     26 C           8.9121   -6.0954   21.7847 C.ar    1  UNL1       -0.0029
     27 C           8.1437   -3.8172   20.8002 C.3     1  UNL1        0.1217
     28 N           4.6710   -1.9521   20.3401 N.am    1  UNL1       -0.2888
     29 C           5.7069   -3.0368   20.3492 C.2     1  UNL1        0.3043
     30 O           5.3422   -4.4259   19.9163 O.2     1  UNL1       -0.2526
     31 N           7.1077   -2.7325   20.7911 N.am    1  UNL1       -0.2584
     32 C           7.4724   -1.3434   21.2240 C.3     1  UNL1        0.1168
     33 H           4.9104   -1.0404   20.6242 H       1  UNL1        0.1510
     34 C           2.1881   -1.2333   20.0776 C.3     1  UNL1        0.0230
     35 C           3.2702   -2.2565   19.8982 C.3     1  UNL1        0.0910
@<TRIPOS>BOND
     1    34    35    1
     2    35    28    1
     3    28    29   am
     4    29    30    2
     5    29    31   am
     6    31    32    1
     7    31    27    1
     8    27    21    1
     9    21    22   ar
    10    22    23   ar
    11    23    24   ar
    12    24    20    1
    13    20    19    1
    14    19     1    1
    15     1     2   am
    16     2     3    2
    17     2     5    1
    18     5     6   ar
    19     6     7   ar
    20     7     8   ar
    21     8    12    1
    22    12    13   ar
    23    13    14   ar
    24    14    15   ar
    25    15    16    1
    26    15    17   ar
    27    17    18   ar
    28     8     9   ar
    29     9    10   ar
    30    10    11    1
    31    24    25   ar
    32    25    26   ar
    33    26    21   ar
    34    10     5   ar
    35    18    12   ar
    36    28    33    1
    37     1     4    1
@<TRIPOS>MOLECULE
*****
 35 37 0 0 0
SMALL
GASTEIGER

@<TRIPOS>ATOM
      1 N           6.5185   -4.5545   26.6634 N.am    1  UNL1       -0.3005
      2 C           7.4562   -4.5747   27.8341 C.2     1  UNL1        0.2480
      3 O           8.7723   -5.2864   27.7286 O.2     1  UNL1       -0.2701
      4 H           5.6546   -4.0874   26.7326 H       1  UNL1        0.1498
      5 C           7.0776   -3.8831   29.1102 C.ar    1  UNL1        0.0808
      6 C           6.7774   -2.4135   29.1063 C.ar    1  UNL1        0.0068
      7 C           6.3988   -1.7220   30.3824 C.ar    1  UNL1        0.0003
      8 C           6.3205   -2.5000   31.6624 C.ar    1  UNL1        0.0022
      9 C           6.6207   -3.9697   31.6663 C.ar    1  UNL1        0.0298
     10 C           6.9993   -4.6613   30.3902 C.ar    1  UNL1        0.1444
     11 F           7.2995   -6.1309   30.3941 F       1  UNL1       -0.2040
     12 C           5.9419   -1.8085   32.9385 C.ar    1  UNL1        0.0001
     13 C           6.9285   -0.9130   33.6274 C.ar    1  UNL1        0.0009
     14 C           6.5499   -0.2214   34.9036 C.ar    1  UNL1        0.0114
     15 C           5.1848   -0.4253   35.4907 C.ar    1  UNL1        0.0577
     16 CL          4.8063    0.2662   36.7668 Cl      1  UNL1       -0.0822
     17 C           4.1982   -1.3209   34.8017 C.ar    1  UNL1        0.0114
     18 C           4.5767   -2.0124   33.5256 C.ar    1  UNL1        0.0009
     19 C           6.8970   -5.2461   25.3873 C.3     1  UNL1        0.0944
     20 C           7.5705   -4.4778   24.2891 C.3     1  UNL1        0.0476
     21 C           5.3329   -3.5415   20.4988 C.ar    1  UNL1       -0.0023
     22 C           6.7876   -3.9027   20.4412 C.ar    1  UNL1       -0.0029
     23 C           7.5334   -4.2148   21.7046 C.ar    1  UNL1       -0.0045
     24 C           6.8246   -4.1657   23.0257 C.ar    1  UNL1       -0.0205
     25 C           5.3700   -3.8044   23.0832 C.ar    1  UNL1       -0.0045
     26 C           4.6241   -3.4923   21.8198 C.ar    1  UNL1       -0.0029
     27 C           4.5871   -3.2294   19.2353 C.3     1  UNL1        0.1217
     28 N           5.3541    0.1914   17.3753 N.am    1  UNL1       -0.2888
     29 C           5.4819   -1.2292   17.8393 C.2     1  UNL1        0.3043
     30 O           6.6324   -2.0705   17.3715 O.2     1  UNL1       -0.2526
     31 N           4.4593   -1.8087   18.7713 N.am    1  UNL1       -0.2584
     32 C           3.3088   -0.9675   19.2391 C.3     1  UNL1        0.1168
     33 H           4.5991    0.7435   17.6823 H       1  UNL1        0.1510
     34 C           7.6545    1.3358   16.9895 C.3     1  UNL1        0.0230
     35 C           6.3768    0.7709   16.4434 C.3     1  UNL1        0.0910
@<TRIPOS>BOND
     1    34    35    1
     2    35    28    1
     3    28    29   am
     4    29    30    2
     5    29    31   am
     6    31    32    1
     7    31    27    1
     8    27    21    1
     9    21    22   ar
    10    22    23   ar
    11    23    24   ar
    12    24    20    1
    13    20    19    1
    14    19     1    1
    15     1     2   am
    16     2     3    2
    17     2     5    1
    18     5     6   ar
    19     6     7   ar
    20     7     8   ar
    21     8    12    1
    22    12    13   ar
    23    13    14   ar
    24    14    15   ar
    25    15    16    1
    26    15    17   ar
    27    17    18   ar
    28     8     9   ar
    29     9    10   ar
    30    10    11    1
    31    24    25   ar
    32    25    26   ar
    33    26    21   ar
    34    10     5   ar
    35    18    12   ar
    36    28    33    1
    37     1     4    1
@<TRIPOS>MOLECULE
*****
 35 37 0 0 0
SMALL
GASTEIGER

@<TRIPOS>ATOM
      1 N           1.0424    0.8179   26.2021 N.am    1  UNL1       -0.3005
      2 C           0.3618    1.0980   27.5092 C.2     1  UNL1        0.2480
      3 O          -1.0582    1.5810   27.5271 O.2     1  UNL1       -0.2701
      4 H           1.9744    0.5009   26.1904 H       1  UNL1        0.1498
      5 C           1.1013    0.8952   28.7984 C.ar    1  UNL1        0.0808
      6 C           1.8495   -0.3820   29.0410 C.ar    1  UNL1        0.0068
      7 C           2.5889   -0.5848   30.3302 C.ar    1  UNL1        0.0003
      8 C           2.5803    0.4896   31.3768 C.ar    1  UNL1        0.0022
      9 C           1.8321    1.7670   31.1343 C.ar    1  UNL1        0.0298
     10 C           1.0926    1.9698   29.8451 C.ar    1  UNL1        0.1444
     11 F           0.3444    3.2470   29.6025 F       1  UNL1       -0.2040
     12 C           3.3197    0.2869   32.6660 C.ar    1  UNL1        0.0001
     13 C           3.3949    1.3984   33.6704 C.ar    1  UNL1        0.0009
     14 C           4.1344    1.1956   34.9596 C.ar    1  UNL1        0.0114
     15 C           4.7987   -0.1187   35.2444 C.ar    1  UNL1        0.0577
     16 CL          5.5382   -0.3215   36.5336 Cl      1  UNL1       -0.0822
     17 C           4.7236   -1.2304   34.2400 C.ar    1  UNL1        0.0114
     18 C           3.9841   -1.0276   32.9508 C.ar    1  UNL1        0.0009
     19 C           0.3029    1.0207   24.9129 C.3     1  UNL1        0.0944
     20 C           1.0196    1.5711   23.7158 C.3     1  UNL1        0.0476
     21 C           2.6159   -1.2210   20.5684 C.ar    1  UNL1       -0.0023
     22 C           1.3720   -0.4255   20.3042 C.ar    1  UNL1       -0.0029
     23 C           0.8399    0.5052   21.3533 C.ar    1  UNL1       -0.0045
     24 C           1.5517    0.6404   22.6667 C.ar    1  UNL1       -0.0205
     25 C           2.7956   -0.1551   22.9309 C.ar    1  UNL1       -0.0045
     26 C           3.3277   -1.0858   21.8818 C.ar    1  UNL1       -0.0029
     27 C           3.1480   -2.1517   19.5193 C.3     1  UNL1        0.1217
     28 N           6.2695   -0.6518   17.5812 N.am    1  UNL1       -0.2888
     29 C           4.8725   -0.8255   18.0991 C.2     1  UNL1        0.3043
     30 O           3.8030    0.1535   17.7146 O.2     1  UNL1       -0.2526
     31 N           4.5450   -1.9781   19.0015 N.am    1  UNL1       -0.2584
     32 C           5.6145   -2.9570   19.3859 C.3     1  UNL1        0.1168
     33 H           6.9714   -1.2943   17.8336 H       1  UNL1        0.1510
     34 C           7.5850    1.5403   17.1185 C.3     1  UNL1        0.0230
     35 C           6.5970    0.5008   16.6788 C.3     1  UNL1        0.0910
@<TRIPOS>BOND
     1    34    35    1
     2    35    28    1
     3    28    29   am
     4    29    30    2
     5    29    31   am
     6    31    32    1
     7    31    27    1
     8    27    21    1
     9    21    22   ar
    10    22    23   ar
    11    23    24   ar
    12    24    20    1
    13    20    19    1
    14    19     1    1
    15     1     2   am
    16     2     3    2
    17     2     5    1
    18     5     6   ar
    19     6     7   ar
    20     7     8   ar
    21     8    12    1
    22    12    13   ar
    23    13    14   ar
    24    14    15   ar
    25    15    16    1
    26    15    17   ar
    27    17    18   ar
    28     8     9   ar
    29     9    10   ar
    30    10    11    1
    31    24    25   ar
    32    25    26   ar
    33    26    21   ar
    34    10     5   ar
    35    18    12   ar
    36    28    33    1
    37     1     4    1
@<TRIPOS>MOLECULE
*****
 35 37 0 0 0
SMALL
GASTEIGER

@<TRIPOS>ATOM
      1 N          -0.6979    2.4518   24.8115 N.am    1  UNL1       -0.3005
      2 C           0.7206    2.5910   24.3439 C.2     1  UNL1        0.2480
      3 O           1.5010    3.8288   24.6739 O.2     1  UNL1       -0.2701
      4 H          -1.2100    1.6393   24.5949 H       1  UNL1        0.1498
      5 C           1.3587    1.4925   23.5464 C.ar    1  UNL1        0.0808
      6 C           1.0714    1.3665   22.0796 C.ar    1  UNL1        0.0068
      7 C           1.7095    0.2680   21.2820 C.ar    1  UNL1        0.0003
      8 C           2.6348   -0.7045   21.9512 C.ar    1  UNL1        0.0022
      9 C           2.9222   -0.5785   23.4181 C.ar    1  UNL1        0.0298
     10 C           2.2841    0.5200   24.2157 C.ar    1  UNL1        0.1444
     11 F           2.5714    0.6460   25.6825 F       1  UNL1       -0.2040
     12 C           3.2729   -1.8031   21.1537 C.ar    1  UNL1        0.0001
     13 C           3.0404   -1.8881   19.6743 C.ar    1  UNL1        0.0009
     14 C           3.6784   -2.9867   18.8767 C.ar    1  UNL1        0.0114
     15 C           4.5490   -4.0001   19.5585 C.ar    1  UNL1        0.0577
     16 CL          5.1871   -5.0986   18.7610 Cl      1  UNL1       -0.0822
     17 C           4.7816   -3.9151   21.0380 C.ar    1  UNL1        0.0114
     18 C           4.1436   -2.8165   21.8356 C.ar    1  UNL1        0.0009
     19 C          -1.3359    3.5503   25.6091 C.3     1  UNL1        0.0944
     20 C          -1.4233    3.4395   27.1024 C.3     1  UNL1        0.0476
     21 C           1.3164    0.6378   29.3147 C.ar    1  UNL1       -0.0023
     22 C           1.7121    2.0706   29.1137 C.ar    1  UNL1       -0.0029
     23 C           0.7989    3.0045   28.3762 C.ar    1  UNL1       -0.0045
     24 C          -0.5100    2.5056   27.8398 C.ar    1  UNL1       -0.0205
     25 C          -0.9057    1.0728   28.0409 C.ar    1  UNL1       -0.0045
     26 C           0.0075    0.1389   28.7784 C.ar    1  UNL1       -0.0029
     27 C           2.2297   -0.2961   30.0522 C.3     1  UNL1        0.1217
     28 N           5.6511   -1.0323   28.1809 N.am    1  UNL1       -0.2888
     29 C           4.1852   -1.0107   28.4980 C.2     1  UNL1        0.3043
     30 O           3.2088   -1.6821   27.5782 O.2     1  UNL1       -0.2526
     31 N           3.6956   -0.3177   29.7350 N.am    1  UNL1       -0.2584
     32 C           4.6719    0.3536   30.6548 C.3     1  UNL1        0.1168
     33 H           6.2919   -0.5917   28.7846 H       1  UNL1        0.1510
     34 C           6.4733   -3.1874   26.9851 C.3     1  UNL1        0.0230
     35 C           6.1407   -1.7253   26.9439 C.3     1  UNL1        0.0910
@<TRIPOS>BOND
     1    34    35    1
     2    35    28    1
     3    28    29   am
     4    29    30    2
     5    29    31   am
     6    31    32    1
     7    31    27    1
     8    27    21    1
     9    21    22   ar
    10    22    23   ar
    11    23    24   ar
    12    24    20    1
    13    20    19    1
    14    19     1    1
    15     1     2   am
    16     2     3    2
    17     2     5    1
    18     5     6   ar
    19     6     7   ar
    20     7     8   ar
    21     8    12    1
    22    12    13   ar
    23    13    14   ar
    24    14    15   ar
    25    15    16    1
    26    15    17   ar
    27    17    18   ar
    28     8     9   ar
    29     9    10   ar
    30    10    11    1
    31    24    25   ar
    32    25    26   ar
    33    26    21   ar
    34    10     5   ar
    35    18    12   ar
    36    28    33    1
    37     1     4    1
@<TRIPOS>MOLECULE
*****
 35 37 0 0 0
SMALL
GASTEIGER

@<TRIPOS>ATOM
      1 N           2.0708    1.7644   20.3691 N.am    1  UNL1       -0.3005
      2 C           0.9000    1.2083   21.1243 C.2     1  UNL1        0.2480
      3 O          -0.2124    0.5248   20.3860 O.2     1  UNL1       -0.2701
      4 H           2.8010    2.2130   20.8537 H       1  UNL1        0.1498
      5 C           0.8419    1.3357   22.6177 C.ar    1  UNL1        0.0808
      6 C          -0.2148    2.1868   23.2572 C.ar    1  UNL1        0.0068
      7 C          -0.2730    2.3142   24.7507 C.ar    1  UNL1        0.0003
      8 C           0.7255    1.5906   25.6046 C.ar    1  UNL1        0.0022
      9 C           1.7823    0.7395   24.9651 C.ar    1  UNL1        0.0298
     10 C           1.8405    0.6120   23.4716 C.ar    1  UNL1        0.1444
     11 F           2.8972   -0.2390   22.8321 F       1  UNL1       -0.2040
     12 C           0.6674    1.7180   27.0980 C.ar    1  UNL1        0.0001
     13 C           1.5967    2.6577   27.8073 C.ar    1  UNL1        0.0009
     14 C           1.5386    2.7851   29.3008 C.ar    1  UNL1        0.0114
     15 C           0.5510    1.9729   30.0849 C.ar    1  UNL1        0.0577
     16 CL          0.4929    2.1003   31.5784 Cl      1  UNL1       -0.0822
     17 C          -0.3784    1.0331   29.3756 C.ar    1  UNL1        0.0114
     18 C          -0.3203    0.9057   27.8822 C.ar    1  UNL1        0.0009
     19 C           2.1289    1.6370   18.8757 C.3     1  UNL1        0.0944
     20 C           2.6797    0.3898   18.2502 C.3     1  UNL1        0.0476
     21 C           4.9808   -2.5563   20.7553 C.ar    1  UNL1       -0.0023
     22 C           5.6405   -1.2929   20.2879 C.ar    1  UNL1       -0.0029
     23 C           4.8735   -0.3108   19.4529 C.ar    1  UNL1       -0.0045
     24 C           3.4468   -0.5922   19.0852 C.ar    1  UNL1       -0.0205
     25 C           2.7871   -1.8557   19.5526 C.ar    1  UNL1       -0.0045
     26 C           3.5541   -2.8377   20.3876 C.ar    1  UNL1       -0.0029
     27 C           5.7479   -3.5384   21.5903 C.3     1  UNL1        0.1217
     28 N           6.4888   -4.2815   25.4176 N.am    1  UNL1       -0.2888
     29 C           6.5440   -4.3654   23.9210 C.2     1  UNL1        0.3043
     30 O           7.4505   -5.3600   23.2585 O.2     1  UNL1       -0.2526
     31 N           5.6927   -3.4545   23.0869 N.am    1  UNL1       -0.2584
     32 C           4.7862   -2.4598   23.7494 C.3     1  UNL1        0.1168
     33 H           5.8939   -3.6287   25.8524 H       1  UNL1        0.1510
     34 C           6.8533   -6.5692   26.5939 C.3     1  UNL1        0.0230
     35 C           7.3402   -5.1923   26.2518 C.3     1  UNL1        0.0910
@<TRIPOS>BOND
     1    34    35    1
     2    35    28    1
     3    28    29   am
     4    29    30    2
     5    29    31   am
     6    31    32    1
     7    31    27    1
     8    27    21    1
     9    21    22   ar
    10    22    23   ar
    11    23    24   ar
    12    24    20    1
    13    20    19    1
    14    19     1    1
    15     1     2   am
    16     2     3    2
    17     2     5    1
    18     5     6   ar
    19     6     7   ar
    20     7     8   ar
    21     8    12    1
    22    12    13   ar
    23    13    14   ar
    24    14    15   ar
    25    15    16    1
    26    15    17   ar
    27    17    18   ar
    28     8     9   ar
    29     9    10   ar
    30    10    11    1
    31    24    25   ar
    32    25    26   ar
    33    26    21   ar
    34    10     5   ar
    35    18    12   ar
    36    28    33    1
    37     1     4    1
@<TRIPOS>MOLECULE
*****
 35 37 0 0 0
SMALL
GASTEIGER

@<TRIPOS>ATOM
      1 N           2.3395    0.4869   30.3045 N.am    1  UNL1       -0.3005
      2 C           3.0299    1.2646   29.2234 C.2     1  UNL1        0.2480
      3 O           3.6038    2.6177   29.5226 O.2     1  UNL1       -0.2701
      4 H           1.9628   -0.4012   30.1081 H       1  UNL1        0.1498
      5 C           3.1463    0.6890   27.8431 C.ar    1  UNL1        0.0808
      6 C           2.5108    1.3929   26.6810 C.ar    1  UNL1        0.0068
      7 C           2.6272    0.8174   25.3007 C.ar    1  UNL1        0.0003
      8 C           3.3791   -0.4621   25.0825 C.ar    1  UNL1        0.0022
      9 C           4.0147   -1.1660   26.2447 C.ar    1  UNL1        0.0298
     10 C           3.8983   -0.5905   27.6250 C.ar    1  UNL1        0.1444
     11 F           4.5338   -1.2944   28.7872 F       1  UNL1       -0.2040
     12 C           3.4955   -1.0376   23.7022 C.ar    1  UNL1        0.0001
     13 C           2.7361   -0.4201   22.5657 C.ar    1  UNL1        0.0009
     14 C           2.8525   -0.9956   21.1854 C.ar    1  UNL1        0.0114
     15 C           3.7283   -2.1887   20.9417 C.ar    1  UNL1        0.0577
     16 CL          3.8447   -2.7642   19.5614 Cl      1  UNL1       -0.0822
     17 C           4.4878   -2.8063   22.0783 C.ar    1  UNL1        0.0114
     18 C           4.3714   -2.2308   23.4586 C.ar    1  UNL1        0.0009
     19 C           2.2231    1.0625   31.6848 C.3     1  UNL1        0.0944
     20 C           3.3079    0.8207   32.6921 C.3     1  UNL1        0.0476
     21 C           6.4853   -2.2609   31.8813 C.ar    1  UNL1       -0.0023
     22 C           5.2505   -2.6396   32.6440 C.ar    1  UNL1       -0.0029
     23 C           4.1914   -1.6123   32.9143 C.ar    1  UNL1       -0.0045
     24 C           4.3670   -0.2065   32.4218 C.ar    1  UNL1       -0.0205
     25 C           5.6018    0.1722   31.6591 C.ar    1  UNL1       -0.0045
     26 C           6.6610   -0.8550   31.3888 C.ar    1  UNL1       -0.0029
     27 C           7.5445   -3.2881   31.6110 C.3     1  UNL1        0.1217
     28 N           6.5923   -5.8010   28.6906 N.am    1  UNL1       -0.2888
     29 C           6.9435   -4.5333   29.4113 C.2     1  UNL1        0.3043
     30 O           7.0451   -3.2430   28.6532 O.2     1  UNL1       -0.2526
     31 N           7.1932   -4.5558   30.8903 N.am    1  UNL1       -0.2584
     32 C           7.0917   -5.8461   31.6484 C.3     1  UNL1        0.1168
     33 H           6.5256   -6.6479   29.1882 H       1  UNL1        0.1510
     34 C           7.4736   -6.0194   26.2563 C.3     1  UNL1        0.0230
     35 C           6.3426   -5.7785   27.2117 C.3     1  UNL1        0.0910
@<TRIPOS>BOND
     1    34    35    1
     2    35    28    1
     3    28    29   am
     4    29    30    2
     5    29    31   am
     6    31    32    1
     7    31    27    1
     8    27    21    1
     9    21    22   ar
    10    22    23   ar
    11    23    24   ar
    12    24    20    1
    13    20    19    1
    14    19     1    1
    15     1     2   am
    16     2     3    2
    17     2     5    1
    18     5     6   ar
    19     6     7   ar
    20     7     8   ar
    21     8    12    1
    22    12    13   ar
    23    13    14   ar
    24    14    15   ar
    25    15    16    1
    26    15    17   ar
    27    17    18   ar
    28     8     9   ar
    29     9    10   ar
    30    10    11    1
    31    24    25   ar
    32    25    26   ar
    33    26    21   ar
    34    10     5   ar
    35    18    12   ar
    36    28    33    1
    37     1     4    1
@<TRIPOS>MOLECULE
*****
 35 37 0 0 0
SMALL
GASTEIGER

@<TRIPOS>ATOM
      1 N           5.5238   -2.1959   19.0703 N.am    1  UNL1       -0.3005
      2 C           6.9079   -2.3688   19.6222 C.2     1  UNL1        0.2480
      3 O           8.0666   -1.6717   18.9731 O.2     1  UNL1       -0.2701
      4 H           4.7633   -2.6534   19.4963 H       1  UNL1        0.1498
      5 C           7.1331   -3.2388   20.8231 C.ar    1  UNL1        0.0808
      6 C           6.1354   -3.2441   21.9432 C.ar    1  UNL1        0.0068
      7 C           6.3607   -4.1141   23.1441 C.ar    1  UNL1        0.0003
      8 C           7.5836   -4.9789   23.2251 C.ar    1  UNL1        0.0022
      9 C           8.5814   -4.9736   22.1050 C.ar    1  UNL1        0.0298
     10 C           8.3562   -4.1036   20.9040 C.ar    1  UNL1        0.1444
     11 F           9.3538   -4.0983   19.7840 F       1  UNL1       -0.2040
     12 C           7.8088   -5.8489   24.4260 C.ar    1  UNL1        0.0001
     13 C           7.1854   -5.4874   25.7416 C.ar    1  UNL1        0.0009
     14 C           7.4107   -6.3575   26.9425 C.ar    1  UNL1        0.0114
     15 C           8.2593   -7.5890   26.8280 C.ar    1  UNL1        0.0577
     16 CL          8.4846   -8.4590   28.0289 Cl      1  UNL1       -0.0822
     17 C           8.8828   -7.9505   25.5124 C.ar    1  UNL1        0.0114
     18 C           8.6575   -7.0805   24.3114 C.ar    1  UNL1        0.0009
     19 C           5.2986   -1.3258   17.8693 C.3     1  UNL1        0.0944
     20 C           5.2541    0.1657   18.0215 C.3     1  UNL1        0.0476
     21 C           1.3094    2.2516   18.6030 C.ar    1  UNL1       -0.0023
     22 C           2.5885    3.0312   18.6798 C.ar    1  UNL1       -0.0029
     23 C           3.9034    2.3359   18.4859 C.ar    1  UNL1       -0.0045
     24 C           3.9392    0.8610   18.2153 C.ar    1  UNL1       -0.0205
     25 C           2.6601    0.0814   18.1385 C.ar    1  UNL1       -0.0045
     26 C           1.3452    0.7767   18.3324 C.ar    1  UNL1       -0.0029
     27 C          -0.0055    2.9469   18.7968 C.3     1  UNL1        0.1217
     28 N          -2.9110    3.0972   21.4960 N.am    1  UNL1       -0.2888
     29 C          -2.1775    3.2292   20.1943 C.2     1  UNL1        0.3043
     30 O          -2.8825    3.7755   18.9882 O.2     1  UNL1       -0.2526
     31 N          -0.7390    2.8149   20.0986 N.am    1  UNL1       -0.2584
     32 C          -0.0340    2.2686   21.3046 C.3     1  UNL1        0.1168
     33 H          -2.4483    2.7387   22.2876 H       1  UNL1        0.1510
     34 C          -5.1480    3.1717   22.8152 C.3     1  UNL1        0.0230
     35 C          -4.3495    3.5115   21.5917 C.3     1  UNL1        0.0910
@<TRIPOS>BOND
     1    34    35    1
     2    35    28    1
     3    28    29   am
     4    29    30    2
     5    29    31   am
     6    31    32    1
     7    31    27    1
     8    27    21    1
     9    21    22   ar
    10    22    23   ar
    11    23    24   ar
    12    24    20    1
    13    20    19    1
    14    19     1    1
    15     1     2   am
    16     2     3    2
    17     2     5    1
    18     5     6   ar
    19     6     7   ar
    20     7     8   ar
    21     8    12    1
    22    12    13   ar
    23    13    14   ar
    24    14    15   ar
    25    15    16    1
    26    15    17   ar
    27    17    18   ar
    28     8     9   ar
    29     9    10   ar
    30    10    11    1
    31    24    25   ar
    32    25    26   ar
    33    26    21   ar
    34    10     5   ar
    35    18    12   ar
    36    28    33    1
    37     1     4    1
@<TRIPOS>MOLECULE
*****
 35 37 0 0 0
SMALL
GASTEIGER

@<TRIPOS>ATOM
      1 N           1.2177    0.8818   26.0815 N.am    1  UNL1       -0.3005
      2 C           0.4699    1.0547   27.3703 C.2     1  UNL1        0.2480
      3 O          -0.9848    1.4198   27.3502 O.2     1  UNL1       -0.2701
      4 H           2.1725    0.6422   26.0947 H       1  UNL1        0.1498
      5 C           1.1769    0.8626   28.6792 C.ar    1  UNL1        0.0808
      6 C           1.9096   -0.4169   28.9551 C.ar    1  UNL1        0.0068
      7 C           2.6166   -0.6090   30.2640 C.ar    1  UNL1        0.0003
      8 C           2.5909    0.4782   31.2970 C.ar    1  UNL1        0.0022
      9 C           1.8581    1.7577   31.0212 C.ar    1  UNL1        0.0298
     10 C           1.1511    1.9499   29.7123 C.ar    1  UNL1        0.1444
     11 F           0.4184    3.2293   29.4364 F       1  UNL1       -0.2040
     12 C           3.2979    0.2861   32.6059 C.ar    1  UNL1        0.0001
     13 C           3.3059    1.3886   33.6229 C.ar    1  UNL1        0.0009
     14 C           4.0129    1.1964   34.9318 C.ar    1  UNL1        0.0114
     15 C           4.7119   -0.0982   35.2237 C.ar    1  UNL1        0.0577
     16 CL          5.4189   -0.2904   36.5326 Cl      1  UNL1       -0.0822
     17 C           4.7038   -1.2009   34.2067 C.ar    1  UNL1        0.0114
     18 C           3.9968   -1.0087   32.8978 C.ar    1  UNL1        0.0009
     19 C           0.5107    1.0739   24.7726 C.3     1  UNL1        0.0944
     20 C           1.0340    2.0654   23.7760 C.3     1  UNL1        0.0476
     21 C           2.1404    0.7160   19.6281 C.ar    1  UNL1       -0.0023
     22 C           3.1677    1.3719   20.5024 C.ar    1  UNL1       -0.0029
     23 C           2.7989    1.8217   21.8850 C.ar    1  UNL1       -0.0045
     24 C           1.4028    1.6156   22.3934 C.ar    1  UNL1       -0.0205
     25 C           0.3755    0.9596   21.5191 C.ar    1  UNL1       -0.0045
     26 C           0.7443    0.5099   20.1364 C.ar    1  UNL1       -0.0029
     27 C           2.5092    0.2662   18.2454 C.3     1  UNL1        0.1217
     28 N           5.1388   -2.6918   18.5370 N.am    1  UNL1       -0.2888
     29 C           3.9062   -1.8647   18.7528 C.2     1  UNL1        0.3043
     30 O           2.8381   -2.3414   19.6919 O.2     1  UNL1       -0.2526
     31 N           3.7418   -0.5608   18.0296 N.am    1  UNL1       -0.2584
     32 C           4.8099   -0.0841   17.0905 C.3     1  UNL1        0.1168
     33 H           5.8399   -2.3789   17.9206 H       1  UNL1        0.1510
     34 C           4.5474   -5.2077   18.8026 C.3     1  UNL1        0.0230
     35 C           5.3033   -3.9956   19.2602 C.3     1  UNL1        0.0910
@<TRIPOS>BOND
     1    34    35    1
     2    35    28    1
     3    28    29   am
     4    29    30    2
     5    29    31   am
     6    31    32    1
     7    31    27    1
     8    27    21    1
     9    21    22   ar
    10    22    23   ar
    11    23    24   ar
    12    24    20    1
    13    20    19    1
    14    19     1    1
    15     1     2   am
    16     2     3    2
    17     2     5    1
    18     5     6   ar
    19     6     7   ar
    20     7     8   ar
    21     8    12    1
    22    12    13   ar
    23    13    14   ar
    24    14    15   ar
    25    15    16    1
    26    15    17   ar
    27    17    18   ar
    28     8     9   ar
    29     9    10   ar
    30    10    11    1
    31    24    25   ar
    32    25    26   ar
    33    26    21   ar
    34    10     5   ar
    35    18    12   ar
    36    28    33    1
    37     1     4    1
