@<TRIPOS>MOLECULE
*****
 29 32 0 0 0
SMALL
GASTEIGER

@<TRIPOS>ATOM
      1 N          -5.9577  -18.1886   22.2397 N.ar    1  UNL1       -0.3048
      2 C          -7.0736  -19.1800   22.0921 C.ar    1  UNL1        0.0833
      3 C          -8.1892  -18.7612   23.0032 C.ar    1  UNL1        0.0601
      4 C          -7.7627  -17.5110   23.7140 C.ar    1  UNL1        0.0481
      5 C          -8.4520  -16.6492   24.7298 C.ar    1  UNL1        0.1416
      6 F          -9.8312  -17.0030   25.2017 F       1  UNL1       -0.2041
      7 C          -7.7621  -15.4334   25.2739 C.ar    1  UNL1        0.0297
      8 C          -6.3829  -15.0795   24.8020 C.ar    1  UNL1        0.0038
      9 C          -5.6936  -15.9414   23.7861 C.ar    1  UNL1        0.0177
     10 C          -6.3835  -17.1571   23.2421 C.ar    1  UNL1        0.0663
     11 C          -2.0230  -18.2909   20.0585 C.ar    1  UNL1        0.0141
     12 C          -2.0973  -17.7237   21.4451 C.ar    1  UNL1        0.0026
     13 C          -3.4089  -17.6896   22.1722 C.ar    1  UNL1        0.0176
     14 C          -4.6461  -18.2227   21.5127 C.ar    1  UNL1        0.0640
     15 C          -4.5718  -18.7899   20.1260 C.ar    1  UNL1        0.0176
     16 C          -3.2602  -18.8239   19.3989 C.ar    1  UNL1        0.0026
     17 O          -0.6254  -17.8349   17.9164 O.co2   1  UNL1       -0.5446
     18 C          -0.7114  -18.3249   19.3314 C.2     1  UNL1        0.0729
     19 O           0.5142  -18.8490   20.0195 O.co2   1  UNL1       -0.5446
     20 C          -9.5010  -19.4684   23.1737 C.2     1  UNL1        0.1987
     21 O          -9.5477  -20.8124   23.8379 O.2     1  UNL1       -0.2865
     22 C         -10.7662  -18.8315   22.6798 C.ar    1  UNL1        0.0601
     23 C         -11.9005  -18.5823   23.6290 C.ar    1  UNL1        0.0615
     24 CL        -11.7697  -18.9700   25.0722 Cl      1  UNL1       -0.0821
     25 C         -13.1656  -17.9455   23.1352 C.ar    1  UNL1        0.0115
     26 C         -13.2964  -17.5578   21.6921 C.ar    1  UNL1        0.0017
     27 C         -12.1620  -17.8070   20.7429 C.ar    1  UNL1        0.0115
     28 C         -10.8969  -18.4438   21.2366 C.ar    1  UNL1        0.0615
     29 CL         -9.7625  -18.6930   20.2874 Cl      1  UNL1       -0.0821
@<TRIPOS>UNITY_ATOM_ATTR
17 1
charge -1
@<TRIPOS>BOND
     1    17    18   ar
     2    18    19   ar
     3    18    11    1
     4    11    12   ar
     5    12    13   ar
     6    13    14   ar
     7    14     1    1
     8     1     2   ar
     9     2     3   ar
    10     3    20    1
    11    20    21    2
    12    20    22    1
    13    22    23   ar
    14    23    24    1
    15    23    25   ar
    16    25    26   ar
    17    26    27   ar
    18    27    28   ar
    19    28    29    1
    20     3     4   ar
    21     4     5   ar
    22     5     6    1
    23     5     7   ar
    24     7     8   ar
    25     8     9   ar
    26     9    10   ar
    27    14    15   ar
    28    15    16   ar
    29    16    11   ar
    30    10     1   ar
    31    28    22   ar
    32    10     4   ar
@<TRIPOS>MOLECULE
*****
 29 32 0 0 0
SMALL
GASTEIGER

@<TRIPOS>ATOM
      1 N          -5.9582  -18.1857   22.2394 N.ar    1  UNL1       -0.3048
      2 C          -7.0713  -19.1806   22.0939 C.ar    1  UNL1        0.0833
      3 C          -8.1879  -18.7632   23.0044 C.ar    1  UNL1        0.0601
      4 C          -7.7650  -17.5103   23.7125 C.ar    1  UNL1        0.0481
      5 C          -8.4566  -16.6483   24.7266 C.ar    1  UNL1        0.1416
      6 F          -9.8347  -17.0052   25.1994 F       1  UNL1       -0.2041
      7 C          -7.7702  -15.4295   25.2680 C.ar    1  UNL1        0.0297
      8 C          -6.3921  -15.0726   24.7952 C.ar    1  UNL1        0.0038
      9 C          -5.7005  -15.9345   23.7810 C.ar    1  UNL1        0.0177
     10 C          -6.3869  -17.1534   23.2396 C.ar    1  UNL1        0.0663
     11 C          -2.0235  -18.2811   20.0577 C.ar    1  UNL1        0.0141
     12 C          -2.0874  -17.7725   21.4673 C.ar    1  UNL1        0.0026
     13 C          -3.3990  -17.7407   22.1945 C.ar    1  UNL1        0.0176
     14 C          -4.6467  -18.2175   21.5122 C.ar    1  UNL1        0.0640
     15 C          -4.5828  -18.7262   20.1024 C.ar    1  UNL1        0.0176
     16 C          -3.2713  -18.7580   19.3752 C.ar    1  UNL1        0.0026
     17 O          -0.6302  -17.8372   17.9103 O.co2   1  UNL1       -0.5446
     18 C          -0.7120  -18.3129   19.3305 C.2     1  UNL1        0.0729
     19 O           0.5177  -18.8204   20.0235 O.co2   1  UNL1       -0.5446
     20 C          -9.4976  -19.4738   23.1765 C.2     1  UNL1        0.1987
     21 O          -9.5391  -20.8213   23.8340 O.2     1  UNL1       -0.2865
     22 C         -10.7661  -18.8369   22.6911 C.ar    1  UNL1        0.0601
     23 C         -10.9049  -18.4453   21.2498 C.ar    1  UNL1        0.0615
     24 CL         -9.7752  -18.6908   20.2939 Cl      1  UNL1       -0.0821
     25 C         -12.1732  -17.8084   20.7644 C.ar    1  UNL1        0.0115
     26 C         -13.3027  -17.5630   21.7203 C.ar    1  UNL1        0.0017
     27 C         -13.1639  -17.9546   23.1617 C.ar    1  UNL1        0.0115
     28 C         -11.8956  -18.5915   23.6471 C.ar    1  UNL1        0.0615
     29 CL        -11.7568  -18.9830   25.0884 Cl      1  UNL1       -0.0821
@<TRIPOS>UNITY_ATOM_ATTR
17 1
charge -1
@<TRIPOS>BOND
     1    17    18   ar
     2    18    19   ar
     3    18    11    1
     4    11    12   ar
     5    12    13   ar
     6    13    14   ar
     7    14     1    1
     8     1     2   ar
     9     2     3   ar
    10     3    20    1
    11    20    21    2
    12    20    22    1
    13    22    23   ar
    14    23    24    1
    15    23    25   ar
    16    25    26   ar
    17    26    27   ar
    18    27    28   ar
    19    28    29    1
    20     3     4   ar
    21     4     5   ar
    22     5     6    1
    23     5     7   ar
    24     7     8   ar
    25     8     9   ar
    26     9    10   ar
    27    14    15   ar
    28    15    16   ar
    29    16    11   ar
    30    10     1   ar
    31    28    22   ar
    32    10     4   ar
@<TRIPOS>MOLECULE
*****
 29 32 0 0 0
SMALL
GASTEIGER

@<TRIPOS>ATOM
      1 N          -6.2613  -18.6981   21.4281 N.ar    1  UNL1       -0.3048
      2 C          -6.9037  -18.3352   22.7341 C.ar    1  UNL1        0.0833
      3 C          -8.3672  -18.6486   22.6335 C.ar    1  UNL1        0.0601
      4 C          -8.6292  -19.2052   21.2654 C.ar    1  UNL1        0.0481
      5 C          -9.8847  -19.6880   20.6018 C.ar    1  UNL1        0.1416
      6 F         -11.1863  -19.6575   21.3468 F       1  UNL1       -0.2041
      7 C          -9.8387  -20.2015   19.1932 C.ar    1  UNL1        0.0297
      8 C          -8.5371  -20.2321   18.4482 C.ar    1  UNL1        0.0038
      9 C          -7.2816  -19.7492   19.1118 C.ar    1  UNL1        0.0177
     10 C          -7.3276  -19.2358   20.5204 C.ar    1  UNL1        0.0663
     11 C          -1.9003  -18.2521   20.4117 C.ar    1  UNL1        0.0141
     12 C          -2.8903  -18.5891   19.3364 C.ar    1  UNL1        0.0026
     13 C          -4.3440  -18.7377   19.6753 C.ar    1  UNL1        0.0176
     14 C          -4.8076  -18.5495   21.0893 C.ar    1  UNL1        0.0640
     15 C          -3.8175  -18.2125   22.1646 C.ar    1  UNL1        0.0176
     16 C          -2.3638  -18.0638   21.8257 C.ar    1  UNL1        0.0026
     17 O           0.3560  -19.3047   19.6695 O.co2   1  UNL1       -0.5446
     18 C          -0.4466  -18.1034   20.0728 C.2     1  UNL1        0.0729
     19 O           0.2043  -16.7536   20.1373 O.co2   1  UNL1       -0.5446
     20 C          -9.3893  -18.4418   23.7118 C.2     1  UNL1        0.1987
     21 O          -9.1117  -18.9125   25.1086 O.2     1  UNL1       -0.2865
     22 C         -10.6891  -17.7642   23.3931 C.ar    1  UNL1        0.0601
     23 C         -11.9819  -18.3638   23.8610 C.ar    1  UNL1        0.0615
     24 CL        -11.9750  -19.6410   24.6477 Cl      1  UNL1       -0.0821
     25 C         -13.2817  -17.6863   23.5424 C.ar    1  UNL1        0.0115
     26 C         -13.2886  -16.4092   22.7557 C.ar    1  UNL1        0.0017
     27 C         -11.9957  -15.8096   22.2878 C.ar    1  UNL1        0.0115
     28 C         -10.6960  -16.4871   22.6064 C.ar    1  UNL1        0.0615
     29 CL         -9.4031  -15.8875   22.1384 Cl      1  UNL1       -0.0821
@<TRIPOS>UNITY_ATOM_ATTR
17 1
charge -1
@<TRIPOS>BOND
     1    17    18   ar
     2    18    19   ar
     3    18    11    1
     4    11    12   ar
     5    12    13   ar
     6    13    14   ar
     7    14     1    1
     8     1     2   ar
     9     2     3   ar
    10     3    20    1
    11    20    21    2
    12    20    22    1
    13    22    23   ar
    14    23    24    1
    15    23    25   ar
    16    25    26   ar
    17    26    27   ar
    18    27    28   ar
    19    28    29    1
    20     3     4   ar
    21     4     5   ar
    22     5     6    1
    23     5     7   ar
    24     7     8   ar
    25     8     9   ar
    26     9    10   ar
    27    14    15   ar
    28    15    16   ar
    29    16    11   ar
    30    10     1   ar
    31    28    22   ar
    32    10     4   ar
@<TRIPOS>MOLECULE
*****
 29 32 0 0 0
SMALL
GASTEIGER

@<TRIPOS>ATOM
      1 N          -6.2439  -18.6876   21.4164 N.ar    1  UNL1       -0.3048
      2 C          -6.8902  -18.3169   22.7183 C.ar    1  UNL1        0.0833
      3 C          -8.3520  -18.6378   22.6180 C.ar    1  UNL1        0.0601
      4 C          -8.6092  -19.2067   21.2541 C.ar    1  UNL1        0.0481
      5 C          -9.8615  -19.7008   20.5925 C.ar    1  UNL1        0.1416
      6 F         -11.1644  -19.6700   21.3351 F       1  UNL1       -0.2041
      7 C          -9.8108  -20.2255   19.1882 C.ar    1  UNL1        0.0297
      8 C          -8.5079  -20.2563   18.4456 C.ar    1  UNL1        0.0038
      9 C          -7.2556  -19.7623   19.1072 C.ar    1  UNL1        0.0177
     10 C          -7.3063  -19.2375   20.5115 C.ar    1  UNL1        0.0663
     11 C          -1.8833  -18.2301   20.4032 C.ar    1  UNL1        0.0141
     12 C          -2.3482  -18.0451   21.8173 C.ar    1  UNL1        0.0026
     13 C          -3.8017  -18.1975   22.1550 C.ar    1  UNL1        0.0176
     14 C          -4.7904  -18.5351   21.0787 C.ar    1  UNL1        0.0640
     15 C          -4.3255  -18.7202   19.6645 C.ar    1  UNL1        0.0176
     16 C          -2.8720  -18.5677   19.3268 C.ar    1  UNL1        0.0026
     17 O           0.2184  -16.7267   20.1345 O.co2   1  UNL1       -0.5446
     18 C          -0.4298  -18.0776   20.0655 C.2     1  UNL1        0.0729
     19 O           0.3754  -19.2760   19.6587 O.co2   1  UNL1       -0.5446
     20 C          -9.3768  -18.4268   23.6928 C.2     1  UNL1        0.1987
     21 O          -9.1068  -18.9008   25.0900 O.2     1  UNL1       -0.2865
     22 C         -10.6718  -17.7416   23.3704 C.ar    1  UNL1        0.0601
     23 C         -10.6697  -16.4703   22.5743 C.ar    1  UNL1        0.0615
     24 CL         -9.3727  -15.8842   22.1006 Cl      1  UNL1       -0.0821
     25 C         -11.9645  -15.7852   22.2518 C.ar    1  UNL1        0.0115
     26 C         -13.2614  -16.3714   22.7255 C.ar    1  UNL1        0.0017
     27 C         -13.2635  -17.6427   23.5216 C.ar    1  UNL1        0.0115
     28 C         -11.9687  -18.3279   23.8441 C.ar    1  UNL1        0.0615
     29 CL        -11.9707  -19.5991   24.6402 Cl      1  UNL1       -0.0821
@<TRIPOS>UNITY_ATOM_ATTR
17 1
charge -1
@<TRIPOS>BOND
     1    17    18   ar
     2    18    19   ar
     3    18    11    1
     4    11    12   ar
     5    12    13   ar
     6    13    14   ar
     7    14     1    1
     8     1     2   ar
     9     2     3   ar
    10     3    20    1
    11    20    21    2
    12    20    22    1
    13    22    23   ar
    14    23    24    1
    15    23    25   ar
    16    25    26   ar
    17    26    27   ar
    18    27    28   ar
    19    28    29    1
    20     3     4   ar
    21     4     5   ar
    22     5     6    1
    23     5     7   ar
    24     7     8   ar
    25     8     9   ar
    26     9    10   ar
    27    14    15   ar
    28    15    16   ar
    29    16    11   ar
    30    10     1   ar
    31    28    22   ar
    32    10     4   ar
@<TRIPOS>MOLECULE
*****
 29 32 0 0 0
SMALL
GASTEIGER

@<TRIPOS>ATOM
      1 N          -6.2821  -18.2246   21.3096 N.ar    1  UNL1       -0.3048
      2 C          -6.9340  -17.4779   22.4354 C.ar    1  UNL1        0.0833
      3 C          -8.4109  -17.7305   22.3652 C.ar    1  UNL1        0.0601
      4 C          -8.6718  -18.6331   21.1959 C.ar    1  UNL1        0.0481
      5 C          -9.9374  -19.2164   20.6410 C.ar    1  UNL1        0.1416
      6 F         -11.2531  -18.9110   21.2934 F       1  UNL1       -0.2041
      7 C          -9.8873  -20.1051   19.4337 C.ar    1  UNL1        0.0297
      8 C          -8.5715  -20.4104   18.7812 C.ar    1  UNL1        0.0038
      9 C          -7.3060  -19.8271   19.3362 C.ar    1  UNL1        0.0177
     10 C          -7.3561  -18.9385   20.5435 C.ar    1  UNL1        0.0663
     11 C          -1.8775  -18.3080   20.3914 C.ar    1  UNL1        0.0141
     12 C          -2.8753  -18.5831   19.3057 C.ar    1  UNL1        0.0026
     13 C          -4.3435  -18.5552   19.6118 C.ar    1  UNL1        0.0176
     14 C          -4.8139  -18.2524   21.0035 C.ar    1  UNL1        0.0640
     15 C          -3.8160  -17.9773   22.0892 C.ar    1  UNL1        0.0176
     16 C          -2.3478  -18.0051   21.7831 C.ar    1  UNL1        0.0026
     17 O           0.2626  -19.6346   19.7512 O.co2   1  UNL1       -0.5446
     18 C          -0.4093  -18.3358   20.0853 C.2     1  UNL1        0.0729
     19 O           0.3869  -17.0649   20.1133 O.co2   1  UNL1       -0.5446
     20 C          -9.4454  -17.1774   23.3001 C.2     1  UNL1        0.1987
     21 O         -10.8386  -16.9184   22.8086 O.2     1  UNL1       -0.2865
     22 C          -9.0865  -16.8834   24.7266 C.ar    1  UNL1        0.0601
     23 C          -8.3860  -15.6037   25.0753 C.ar    1  UNL1        0.0615
     24 CL         -8.0443  -14.6180   23.9974 Cl      1  UNL1       -0.0821
     25 C          -8.0272  -15.3096   26.5017 C.ar    1  UNL1        0.0115
     26 C          -8.3689  -16.2954   27.5795 C.ar    1  UNL1        0.0017
     27 C          -9.0694  -17.5751   27.2308 C.ar    1  UNL1        0.0115
     28 C          -9.4283  -17.8691   25.8044 C.ar    1  UNL1        0.0615
     29 CL        -10.1288  -19.1488   25.4557 Cl      1  UNL1       -0.0821
@<TRIPOS>UNITY_ATOM_ATTR
17 1
charge -1
@<TRIPOS>BOND
     1    17    18   ar
     2    18    19   ar
     3    18    11    1
     4    11    12   ar
     5    12    13   ar
     6    13    14   ar
     7    14     1    1
     8     1     2   ar
     9     2     3   ar
    10     3    20    1
    11    20    21    2
    12    20    22    1
    13    22    23   ar
    14    23    24    1
    15    23    25   ar
    16    25    26   ar
    17    26    27   ar
    18    27    28   ar
    19    28    29    1
    20     3     4   ar
    21     4     5   ar
    22     5     6    1
    23     5     7   ar
    24     7     8   ar
    25     8     9   ar
    26     9    10   ar
    27    14    15   ar
    28    15    16   ar
    29    16    11   ar
    30    10     1   ar
    31    28    22   ar
    32    10     4   ar
@<TRIPOS>MOLECULE
*****
 29 32 0 0 0
SMALL
GASTEIGER

@<TRIPOS>ATOM
      1 N           0.7152    1.5753   20.6267 N.ar    1  UNL1       -0.3048
      2 C          -0.1223    2.5563   19.8610 C.ar    1  UNL1        0.0833
      3 C          -0.9341    3.3421   20.8477 C.ar    1  UNL1        0.0601
      4 C          -0.5984    2.8467   22.2232 C.ar    1  UNL1        0.0481
      5 C          -1.0892    3.2488   23.5824 C.ar    1  UNL1        0.1416
      6 F          -2.1085    4.3407   23.7190 F       1  UNL1       -0.2041
      7 C          -0.5606    2.5590   24.8049 C.ar    1  UNL1        0.0297
      8 C           0.4587    1.4671   24.6683 C.ar    1  UNL1        0.0038
      9 C           0.9495    1.0650   23.3092 C.ar    1  UNL1        0.0177
     10 C           0.4210    1.7548   22.0866 C.ar    1  UNL1        0.0663
     11 C           3.6034   -1.3862   18.8553 C.ar    1  UNL1        0.0141
     12 C           3.3588   -0.0748   18.1694 C.ar    1  UNL1        0.0026
     13 C           2.3961    0.9123   18.7599 C.ar    1  UNL1        0.0176
     14 C           1.6779    0.5882   20.0362 C.ar    1  UNL1        0.0640
     15 C           1.9225   -0.7233   20.7221 C.ar    1  UNL1        0.0176
     16 C           2.8852   -1.7104   20.1316 C.ar    1  UNL1        0.0026
     17 O           4.4673   -3.8257   18.6266 O.co2   1  UNL1       -0.5446
     18 C           4.5661   -2.3734   18.2648 C.2     1  UNL1        0.0729
     19 O           5.6276   -1.9082   17.3125 O.co2   1  UNL1       -0.5446
     20 C          -1.9103    4.4319   20.5170 C.2     1  UNL1        0.1987
     21 O          -1.6642    5.8309   20.9987 O.2     1  UNL1       -0.2865
     22 C          -3.1328    4.1226   19.7046 C.ar    1  UNL1        0.0601
     23 C          -3.1164    4.3245   18.2183 C.ar    1  UNL1        0.0615
     24 CL         -1.8775    4.8356   17.5445 Cl      1  UNL1       -0.0821
     25 C          -4.3388    4.0153   17.4058 C.ar    1  UNL1        0.0115
     26 C          -5.5776    3.5041   18.0797 C.ar    1  UNL1        0.0017
     27 C          -5.5940    3.3023   19.5659 C.ar    1  UNL1        0.0115
     28 C          -4.3716    3.6115   20.3784 C.ar    1  UNL1        0.0615
     29 CL         -4.3881    3.4096   21.8647 Cl      1  UNL1       -0.0821
@<TRIPOS>UNITY_ATOM_ATTR
17 1
charge -1
@<TRIPOS>BOND
     1    17    18   ar
     2    18    19   ar
     3    18    11    1
     4    11    12   ar
     5    12    13   ar
     6    13    14   ar
     7    14     1    1
     8     1     2   ar
     9     2     3   ar
    10     3    20    1
    11    20    21    2
    12    20    22    1
    13    22    23   ar
    14    23    24    1
    15    23    25   ar
    16    25    26   ar
    17    26    27   ar
    18    27    28   ar
    19    28    29    1
    20     3     4   ar
    21     4     5   ar
    22     5     6    1
    23     5     7   ar
    24     7     8   ar
    25     8     9   ar
    26     9    10   ar
    27    14    15   ar
    28    15    16   ar
    29    16    11   ar
    30    10     1   ar
    31    28    22   ar
    32    10     4   ar
@<TRIPOS>MOLECULE
*****
 29 32 0 0 0
SMALL
GASTEIGER

@<TRIPOS>ATOM
      1 N           6.9631   -4.4030   23.8141 N.ar    1  UNL1       -0.3048
      2 C           6.4790   -3.7940   25.0965 C.ar    1  UNL1        0.0833
      3 C           7.0144   -4.6162   26.2312 C.ar    1  UNL1        0.0601
      4 C           7.8294   -5.7333   25.6499 C.ar    1  UNL1        0.0481
      5 C           8.5963   -6.8534   26.2879 C.ar    1  UNL1        0.1416
      6 F           8.6280   -6.9852   27.7818 F       1  UNL1       -0.2041
      7 C           9.3315   -7.8418   25.4321 C.ar    1  UNL1        0.0297
      8 C           9.2998   -7.7101   23.9382 C.ar    1  UNL1        0.0038
      9 C           8.5329   -6.5899   23.3002 C.ar    1  UNL1        0.0177
     10 C           7.7977   -5.6016   24.1561 C.ar    1  UNL1        0.0663
     11 C           6.0688   -2.8985   19.6683 C.ar    1  UNL1        0.0141
     12 C           4.9474   -3.3153   20.5731 C.ar    1  UNL1        0.0026
     13 C           5.2455   -3.8168   21.9550 C.ar    1  UNL1        0.0176
     14 C           6.6650   -3.9015   22.4322 C.ar    1  UNL1        0.0640
     15 C           7.7865   -3.4847   21.5273 C.ar    1  UNL1        0.0176
     16 C           7.4883   -2.9832   20.1454 C.ar    1  UNL1        0.0026
     17 O           6.8823   -2.2298   17.2933 O.co2   1  UNL1       -0.5446
     18 C           5.7707   -2.3971   18.2864 C.2     1  UNL1        0.0729
     19 O           4.3610   -2.0629   17.8977 O.co2   1  UNL1       -0.5446
     20 C           6.7765   -4.3653   27.6908 C.2     1  UNL1        0.1987
     21 O           6.0843   -5.4006   28.5267 O.2     1  UNL1       -0.2865
     22 C           7.2310   -3.0790   28.3145 C.ar    1  UNL1        0.0601
     23 C           6.3067   -1.8984   28.3571 C.ar    1  UNL1        0.0615
     24 CL          4.9278   -2.0042   27.7759 Cl      1  UNL1       -0.0821
     25 C           6.7610   -0.6122   28.9808 C.ar    1  UNL1        0.0115
     26 C           8.1398   -0.5065   29.5619 C.ar    1  UNL1        0.0017
     27 C           9.0642   -1.6871   29.5194 C.ar    1  UNL1        0.0115
     28 C           8.6098   -2.9733   28.8957 C.ar    1  UNL1        0.0615
     29 CL          9.5342   -4.1539   28.8532 Cl      1  UNL1       -0.0821
@<TRIPOS>UNITY_ATOM_ATTR
17 1
charge -1
@<TRIPOS>BOND
     1    17    18   ar
     2    18    19   ar
     3    18    11    1
     4    11    12   ar
     5    12    13   ar
     6    13    14   ar
     7    14     1    1
     8     1     2   ar
     9     2     3   ar
    10     3    20    1
    11    20    21    2
    12    20    22    1
    13    22    23   ar
    14    23    24    1
    15    23    25   ar
    16    25    26   ar
    17    26    27   ar
    18    27    28   ar
    19    28    29    1
    20     3     4   ar
    21     4     5   ar
    22     5     6    1
    23     5     7   ar
    24     7     8   ar
    25     8     9   ar
    26     9    10   ar
    27    14    15   ar
    28    15    16   ar
    29    16    11   ar
    30    10     1   ar
    31    28    22   ar
    32    10     4   ar
@<TRIPOS>MOLECULE
*****
 29 32 0 0 0
SMALL
GASTEIGER

@<TRIPOS>ATOM
      1 N           1.9361    0.4364   22.5140 N.ar    1  UNL1       -0.3048
      2 C           2.1954    0.6993   23.9678 C.ar    1  UNL1        0.0833
      3 C           1.2625    1.7850   24.4161 C.ar    1  UNL1        0.0601
      4 C           0.4266    2.1931   23.2393 C.ar    1  UNL1        0.0481
      5 C          -0.6598    3.2160   23.0863 C.ar    1  UNL1        0.1416
      6 F          -1.0761    4.0494   24.2619 F       1  UNL1       -0.2041
      7 C          -1.3299    3.4053   21.7578 C.ar    1  UNL1        0.0297
      8 C          -0.9136    2.5719   20.5822 C.ar    1  UNL1        0.0038
      9 C           0.1728    1.5490   20.7352 C.ar    1  UNL1        0.0177
     10 C           0.8429    1.3596   22.0637 C.ar    1  UNL1        0.0663
     11 C           4.0640   -2.5905   19.9527 C.ar    1  UNL1        0.0141
     12 C           4.2664   -2.5908   21.4389 C.ar    1  UNL1        0.0026
     13 C           3.5571   -1.5818   22.2927 C.ar    1  UNL1        0.0176
     14 C           2.6454   -0.5726   21.6602 C.ar    1  UNL1        0.0640
     15 C           2.4429   -0.5723   20.1739 C.ar    1  UNL1        0.0176
     16 C           3.1522   -1.5813   19.3201 C.ar    1  UNL1        0.0026
     17 O           5.4802   -3.1612   17.8507 O.co2   1  UNL1       -0.5446
     18 C           4.7733   -3.5995   19.0989 C.2     1  UNL1        0.0729
     19 O           4.7756   -5.0466   19.4934 O.co2   1  UNL1       -0.5446
     20 C           1.1799    2.3614   25.7985 C.2     1  UNL1        0.1987
     21 O           1.5836    3.7851   26.0428 O.2     1  UNL1       -0.2865
     22 C           0.6935    1.5139   26.9366 C.ar    1  UNL1        0.0601
     23 C          -0.7569    1.5320   27.3188 C.ar    1  UNL1        0.0615
     24 CL         -1.7209    2.3976   26.5627 Cl      1  UNL1       -0.0821
     25 C          -1.2433    0.6847   28.4568 C.ar    1  UNL1        0.0115
     26 C          -0.2793   -0.1809   29.2128 C.ar    1  UNL1        0.0017
     27 C           1.1711   -0.1990   28.8307 C.ar    1  UNL1        0.0115
     28 C           1.6575    0.6484   27.6926 C.ar    1  UNL1        0.0615
     29 CL          3.1079    0.6303   27.3105 Cl      1  UNL1       -0.0821
@<TRIPOS>UNITY_ATOM_ATTR
17 1
charge -1
@<TRIPOS>BOND
     1    17    18   ar
     2    18    19   ar
     3    18    11    1
     4    11    12   ar
     5    12    13   ar
     6    13    14   ar
     7    14     1    1
     8     1     2   ar
     9     2     3   ar
    10     3    20    1
    11    20    21    2
    12    20    22    1
    13    22    23   ar
    14    23    24    1
    15    23    25   ar
    16    25    26   ar
    17    26    27   ar
    18    27    28   ar
    19    28    29    1
    20     3     4   ar
    21     4     5   ar
    22     5     6    1
    23     5     7   ar
    24     7     8   ar
    25     8     9   ar
    26     9    10   ar
    27    14    15   ar
    28    15    16   ar
    29    16    11   ar
    30    10     1   ar
    31    28    22   ar
    32    10     4   ar
@<TRIPOS>MOLECULE
*****
 29 32 0 0 0
SMALL
GASTEIGER

@<TRIPOS>ATOM
      1 N           1.9523    0.4051   22.4722 N.ar    1  UNL1       -0.3048
      2 C           2.2202    0.6696   23.9242 C.ar    1  UNL1        0.0833
      3 C           1.3003    1.7661   24.3730 C.ar    1  UNL1        0.0601
      4 C           0.4639    2.1793   23.1984 C.ar    1  UNL1        0.0481
      5 C          -0.6126    3.2129   23.0468 C.ar    1  UNL1        0.1416
      6 F          -1.0155    4.0540   24.2216 F       1  UNL1       -0.2041
      7 C          -1.2861    3.4052   21.7204 C.ar    1  UNL1        0.0297
      8 C          -0.8831    2.5640   20.5456 C.ar    1  UNL1        0.0038
      9 C           0.1933    1.5305   20.6973 C.ar    1  UNL1        0.0177
     10 C           0.8668    1.3382   22.0236 C.ar    1  UNL1        0.0663
     11 C           4.0385   -2.6510   19.9113 C.ar    1  UNL1        0.0141
     12 C           4.2721   -2.6286   21.3929 C.ar    1  UNL1        0.0026
     13 C           3.5766   -1.6099   22.2465 C.ar    1  UNL1        0.0176
     14 C           2.6477   -0.6136   21.6186 C.ar    1  UNL1        0.0640
     15 C           2.4141   -0.6360   20.1370 C.ar    1  UNL1        0.0176
     16 C           3.1096   -1.6547   19.2834 C.ar    1  UNL1        0.0026
     17 O           4.6297   -5.1276   19.3949 O.co2   1  UNL1       -0.5446
     18 C           4.7340   -3.6697   19.0577 C.2     1  UNL1        0.0729
     19 O           5.5336   -3.2305   17.8671 O.co2   1  UNL1       -0.5446
     20 C           1.2293    2.3474   25.7540 C.2     1  UNL1        0.1987
     21 O           1.6368    3.7715   25.9902 O.2     1  UNL1       -0.2865
     22 C           0.7507    1.5045   26.8988 C.ar    1  UNL1        0.0601
     23 C           1.7213    0.6483   27.6569 C.ar    1  UNL1        0.0615
     24 CL          3.1706    0.6350   27.2702 Cl      1  UNL1       -0.0821
     25 C           1.2428   -0.1945   28.8017 C.ar    1  UNL1        0.0115
     26 C          -0.2064   -0.1811   29.1884 C.ar    1  UNL1        0.0017
     27 C          -1.1771    0.6751   28.4303 C.ar    1  UNL1        0.0115
     28 C          -0.6986    1.5179   27.2855 C.ar    1  UNL1        0.0615
     29 CL         -1.6692    2.3741   26.5274 Cl      1  UNL1       -0.0821
@<TRIPOS>UNITY_ATOM_ATTR
17 1
charge -1
@<TRIPOS>BOND
     1    17    18   ar
     2    18    19   ar
     3    18    11    1
     4    11    12   ar
     5    12    13   ar
     6    13    14   ar
     7    14     1    1
     8     1     2   ar
     9     2     3   ar
    10     3    20    1
    11    20    21    2
    12    20    22    1
    13    22    23   ar
    14    23    24    1
    15    23    25   ar
    16    25    26   ar
    17    26    27   ar
    18    27    28   ar
    19    28    29    1
    20     3     4   ar
    21     4     5   ar
    22     5     6    1
    23     5     7   ar
    24     7     8   ar
    25     8     9   ar
    26     9    10   ar
    27    14    15   ar
    28    15    16   ar
    29    16    11   ar
    30    10     1   ar
    31    28    22   ar
    32    10     4   ar
