@<TRIPOS>MOLECULE
*****
 25 27 0 0 0
SMALL
GASTEIGER

@<TRIPOS>ATOM
      1 C          -9.3926  -18.1119   22.6383 C.3     1  UNL1        0.1895
      2 C         -10.8355  -18.0899   23.0477 C.ar    1  UNL1        0.0172
      3 C         -11.2627  -18.7495   24.3254 C.ar    1  UNL1       -0.0008
      4 C         -12.7055  -18.7276   24.7349 C.ar    1  UNL1       -0.0002
      5 C         -13.7212  -18.0460   23.8666 C.ar    1  UNL1       -0.0000
      6 C         -13.2941  -17.3865   22.5889 C.ar    1  UNL1       -0.0002
      7 C         -11.8512  -17.4084   22.1795 C.ar    1  UNL1       -0.0008
      8 C          -8.5488  -16.8821   22.7985 C.3     1  UNL1        0.0615
      9 C          -7.6827  -16.5547   23.9787 C.3     1  UNL1        0.0224
     10 C          -7.0215  -15.2341   23.7163 C.3     1  UNL1        0.0687
     11 N          -7.4789  -14.7453   22.3739 N.3     1  UNL1       -0.2973
     12 C          -8.4229  -15.7639   21.8067 C.3     1  UNL1        0.0725
     13 H          -6.6765  -14.6341   21.7542 H       1  UNL1        0.1232
     14 O          -8.7936  -19.3635   22.0686 O.3     1  UNL1       -0.4717
     15 C          -6.9992  -19.2153   20.1956 C.ar    1  UNL1        0.1785
     16 C          -5.5609  -19.2322   19.7703 C.ar    1  UNL1        0.1152
     17 C          -4.4786  -19.4142   20.7928 C.ar    1  UNL1        0.2933
     18 C          -4.8346  -19.5792   22.2405 C.ar    1  UNL1        0.0786
     19 C          -6.2729  -19.5623   22.6658 C.ar    1  UNL1        0.0464
     20 C          -7.3552  -19.3804   21.6433 C.ar    1  UNL1        0.1729
     21 N          -3.0402  -19.4310   20.3675 N.pl3   1  UNL1        0.0810
     22 O          -2.0156  -20.1252   21.2150 O.2     1  UNL1        0.0415
     23 O          -2.6265  -18.7537   19.0947 O.co2   1  UNL1       -0.5760
     24 C          -8.9245  -20.2023   18.7572 C.3     1  UNL1        0.2526
     25 O          -8.0815  -19.0334   19.1731 O.3     1  UNL1       -0.4682
@<TRIPOS>UNITY_ATOM_ATTR
21 1
charge 1
23 1
charge -1
@<TRIPOS>BOND
     1    24    25    1
     2    25    15    1
     3    15    16   ar
     4    16    17   ar
     5    17    21    1
     6    21    22    2
     7    21    23    1
     8    17    18   ar
     9    18    19   ar
    10    19    20   ar
    11    20    14    1
    12     1    14    1
    13     1     2    1
    14     2     3   ar
    15     3     4   ar
    16     4     5   ar
    17     5     6   ar
    18     6     7   ar
    19     1     8    1
    20     8     9    1
    21     9    10    1
    22    10    11    1
    23    11    12    1
    24    20    15   ar
    25     7     2   ar
    26    12     8    1
    27    11    13    1
@<TRIPOS>MOLECULE
*****
 25 27 0 0 0
SMALL
GASTEIGER

@<TRIPOS>ATOM
      1 C          -7.8359  -18.0346   22.4337 C.3     1  UNL1        0.1895
      2 C          -8.8926  -18.3344   21.4122 C.ar    1  UNL1        0.0172
      3 C          -8.6665  -19.4117   20.3931 C.ar    1  UNL1       -0.0008
      4 C          -9.7232  -19.7114   19.3716 C.ar    1  UNL1       -0.0002
      5 C         -11.0061  -18.9340   19.3692 C.ar    1  UNL1       -0.0000
      6 C         -11.2321  -17.8568   20.3882 C.ar    1  UNL1       -0.0002
      7 C         -10.1754  -17.5570   21.4097 C.ar    1  UNL1       -0.0008
      8 C          -7.9045  -16.7679   23.2342 C.3     1  UNL1        0.0615
      9 C          -8.3397  -16.6516   24.6649 C.3     1  UNL1        0.0224
     10 C          -8.2541  -15.2070   25.0595 C.3     1  UNL1        0.0687
     11 N          -7.7660  -14.4304   23.8726 N.3     1  UNL1       -0.2973
     12 C          -7.5499  -15.3952   22.7444 C.3     1  UNL1        0.0725
     13 H          -6.8885  -13.9634   24.1015 H       1  UNL1        0.1232
     14 O          -6.7106  -19.0015   22.6546 O.3     1  UNL1       -0.4717
     15 C          -4.2425  -18.1950   22.5629 C.ar    1  UNL1        0.1785
     16 C          -2.9559  -18.0334   21.8090 C.ar    1  UNL1        0.1152
     17 C          -2.8507  -18.5166   20.3928 C.ar    1  UNL1        0.2933
     18 C          -4.0320  -19.1614   19.7306 C.ar    1  UNL1        0.0786
     19 C          -5.3186  -19.3230   20.4845 C.ar    1  UNL1        0.0464
     20 C          -5.4239  -18.8398   21.9007 C.ar    1  UNL1        0.1729
     21 N          -1.5640  -18.3549   19.6389 N.pl3   1  UNL1        0.0810
     22 O          -0.2529  -18.5047   20.3521 O.2     1  UNL1        0.0415
     23 O          -1.5884  -18.0434   18.1718 O.co2   1  UNL1       -0.5760
     24 C          -4.5374  -16.2508   24.2609 C.3     1  UNL1        0.2526
     25 O          -4.3478  -17.7118   23.9790 O.3     1  UNL1       -0.4682
@<TRIPOS>UNITY_ATOM_ATTR
21 1
charge 1
23 1
charge -1
@<TRIPOS>BOND
     1    24    25    1
     2    25    15    1
     3    15    16   ar
     4    16    17   ar
     5    17    21    1
     6    21    22    2
     7    21    23    1
     8    17    18   ar
     9    18    19   ar
    10    19    20   ar
    11    20    14    1
    12     1    14    1
    13     1     2    1
    14     2     3   ar
    15     3     4   ar
    16     4     5   ar
    17     5     6   ar
    18     6     7   ar
    19     1     8    1
    20     8     9    1
    21     9    10    1
    22    10    11    1
    23    11    12    1
    24    20    15   ar
    25     7     2   ar
    26    12     8    1
    27    11    13    1
@<TRIPOS>MOLECULE
*****
 25 27 0 0 0
SMALL
GASTEIGER

@<TRIPOS>ATOM
      1 C          -9.3075  -17.8356   22.2988 C.3     1  UNL1        0.1895
      2 C          -8.7352  -17.0004   23.4056 C.ar    1  UNL1        0.0172
      3 C          -7.7082  -15.9509   23.0990 C.ar    1  UNL1       -0.0008
      4 C          -7.1358  -15.1157   24.2057 C.ar    1  UNL1       -0.0002
      5 C          -7.5905  -15.3301   25.6191 C.ar    1  UNL1       -0.0000
      6 C          -8.6174  -16.3795   25.9256 C.ar    1  UNL1       -0.0002
      7 C          -9.1897  -17.2147   24.8189 C.ar    1  UNL1       -0.0008
      8 C         -10.4987  -17.3466   21.5294 C.3     1  UNL1        0.0615
      9 C         -11.5516  -16.4069   22.0377 C.3     1  UNL1        0.0224
     10 C         -12.5498  -16.1911   20.9390 C.3     1  UNL1        0.0687
     11 N         -12.1138  -16.9974   19.7516 N.3     1  UNL1       -0.2973
     12 C         -10.8461  -17.7116   20.1165 C.3     1  UNL1        0.0725
     13 H         -11.9470  -16.3805   18.9566 H       1  UNL1        0.1232
     14 O          -8.6887  -19.1597   21.9615 O.3     1  UNL1       -0.4717
     15 C          -6.8513  -19.2074   20.1253 C.ar    1  UNL1        0.1785
     16 C          -5.4043  -19.2819   19.7372 C.ar    1  UNL1        0.1152
     17 C          -4.3477  -19.3833   20.7972 C.ar    1  UNL1        0.2933
     18 C          -4.7382  -19.4101   22.2452 C.ar    1  UNL1        0.0786
     19 C          -6.1851  -19.3356   22.6333 C.ar    1  UNL1        0.0464
     20 C          -7.2417  -19.2342   21.5734 C.ar    1  UNL1        0.1729
     21 N          -2.9007  -19.4578   20.4090 N.pl3   1  UNL1        0.0810
     22 O          -2.4289  -18.8040   19.1441 O.2     1  UNL1        0.0415
     23 O          -1.9256  -20.1861   21.2857 O.co2   1  UNL1       -0.5760
     24 C          -8.6979  -20.3200   18.6755 C.3     1  UNL1        0.2526
     25 O          -7.9078  -19.1060   19.0654 O.3     1  UNL1       -0.4682
@<TRIPOS>UNITY_ATOM_ATTR
21 1
charge 1
23 1
charge -1
@<TRIPOS>BOND
     1    24    25    1
     2    25    15    1
     3    15    16   ar
     4    16    17   ar
     5    17    21    1
     6    21    22    2
     7    21    23    1
     8    17    18   ar
     9    18    19   ar
    10    19    20   ar
    11    20    14    1
    12     1    14    1
    13     1     2    1
    14     2     3   ar
    15     3     4   ar
    16     4     5   ar
    17     5     6   ar
    18     6     7   ar
    19     1     8    1
    20     8     9    1
    21     9    10    1
    22    10    11    1
    23    11    12    1
    24    20    15   ar
    25     7     2   ar
    26    12     8    1
    27    11    13    1
@<TRIPOS>MOLECULE
*****
 25 27 0 0 0
SMALL
GASTEIGER

@<TRIPOS>ATOM
      1 C          -7.9009  -18.1911   22.5413 C.3     1  UNL1        0.1895
      2 C          -8.9885  -18.4179   21.5334 C.ar    1  UNL1        0.0172
      3 C          -8.7186  -19.2464   20.3124 C.ar    1  UNL1       -0.0008
      4 C          -9.8062  -19.4732   19.3046 C.ar    1  UNL1       -0.0002
      5 C         -11.1637  -18.8716   19.5178 C.ar    1  UNL1       -0.0000
      6 C         -11.4335  -18.0432   20.7388 C.ar    1  UNL1       -0.0002
      7 C         -10.3459  -17.8164   21.7466 C.ar    1  UNL1       -0.0008
      8 C          -7.9384  -16.9799   23.4254 C.3     1  UNL1        0.0615
      9 C          -7.1730  -15.7078   23.2111 C.3     1  UNL1        0.0224
     10 C          -7.5095  -14.7699   24.3323 C.3     1  UNL1        0.0687
     11 N          -8.4829  -15.4623   25.2396 N.3     1  UNL1       -0.2973
     12 C          -8.7480  -16.8283   24.6791 C.3     1  UNL1        0.0725
     13 H          -9.3527  -14.9315   25.2838 H       1  UNL1        0.1232
     14 O          -6.7759  -19.1754   22.6650 O.3     1  UNL1       -0.4717
     15 C          -4.9772  -19.2993   20.7943 C.ar    1  UNL1        0.1785
     16 C          -3.6132  -18.9481   20.2784 C.ar    1  UNL1        0.1152
     17 C          -2.6840  -18.1217   21.1171 C.ar    1  UNL1        0.2933
     18 C          -3.1186  -17.6465   22.4718 C.ar    1  UNL1        0.0786
     19 C          -4.4826  -17.9977   22.9877 C.ar    1  UNL1        0.0464
     20 C          -5.4118  -18.8242   22.1490 C.ar    1  UNL1        0.1729
     21 N          -1.3199  -17.7704   20.6011 N.pl3   1  UNL1        0.0810
     22 O          -0.4504  -18.8326   19.9964 O.2     1  UNL1        0.0415
     23 O          -0.8256  -16.3570   20.6899 O.co2   1  UNL1       -0.5760
     24 C          -5.9973  -21.6069   20.1743 C.3     1  UNL1        0.2526
     25 O          -5.9064  -20.1258   19.9555 O.3     1  UNL1       -0.4682
@<TRIPOS>UNITY_ATOM_ATTR
21 1
charge 1
23 1
charge -1
@<TRIPOS>BOND
     1    24    25    1
     2    25    15    1
     3    15    16   ar
     4    16    17   ar
     5    17    21    1
     6    21    22    2
     7    21    23    1
     8    17    18   ar
     9    18    19   ar
    10    19    20   ar
    11    20    14    1
    12     1    14    1
    13     1     2    1
    14     2     3   ar
    15     3     4   ar
    16     4     5   ar
    17     5     6   ar
    18     6     7   ar
    19     1     8    1
    20     8     9    1
    21     9    10    1
    22    10    11    1
    23    11    12    1
    24    20    15   ar
    25     7     2   ar
    26    12     8    1
    27    11    13    1
@<TRIPOS>MOLECULE
*****
 25 27 0 0 0
SMALL
GASTEIGER

@<TRIPOS>ATOM
      1 C          -9.5935  -17.9481   23.8136 C.3     1  UNL1        0.1895
      2 C          -8.8426  -17.1223   24.8156 C.ar    1  UNL1        0.0172
      3 C          -9.0355  -17.3653   26.2832 C.ar    1  UNL1       -0.0008
      4 C          -8.2846  -16.5395   27.2853 C.ar    1  UNL1       -0.0002
      5 C          -7.3407  -15.4706   26.8197 C.ar    1  UNL1       -0.0000
      6 C          -7.1479  -15.2276   25.3521 C.ar    1  UNL1       -0.0002
      7 C          -7.8988  -16.0534   24.3501 C.ar    1  UNL1       -0.0008
      8 C         -10.9460  -17.5053   23.3395 C.3     1  UNL1        0.0615
      9 C         -11.2555  -16.2170   22.6362 C.3     1  UNL1        0.0224
     10 C         -12.7272  -16.1885   22.3475 C.3     1  UNL1        0.0687
     11 N         -13.3273  -17.4592   22.8723 N.3     1  UNL1       -0.2973
     12 C         -12.2263  -18.2731   23.4854 C.3     1  UNL1        0.0725
     13 H         -13.7583  -17.9798   22.1083 H       1  UNL1        0.1232
     14 O          -8.9921  -19.2168   23.2857 O.3     1  UNL1       -0.4717
     15 C          -8.0084  -19.3724   20.8861 C.ar    1  UNL1        0.1785
     16 C          -6.8310  -19.3150   19.9586 C.ar    1  UNL1        0.1152
     17 C          -5.4597  -19.0445   20.5031 C.ar    1  UNL1        0.2933
     18 C          -5.2659  -18.8315   21.9752 C.ar    1  UNL1        0.0786
     19 C          -6.4433  -18.8889   22.9027 C.ar    1  UNL1        0.0464
     20 C          -7.8146  -19.1594   22.3581 C.ar    1  UNL1        0.1729
     21 N          -4.2823  -18.9871   19.5755 N.pl3   1  UNL1        0.0810
     22 O          -3.5780  -20.2506   19.1785 O.2     1  UNL1        0.0415
     23 O          -3.8091  -17.6662   19.0451 O.co2   1  UNL1       -0.5760
     24 C         -10.2399  -18.5053   19.8768 C.3     1  UNL1        0.2526
     25 O          -9.3797  -19.6428   20.3415 O.3     1  UNL1       -0.4682
@<TRIPOS>UNITY_ATOM_ATTR
21 1
charge 1
23 1
charge -1
@<TRIPOS>BOND
     1    24    25    1
     2    25    15    1
     3    15    16   ar
     4    16    17   ar
     5    17    21    1
     6    21    22    2
     7    21    23    1
     8    17    18   ar
     9    18    19   ar
    10    19    20   ar
    11    20    14    1
    12     1    14    1
    13     1     2    1
    14     2     3   ar
    15     3     4   ar
    16     4     5   ar
    17     5     6   ar
    18     6     7   ar
    19     1     8    1
    20     8     9    1
    21     9    10    1
    22    10    11    1
    23    11    12    1
    24    20    15   ar
    25     7     2   ar
    26    12     8    1
    27    11    13    1
@<TRIPOS>MOLECULE
*****
 25 27 0 0 0
SMALL
GASTEIGER

@<TRIPOS>ATOM
      1 C         -10.8511  -18.3019   21.7353 C.3     1  UNL1        0.1895
      2 C         -11.8089  -18.3631   22.8881 C.ar    1  UNL1        0.0172
      3 C         -11.3649  -18.9329   24.2027 C.ar    1  UNL1       -0.0008
      4 C         -12.3227  -18.9941   25.3555 C.ar    1  UNL1       -0.0002
      5 C         -13.7246  -18.4854   25.1936 C.ar    1  UNL1       -0.0000
      6 C         -14.1686  -17.9157   23.8790 C.ar    1  UNL1       -0.0002
      7 C         -13.2107  -17.8545   22.7263 C.ar    1  UNL1       -0.0008
      8 C         -10.6751  -17.0217   20.9736 C.3     1  UNL1        0.0615
      9 C         -11.3680  -16.6542   19.6949 C.3     1  UNL1        0.0224
     10 C         -10.8965  -15.2896   19.2879 C.3     1  UNL1        0.0687
     11 N          -9.9122  -14.8138   20.3150 N.3     1  UNL1       -0.2973
     12 C          -9.7754  -15.8843   21.3568 C.3     1  UNL1        0.0725
     13 H         -10.2500  -13.9530   20.7454 H       1  UNL1        0.1232
     14 O         -10.0693  -19.5208   21.3443 O.3     1  UNL1       -0.4717
     15 C          -7.9854  -19.5858   19.7940 C.ar    1  UNL1        0.1785
     16 C          -6.4993  -19.4968   19.6109 C.ar    1  UNL1        0.1152
     17 C          -5.6110  -19.2537   20.7948 C.ar    1  UNL1        0.2933
     18 C          -6.2087  -19.0997   22.1619 C.ar    1  UNL1        0.0786
     19 C          -7.6948  -19.1887   22.3451 C.ar    1  UNL1        0.0464
     20 C          -8.5831  -19.4318   21.1611 C.ar    1  UNL1        0.1729
     21 N          -4.1248  -19.1647   20.6116 N.pl3   1  UNL1        0.0810
     22 O          -3.2527  -20.3282   20.9799 O.2     1  UNL1        0.0415
     23 O          -3.5108  -17.9121   20.0602 O.co2   1  UNL1       -0.5760
     24 C          -8.8415  -21.1538   17.9076 C.3     1  UNL1        0.2526
     25 O          -8.8738  -19.8289   18.6101 O.3     1  UNL1       -0.4682
@<TRIPOS>UNITY_ATOM_ATTR
21 1
charge 1
23 1
charge -1
@<TRIPOS>BOND
     1    24    25    1
     2    25    15    1
     3    15    16   ar
     4    16    17   ar
     5    17    21    1
     6    21    22    2
     7    21    23    1
     8    17    18   ar
     9    18    19   ar
    10    19    20   ar
    11    20    14    1
    12     1    14    1
    13     1     2    1
    14     2     3   ar
    15     3     4   ar
    16     4     5   ar
    17     5     6   ar
    18     6     7   ar
    19     1     8    1
    20     8     9    1
    21     9    10    1
    22    10    11    1
    23    11    12    1
    24    20    15   ar
    25     7     2   ar
    26    12     8    1
    27    11    13    1
@<TRIPOS>MOLECULE
*****
 25 27 0 0 0
SMALL
GASTEIGER

@<TRIPOS>ATOM
      1 C          -6.0182  -18.9633   22.2327 C.3     1  UNL1        0.1895
      2 C          -6.1149  -17.6426   22.9373 C.ar    1  UNL1        0.0172
      3 C          -7.3808  -16.8416   22.8587 C.ar    1  UNL1       -0.0008
      4 C          -7.4775  -15.5209   23.5632 C.ar    1  UNL1       -0.0002
      5 C          -6.3085  -15.0012   24.3465 C.ar    1  UNL1       -0.0000
      6 C          -5.0427  -15.8023   24.4251 C.ar    1  UNL1       -0.0002
      7 C          -4.9460  -17.1230   23.7205 C.ar    1  UNL1       -0.0008
      8 C          -4.8070  -19.2870   21.4090 C.3     1  UNL1        0.0615
      9 C          -4.6919  -19.1517   19.9196 C.3     1  UNL1        0.0224
     10 C          -3.3121  -19.5838   19.5202 C.3     1  UNL1        0.0687
     11 N          -2.5745  -19.9862   20.7628 N.3     1  UNL1       -0.2973
     12 C          -3.4985  -19.8027   21.9302 C.3     1  UNL1        0.0725
     13 H          -1.7481  -19.3999   20.8800 H       1  UNL1        0.1232
     14 O          -7.1325  -19.9603   22.3518 O.3     1  UNL1       -0.4717
     15 C          -9.2078  -18.9683   21.1439 C.ar    1  UNL1        0.1785
     16 C         -10.6323  -18.5000   21.1819 C.ar    1  UNL1        0.1152
     17 C         -11.4061  -18.5555   22.4657 C.ar    1  UNL1        0.2933
     18 C         -10.7553  -19.0792   23.7116 C.ar    1  UNL1        0.0786
     19 C          -9.3308  -19.5475   23.6736 C.ar    1  UNL1        0.0464
     20 C          -8.5571  -19.4920   22.3898 C.ar    1  UNL1        0.1729
     21 N         -12.8306  -18.0872   22.5037 N.pl3   1  UNL1        0.0810
     22 O         -13.5975  -18.1219   23.7924 O.2     1  UNL1        0.0415
     23 O         -13.4883  -17.5842   21.2529 O.co2   1  UNL1       -0.5760
     24 C          -8.6190  -19.9835   18.8261 C.3     1  UNL1        0.2526
     25 O          -8.4340  -18.9128   19.8601 O.3     1  UNL1       -0.4682
@<TRIPOS>UNITY_ATOM_ATTR
21 1
charge 1
23 1
charge -1
@<TRIPOS>BOND
     1    24    25    1
     2    25    15    1
     3    15    16   ar
     4    16    17   ar
     5    17    21    1
     6    21    22    2
     7    21    23    1
     8    17    18   ar
     9    18    19   ar
    10    19    20   ar
    11    20    14    1
    12     1    14    1
    13     1     2    1
    14     2     3   ar
    15     3     4   ar
    16     4     5   ar
    17     5     6   ar
    18     6     7   ar
    19     1     8    1
    20     8     9    1
    21     9    10    1
    22    10    11    1
    23    11    12    1
    24    20    15   ar
    25     7     2   ar
    26    12     8    1
    27    11    13    1
@<TRIPOS>MOLECULE
*****
 25 27 0 0 0
SMALL
GASTEIGER

@<TRIPOS>ATOM
      1 C         -11.9834   -5.3736   17.3101 C.3     1  UNL1        0.1895
      2 C         -11.6172   -3.9289   17.4794 C.ar    1  UNL1        0.0172
      3 C         -10.8812   -3.2089   16.3884 C.ar    1  UNL1       -0.0008
      4 C         -10.5150   -1.7642   16.5577 C.ar    1  UNL1       -0.0002
      5 C         -10.8848   -1.0395   17.8179 C.ar    1  UNL1       -0.0000
      6 C         -11.6207   -1.7594   18.9088 C.ar    1  UNL1       -0.0002
      7 C         -11.9869   -3.2042   18.7395 C.ar    1  UNL1       -0.0008
      8 C         -11.0381   -6.4454   17.7662 C.3     1  UNL1        0.0615
      9 C         -10.0752   -6.3427   18.9118 C.3     1  UNL1        0.0224
     10 C          -9.3319   -7.6418   19.0104 C.3     1  UNL1        0.0687
     11 N          -9.8353   -8.5474   17.9257 N.3     1  UNL1       -0.2973
     12 C         -10.8899   -7.8079   17.1568 C.3     1  UNL1        0.0725
     13 H         -10.2344   -9.3913   18.3368 H       1  UNL1        0.1232
     14 O         -13.2947   -5.7467   16.6847 O.3     1  UNL1       -0.4717
     15 C         -15.1001   -6.1020   18.5190 C.ar    1  UNL1        0.1785
     16 C         -16.0496   -7.0045   19.2496 C.ar    1  UNL1        0.1152
     17 C         -16.1433   -8.4544   18.8764 C.ar    1  UNL1        0.2933
     18 C         -15.2876   -9.0016   17.7728 C.ar    1  UNL1        0.0786
     19 C         -14.3381   -8.0991   17.0422 C.ar    1  UNL1        0.0464
     20 C         -14.2443   -6.6492   17.4153 C.ar    1  UNL1        0.1729
     21 N         -17.0929   -9.3569   19.6071 N.pl3   1  UNL1        0.0810
     22 O         -16.8400  -10.8348   19.6499 O.2     1  UNL1        0.0415
     23 O         -18.2954   -8.7815   20.2948 O.co2   1  UNL1       -0.5760
     24 C         -15.7546   -4.1347   20.0847 C.3     1  UNL1        0.2526
     25 O         -15.0063   -4.6522   18.8922 O.3     1  UNL1       -0.4682
@<TRIPOS>UNITY_ATOM_ATTR
21 1
charge 1
23 1
charge -1
@<TRIPOS>BOND
     1    24    25    1
     2    25    15    1
     3    15    16   ar
     4    16    17   ar
     5    17    21    1
     6    21    22    2
     7    21    23    1
     8    17    18   ar
     9    18    19   ar
    10    19    20   ar
    11    20    14    1
    12     1    14    1
    13     1     2    1
    14     2     3   ar
    15     3     4   ar
    16     4     5   ar
    17     5     6   ar
    18     6     7   ar
    19     1     8    1
    20     8     9    1
    21     9    10    1
    22    10    11    1
    23    11    12    1
    24    20    15   ar
    25     7     2   ar
    26    12     8    1
    27    11    13    1
@<TRIPOS>MOLECULE
*****
 25 27 0 0 0
SMALL
GASTEIGER

@<TRIPOS>ATOM
      1 C          -8.5328  -16.7525   23.6489 C.3     1  UNL1        0.1895
      2 C          -7.8212  -16.2068   24.8513 C.ar    1  UNL1        0.0172
      3 C          -6.4232  -15.6792   24.7201 C.ar    1  UNL1       -0.0008
      4 C          -5.7116  -15.1334   25.9226 C.ar    1  UNL1       -0.0002
      5 C          -6.3981  -15.1153   27.2562 C.ar    1  UNL1       -0.0000
      6 C          -7.7961  -15.6429   27.3873 C.ar    1  UNL1       -0.0002
      7 C          -8.5076  -16.1887   26.1849 C.ar    1  UNL1       -0.0008
      8 C          -9.8780  -17.3984   23.8024 C.3     1  UNL1        0.0615
      9 C         -10.1420  -18.7613   24.3706 C.3     1  UNL1        0.0224
     10 C         -11.6224  -18.9999   24.3340 C.3     1  UNL1        0.0687
     11 N         -12.2734  -17.7844   23.7433 N.3     1  UNL1       -0.2973
     12 C         -11.1952  -16.7946   23.4148 C.3     1  UNL1        0.0725
     13 H         -12.9230  -17.3779   24.4166 H       1  UNL1        0.1232
     14 O          -7.8993  -16.6524   22.2930 O.3     1  UNL1       -0.4717
     15 C          -6.9103  -18.7102   21.0529 C.ar    1  UNL1        0.1785
     16 C          -7.0647  -19.8312   20.0684 C.ar    1  UNL1        0.1152
     17 C          -8.3625  -20.0156   19.3393 C.ar    1  UNL1        0.2933
     18 C          -9.5060  -19.0790   19.5947 C.ar    1  UNL1        0.0786
     19 C          -9.3515  -17.9580   20.5793 C.ar    1  UNL1        0.0464
     20 C          -8.0537  -17.7736   21.3084 C.ar    1  UNL1        0.1729
     21 N          -8.5169  -21.1367   18.3547 N.pl3   1  UNL1        0.0810
     22 O          -7.5552  -22.2877   18.3718 O.2     1  UNL1        0.0415
     23 O          -9.6331  -21.1068   17.3530 O.co2   1  UNL1       -0.5760
     24 C          -4.5264  -19.5522   21.6515 C.3     1  UNL1        0.2526
     25 O          -5.6124  -18.5258   21.7820 O.3     1  UNL1       -0.4682
@<TRIPOS>UNITY_ATOM_ATTR
21 1
charge 1
23 1
charge -1
@<TRIPOS>BOND
     1    24    25    1
     2    25    15    1
     3    15    16   ar
     4    16    17   ar
     5    17    21    1
     6    21    22    2
     7    21    23    1
     8    17    18   ar
     9    18    19   ar
    10    19    20   ar
    11    20    14    1
    12     1    14    1
    13     1     2    1
    14     2     3   ar
    15     3     4   ar
    16     4     5   ar
    17     5     6   ar
    18     6     7   ar
    19     1     8    1
    20     8     9    1
    21     9    10    1
    22    10    11    1
    23    11    12    1
    24    20    15   ar
    25     7     2   ar
    26    12     8    1
    27    11    13    1
