@<TRIPOS>MOLECULE
*****
 31 34 0 0 0
SMALL
GASTEIGER

@<TRIPOS>ATOM
      1 C           5.9053   -1.8418   32.3727 C.ar    1  UNL1        0.1220
      2 N           6.3084   -3.2850   32.3050 N.ar    1  UNL1       -0.2322
      3 C           6.6173   -3.9160   30.9797 C.ar    1  UNL1        0.0872
      4 C           7.0204   -5.3592   30.9119 C.ar    1  UNL1        0.0193
      5 C           7.3293   -5.9902   29.5866 C.ar    1  UNL1        0.0015
      6 C           7.2352   -5.1779   28.3291 C.ar    1  UNL1        0.0003
      7 C           6.8321   -3.7347   28.3969 C.ar    1  UNL1        0.0063
      8 C           6.5232   -3.1038   29.7221 C.ar    1  UNL1        0.0738
      9 C           6.1200   -1.6605   29.7899 C.ar    1  UNL1        0.2631
     10 O           6.0259   -0.8483   28.5324 O.2     1  UNL1       -0.2669
     11 N           5.8111   -1.0296   31.1152 N.ar    1  UNL1       -0.2840
     12 C           7.5441   -5.8090   27.0038 C.ar    1  UNL1        0.0001
     13 C           7.9271   -7.2576   26.9339 C.ar    1  UNL1        0.0023
     14 C           8.2360   -7.8886   25.6086 C.ar    1  UNL1        0.0296
     15 C           8.1620   -7.0710   24.3532 C.ar    1  UNL1        0.1401
     16 F           8.4709   -7.7019   23.0279 F       1  UNL1       -0.2042
     17 C           7.7791   -5.6223   24.4231 C.ar    1  UNL1        0.0296
     18 C           7.4701   -4.9914   25.7484 C.ar    1  UNL1        0.0023
     19 C           6.6367   -0.3868   34.3972 C.3     1  UNL1        0.0079
     20 C           5.5963   -1.2108   33.6981 C.3     1  UNL1        0.0570
     21 C           4.2470   -1.4037   34.3242 C.3     1  UNL1        0.0079
     22 C           5.4080    0.4137   31.1830 C.3     1  UNL1        0.1115
     23 C           3.9563    0.7895   31.1454 C.3     1  UNL1        0.0388
     24 C           3.3322    1.4893   32.3163 C.3     1  UNL1        0.0048
     25 C           1.8805    1.8650   32.2786 C.3     1  UNL1        0.0174
     26 C           1.0530    1.5411   31.0702 C.3     1  UNL1        0.0720
     27 N           1.6771    0.8413   29.8994 N.3     1  UNL1       -0.2739
     28 C           3.1288    0.4656   29.9370 C.3     1  UNL1        0.0739
     29 C           0.8496    0.5174   28.6910 C.3     1  UNL1        0.0576
     30 C          -0.4212   -0.2654   28.8402 C.3     1  UNL1        0.0173
     31 C           1.2929    0.9762   27.3334 C.3     1  UNL1        0.0173
@<TRIPOS>BOND
     1    19    20    1
     2    20    21    1
     3    20     1    1
     4     1     2   ar
     5     2     3   ar
     6     3     4   ar
     7     4     5   ar
     8     5     6   ar
     9     6    12    1
    10    12    13   ar
    11    13    14   ar
    12    14    15   ar
    13    15    16    1
    14    15    17   ar
    15    17    18   ar
    16     6     7   ar
    17     7     8   ar
    18     8     9   ar
    19     9    10    2
    20     9    11   ar
    21    11    22    1
    22    23    22    1
    23    23    24    1
    24    24    25    1
    25    25    26    1
    26    26    27    1
    27    27    29    1
    28    29    30    1
    29    29    31    1
    30    27    28    1
    31    11     1   ar
    32    28    23    1
    33     8     3   ar
    34    18    12   ar
@<TRIPOS>MOLECULE
*****
 31 34 0 0 0
SMALL
GASTEIGER

@<TRIPOS>ATOM
      1 C           6.1708   -0.4444   19.2608 C.ar    1  UNL1        0.1220
      2 N           7.3829   -0.6312   20.1243 N.ar    1  UNL1       -0.2322
      3 C           7.4541   -1.7877   21.0769 C.ar    1  UNL1        0.0872
      4 C           8.6663   -1.9746   21.9405 C.ar    1  UNL1        0.0193
      5 C           8.7374   -3.1311   22.8931 C.ar    1  UNL1        0.0015
      6 C           7.5964   -4.1007   22.9821 C.ar    1  UNL1        0.0003
      7 C           6.3843   -3.9139   22.1186 C.ar    1  UNL1        0.0063
      8 C           6.3131   -2.7574   21.1660 C.ar    1  UNL1        0.0738
      9 C           5.1009   -2.5705   20.3024 C.ar    1  UNL1        0.2631
     10 O           3.9599   -3.5401   20.3914 O.2     1  UNL1       -0.2669
     11 N           5.0298   -1.4140   19.3498 N.ar    1  UNL1       -0.2840
     12 C           7.6676   -5.2572   23.9347 C.ar    1  UNL1        0.0001
     13 C           6.9958   -5.1691   25.2729 C.ar    1  UNL1        0.0023
     14 C           7.0670   -6.3256   26.2256 C.ar    1  UNL1        0.0296
     15 C           7.8100   -7.5703   25.8399 C.ar    1  UNL1        0.1401
     16 F           7.8813   -8.7268   26.7925 F       1  UNL1       -0.2042
     17 C           8.4818   -7.6584   24.5016 C.ar    1  UNL1        0.0296
     18 C           8.4106   -6.5019   23.5491 C.ar    1  UNL1        0.0023
     19 C           5.7067    2.0713   18.8065 C.3     1  UNL1        0.0079
     20 C           6.0996    0.7122   18.3081 C.3     1  UNL1        0.0570
     21 C           6.4212    0.5095   16.8571 C.3     1  UNL1        0.0079
     22 C           3.8176   -1.2271   18.4862 C.3     1  UNL1        0.1115
     23 C           2.6557   -0.4224   18.9886 C.3     1  UNL1        0.0388
     24 C           1.7795   -0.9687   20.0767 C.3     1  UNL1        0.0048
     25 C           0.6176   -0.1640   20.5791 C.3     1  UNL1        0.0174
     26 C           0.3319    1.1871   19.9933 C.3     1  UNL1        0.0720
     27 N           1.2080    1.7333   18.9052 N.3     1  UNL1       -0.2739
     28 C           2.3699    0.9286   18.4029 C.3     1  UNL1        0.0739
     29 C           0.9222    3.0843   18.3195 C.3     1  UNL1        0.0576
     30 C          -0.4548    3.4098   17.8214 C.3     1  UNL1        0.0173
     31 C           2.0133    4.1099   18.2319 C.3     1  UNL1        0.0173
@<TRIPOS>BOND
     1    19    20    1
     2    20    21    1
     3    20     1    1
     4     1     2   ar
     5     2     3   ar
     6     3     4   ar
     7     4     5   ar
     8     5     6   ar
     9     6    12    1
    10    12    13   ar
    11    13    14   ar
    12    14    15   ar
    13    15    16    1
    14    15    17   ar
    15    17    18   ar
    16     6     7   ar
    17     7     8   ar
    18     8     9   ar
    19     9    10    2
    20     9    11   ar
    21    11    22    1
    22    23    22    1
    23    23    24    1
    24    24    25    1
    25    25    26    1
    26    26    27    1
    27    27    29    1
    28    29    30    1
    29    29    31    1
    30    27    28    1
    31    11     1   ar
    32    28    23    1
    33     8     3   ar
    34    18    12   ar
@<TRIPOS>MOLECULE
*****
 31 34 0 0 0
SMALL
GASTEIGER

@<TRIPOS>ATOM
      1 C           0.1954    3.3084   24.6642 C.ar    1  UNL1        0.1220
      2 N           1.1495    2.2683   25.1719 N.ar    1  UNL1       -0.2322
      3 C           1.7145    1.2457   24.2311 C.ar    1  UNL1        0.0872
      4 C           2.6686    0.2056   24.7388 C.ar    1  UNL1        0.0193
      5 C           3.2336   -0.8169   23.7980 C.ar    1  UNL1        0.0015
      6 C           2.8445   -0.7994   22.3495 C.ar    1  UNL1        0.0003
      7 C           1.8903    0.2407   21.8418 C.ar    1  UNL1        0.0063
      8 C           1.3254    1.2632   22.7826 C.ar    1  UNL1        0.0738
      9 C           0.3712    2.3034   22.2748 C.ar    1  UNL1        0.2631
     10 O          -0.0180    2.3209   20.8263 O.2     1  UNL1       -0.2669
     11 N          -0.1938    3.3259   23.2157 N.ar    1  UNL1       -0.2840
     12 C           3.4095   -1.8220   21.4087 C.ar    1  UNL1        0.0001
     13 C           4.3276   -2.8899   21.9250 C.ar    1  UNL1        0.0023
     14 C           4.8927   -3.9125   20.9842 C.ar    1  UNL1        0.0296
     15 C           4.5395   -3.8672   19.5271 C.ar    1  UNL1        0.1401
     16 F           5.1044   -4.8898   18.5863 F       1  UNL1       -0.2042
     17 C           3.6213   -2.7993   19.0108 C.ar    1  UNL1        0.0296
     18 C           3.0563   -1.7767   19.9516 C.ar    1  UNL1        0.0023
     19 C           0.2342    5.7024   25.6729 C.3     1  UNL1        0.0079
     20 C          -0.3696    4.3310   25.6050 C.3     1  UNL1        0.0570
     21 C          -1.5385    3.9822   26.4779 C.3     1  UNL1        0.0079
     22 C          -1.1479    4.3661   22.7079 C.3     1  UNL1        0.1115
     23 C          -2.5639    3.9910   22.3849 C.3     1  UNL1        0.0388
     24 C          -3.5129    3.6247   23.4873 C.3     1  UNL1        0.0048
     25 C          -4.9289    3.2496   23.1642 C.3     1  UNL1        0.0174
     26 C          -5.3958    3.2409   21.7387 C.3     1  UNL1        0.0720
     27 N          -4.4469    3.6073   20.6364 N.3     1  UNL1       -0.2739
     28 C          -3.0309    3.9823   20.9595 C.3     1  UNL1        0.0739
     29 C          -4.9138    3.5986   19.2110 C.3     1  UNL1        0.0576
     30 C          -6.3333    3.2359   18.8890 C.3     1  UNL1        0.0173
     31 C          -3.9614    3.9526   18.1075 C.3     1  UNL1        0.0173
@<TRIPOS>BOND
     1    19    20    1
     2    20    21    1
     3    20     1    1
     4     1     2   ar
     5     2     3   ar
     6     3     4   ar
     7     4     5   ar
     8     5     6   ar
     9     6    12    1
    10    12    13   ar
    11    13    14   ar
    12    14    15   ar
    13    15    16    1
    14    15    17   ar
    15    17    18   ar
    16     6     7   ar
    17     7     8   ar
    18     8     9   ar
    19     9    10    2
    20     9    11   ar
    21    11    22    1
    22    23    22    1
    23    23    24    1
    24    24    25    1
    25    25    26    1
    26    26    27    1
    27    27    29    1
    28    29    30    1
    29    29    31    1
    30    27    28    1
    31    11     1   ar
    32    28    23    1
    33     8     3   ar
    34    18    12   ar
@<TRIPOS>MOLECULE
*****
 31 34 0 0 0
SMALL
GASTEIGER

@<TRIPOS>ATOM
      1 C          -0.6191    3.4766   18.8849 C.ar    1  UNL1        0.1220
      2 N           0.2180    2.4595   18.1674 N.ar    1  UNL1       -0.2322
      3 C           1.0285    1.4687   18.9494 C.ar    1  UNL1        0.0872
      4 C           1.8656    0.4517   18.2320 C.ar    1  UNL1        0.0193
      5 C           2.6760   -0.5391   19.0140 C.ar    1  UNL1        0.0015
      6 C           2.6492   -0.5128   20.5136 C.ar    1  UNL1        0.0003
      7 C           1.8121    0.5043   21.2310 C.ar    1  UNL1        0.0063
      8 C           1.0017    1.4950   20.4490 C.ar    1  UNL1        0.0738
      9 C           0.1645    2.5121   21.1664 C.ar    1  UNL1        0.2631
     10 O           0.1378    2.5384   22.6660 O.2     1  UNL1       -0.2669
     11 N          -0.6459    3.5029   20.3844 N.ar    1  UNL1       -0.2840
     12 C           3.4597   -1.5036   21.2956 C.ar    1  UNL1        0.0001
     13 C           4.0729   -2.6842   20.6029 C.ar    1  UNL1        0.0023
     14 C           4.8833   -3.6751   21.3849 C.ar    1  UNL1        0.0296
     15 C           5.0805   -3.4851   22.8597 C.ar    1  UNL1        0.1401
     16 F           5.8909   -4.4759   23.6418 F       1  UNL1       -0.2042
     17 C           4.4672   -2.3044   23.5525 C.ar    1  UNL1        0.0296
     18 C           3.6568   -1.3137   22.7704 C.ar    1  UNL1        0.0023
     19 C          -2.8279    4.1261   17.6810 C.3     1  UNL1        0.0079
     20 C          -1.4296    4.4674   18.1028 C.3     1  UNL1        0.0570
     21 C          -0.8415    5.7995   17.7426 C.3     1  UNL1        0.0079
     22 C          -1.4830    4.5200   21.1019 C.3     1  UNL1        0.1115
     23 C          -2.6851    4.0836   21.8858 C.3     1  UNL1        0.0388
     24 C          -3.8469    3.4451   21.1840 C.3     1  UNL1        0.0048
     25 C          -5.0490    3.0087   21.9679 C.3     1  UNL1        0.0174
     26 C          -5.0893    3.2109   23.4537 C.3     1  UNL1        0.0720
     27 N          -3.9275    3.8494   24.1555 N.3     1  UNL1       -0.2739
     28 C          -2.7254    4.2857   23.3716 C.3     1  UNL1        0.0739
     29 C          -3.9678    4.0515   25.6413 C.3     1  UNL1        0.0576
     30 C          -5.1515    4.7200   26.2754 C.3     1  UNL1        0.0173
     31 C          -2.8244    3.5852   26.4929 C.3     1  UNL1        0.0173
@<TRIPOS>BOND
     1    19    20    1
     2    20    21    1
     3    20     1    1
     4     1     2   ar
     5     2     3   ar
     6     3     4   ar
     7     4     5   ar
     8     5     6   ar
     9     6    12    1
    10    12    13   ar
    11    13    14   ar
    12    14    15   ar
    13    15    16    1
    14    15    17   ar
    15    17    18   ar
    16     6     7   ar
    17     7     8   ar
    18     8     9   ar
    19     9    10    2
    20     9    11   ar
    21    11    22    1
    22    23    22    1
    23    23    24    1
    24    24    25    1
    25    25    26    1
    26    26    27    1
    27    27    29    1
    28    29    30    1
    29    29    31    1
    30    27    28    1
    31    11     1   ar
    32    28    23    1
    33     8     3   ar
    34    18    12   ar
@<TRIPOS>MOLECULE
*****
 31 34 0 0 0
SMALL
GASTEIGER

@<TRIPOS>ATOM
      1 C           6.2396   -2.8911   21.0418 C.ar    1  UNL1        0.1220
      2 N           6.8053   -4.0829   21.7556 N.ar    1  UNL1       -0.2322
      3 C           6.8005   -4.1313   23.2548 C.ar    1  UNL1        0.0872
      4 C           7.3662   -5.3231   23.9686 C.ar    1  UNL1        0.0193
      5 C           7.3613   -5.3715   25.4678 C.ar    1  UNL1        0.0015
      6 C           6.7908   -4.2280   26.2532 C.ar    1  UNL1        0.0003
      7 C           6.2251   -3.0362   25.5395 C.ar    1  UNL1        0.0063
      8 C           6.2299   -2.9878   24.0403 C.ar    1  UNL1        0.0738
      9 C           5.6642   -1.7960   23.3265 C.ar    1  UNL1        0.2631
     10 O           5.0936   -0.6525   24.1119 O.2     1  UNL1       -0.2669
     11 N           5.6690   -1.7476   21.8273 N.ar    1  UNL1       -0.2840
     12 C           6.7859   -4.2764   27.7525 C.ar    1  UNL1        0.0001
     13 C           6.5769   -3.0188   28.5428 C.ar    1  UNL1        0.0023
     14 C           6.5720   -3.0672   30.0421 C.ar    1  UNL1        0.0296
     15 C           6.7763   -4.3733   30.7509 C.ar    1  UNL1        0.1401
     16 F           6.7714   -4.4218   32.2501 F       1  UNL1       -0.2042
     17 C           6.9854   -5.6310   29.9605 C.ar    1  UNL1        0.0296
     18 C           6.9902   -5.5825   28.4613 C.ar    1  UNL1        0.0023
     19 C           7.3078   -2.0694   18.8206 C.3     1  UNL1        0.0079
     20 C           6.2444   -2.8427   19.5426 C.3     1  UNL1        0.0570
     21 C           5.1859   -3.5675   18.7654 C.3     1  UNL1        0.0079
     22 C           5.1033   -0.5557   21.1135 C.3     1  UNL1        0.1115
     23 C           3.6174   -0.3869   20.9971 C.3     1  UNL1        0.0388
     24 C           2.8697   -1.0676   19.8890 C.3     1  UNL1        0.0048
     25 C           1.3838   -0.8987   19.7726 C.3     1  UNL1        0.0174
     26 C           0.6456   -0.0491   20.7643 C.3     1  UNL1        0.0720
     27 N           1.3932    0.6316   21.8722 N.3     1  UNL1       -0.2739
     28 C           2.8791    0.4627   21.9886 C.3     1  UNL1        0.0739
     29 C           0.6550    1.4811   22.8638 C.3     1  UNL1        0.0576
     30 C           0.6995    1.1399   24.3238 C.3     1  UNL1        0.0173
     31 C          -0.1278    2.6719   22.3953 C.3     1  UNL1        0.0173
@<TRIPOS>BOND
     1    19    20    1
     2    20    21    1
     3    20     1    1
     4     1     2   ar
     5     2     3   ar
     6     3     4   ar
     7     4     5   ar
     8     5     6   ar
     9     6    12    1
    10    12    13   ar
    11    13    14   ar
    12    14    15   ar
    13    15    16    1
    14    15    17   ar
    15    17    18   ar
    16     6     7   ar
    17     7     8   ar
    18     8     9   ar
    19     9    10    2
    20     9    11   ar
    21    11    22    1
    22    23    22    1
    23    23    24    1
    24    24    25    1
    25    25    26    1
    26    26    27    1
    27    27    29    1
    28    29    30    1
    29    29    31    1
    30    27    28    1
    31    11     1   ar
    32    28    23    1
    33     8     3   ar
    34    18    12   ar
@<TRIPOS>MOLECULE
*****
 31 34 0 0 0
SMALL
GASTEIGER

@<TRIPOS>ATOM
      1 C           6.0084   -1.7533   32.4428 C.ar    1  UNL1        0.1220
      2 N           6.3593   -3.2103   32.3804 N.ar    1  UNL1       -0.2322
      3 C           6.6538   -3.8549   31.0583 C.ar    1  UNL1        0.0872
      4 C           7.0047   -5.3119   30.9960 C.ar    1  UNL1        0.0193
      5 C           7.2992   -5.9565   29.6740 C.ar    1  UNL1        0.0015
      6 C           7.2427   -5.1440   28.4143 C.ar    1  UNL1        0.0003
      7 C           6.8918   -3.6870   28.4767 C.ar    1  UNL1        0.0063
      8 C           6.5973   -3.0424   29.7987 C.ar    1  UNL1        0.0738
      9 C           6.2464   -1.5854   29.8611 C.ar    1  UNL1        0.2631
     10 O           6.1900   -0.7729   28.6015 O.2     1  UNL1       -0.2669
     11 N           5.9520   -0.9408   31.1831 N.ar    1  UNL1       -0.2840
     12 C           7.5372   -5.7886   27.0922 C.ar    1  UNL1        0.0001
     13 C           7.9580   -7.2273   27.0365 C.ar    1  UNL1        0.0023
     14 C           8.2525   -7.8719   25.7144 C.ar    1  UNL1        0.0296
     15 C           8.1261   -7.0778   24.4481 C.ar    1  UNL1        0.1401
     16 F           8.4206   -7.7224   23.1261 F       1  UNL1       -0.2042
     17 C           7.7053   -5.6391   24.5039 C.ar    1  UNL1        0.0296
     18 C           7.4108   -4.9946   25.8259 C.ar    1  UNL1        0.0023
     19 C           4.3460   -1.2270   34.3688 C.3     1  UNL1        0.0079
     20 C           5.7139   -1.1086   33.7649 C.3     1  UNL1        0.0570
     21 C           6.7874   -0.3457   34.4829 C.3     1  UNL1        0.0079
     22 C           5.6010    0.5163   31.2456 C.3     1  UNL1        0.1115
     23 C           4.1627    0.9404   31.2813 C.3     1  UNL1        0.0388
     24 C           3.2118    0.4571   30.2266 C.3     1  UNL1        0.0048
     25 C           1.7735    0.8812   30.2623 C.3     1  UNL1        0.0174
     26 C           1.2860    1.7887   31.3528 C.3     1  UNL1        0.0720
     27 N           2.2369    2.2720   32.4074 N.3     1  UNL1       -0.2739
     28 C           3.6752    1.8478   32.3716 C.3     1  UNL1        0.0739
     29 C           1.7494    3.1794   33.4977 C.3     1  UNL1        0.0576
     30 C           0.7383    4.2442   33.1913 C.3     1  UNL1        0.0173
     31 C           2.2730    3.0220   34.8946 C.3     1  UNL1        0.0173
@<TRIPOS>BOND
     1    19    20    1
     2    20    21    1
     3    20     1    1
     4     1     2   ar
     5     2     3   ar
     6     3     4   ar
     7     4     5   ar
     8     5     6   ar
     9     6    12    1
    10    12    13   ar
    11    13    14   ar
    12    14    15   ar
    13    15    16    1
    14    15    17   ar
    15    17    18   ar
    16     6     7   ar
    17     7     8   ar
    18     8     9   ar
    19     9    10    2
    20     9    11   ar
    21    11    22    1
    22    23    22    1
    23    23    24    1
    24    24    25    1
    25    25    26    1
    26    26    27    1
    27    27    29    1
    28    29    30    1
    29    29    31    1
    30    27    28    1
    31    11     1   ar
    32    28    23    1
    33     8     3   ar
    34    18    12   ar
@<TRIPOS>MOLECULE
*****
 31 34 0 0 0
SMALL
GASTEIGER

@<TRIPOS>ATOM
      1 C           2.6017    0.8534   27.0396 C.ar    1  UNL1        0.1220
      2 N           2.2524    1.8158   25.9435 N.ar    1  UNL1       -0.2322
      3 C           0.8455    2.3177   25.8060 C.ar    1  UNL1        0.0872
      4 C           0.4962    3.2801   24.7099 C.ar    1  UNL1        0.0193
      5 C          -0.9106    3.7819   24.5725 C.ar    1  UNL1        0.0015
      6 C          -1.9682    3.3212   25.5313 C.ar    1  UNL1        0.0003
      7 C          -1.6189    2.3587   26.6274 C.ar    1  UNL1        0.0063
      8 C          -0.2121    1.8570   26.7648 C.ar    1  UNL1        0.0738
      9 C           0.1373    0.8944   27.8610 C.ar    1  UNL1        0.2631
     10 O          -0.9203    0.4338   28.8198 O.2     1  UNL1       -0.2669
     11 N           1.5441    0.3927   27.9984 N.ar    1  UNL1       -0.2840
     12 C          -3.3751    3.8230   25.3938 C.ar    1  UNL1        0.0001
     13 C          -4.0217    4.5625   26.5274 C.ar    1  UNL1        0.0023
     14 C          -5.4287    5.0643   26.3899 C.ar    1  UNL1        0.0296
     15 C          -6.1889    4.8266   25.1189 C.ar    1  UNL1        0.1401
     16 F          -7.5958    5.3284   24.9814 F       1  UNL1       -0.2042
     17 C          -5.5422    4.0870   23.9853 C.ar    1  UNL1        0.0296
     18 C          -4.1354    3.5853   24.1228 C.ar    1  UNL1        0.0023
     19 C           4.4299   -0.9027   26.4705 C.3     1  UNL1        0.0079
     20 C           4.0086    0.3516   27.1771 C.3     1  UNL1        0.0570
     21 C           4.9942    1.1041   28.0211 C.3     1  UNL1        0.0079
     22 C           1.8935   -0.5698   29.0946 C.3     1  UNL1        0.1115
     23 C           2.3136   -0.0547   30.4393 C.3     1  UNL1        0.0388
     24 C           1.9224    1.3284   30.8683 C.3     1  UNL1        0.0048
     25 C           2.3426    1.8436   32.2130 C.3     1  UNL1        0.0174
     26 C           3.1540    0.9756   33.1286 C.3     1  UNL1        0.0720
     27 N           3.5451   -0.4075   32.6996 N.3     1  UNL1       -0.2739
     28 C           3.1250   -0.9226   31.3549 C.3     1  UNL1        0.0739
     29 C           4.3565   -1.2754   33.6152 C.3     1  UNL1        0.0576
     30 C           4.7944   -2.6375   33.1647 C.3     1  UNL1        0.0173
     31 C           4.7300   -0.7813   34.9814 C.3     1  UNL1        0.0173
@<TRIPOS>BOND
     1    19    20    1
     2    20    21    1
     3    20     1    1
     4     1     2   ar
     5     2     3   ar
     6     3     4   ar
     7     4     5   ar
     8     5     6   ar
     9     6    12    1
    10    12    13   ar
    11    13    14   ar
    12    14    15   ar
    13    15    16    1
    14    15    17   ar
    15    17    18   ar
    16     6     7   ar
    17     7     8   ar
    18     8     9   ar
    19     9    10    2
    20     9    11   ar
    21    11    22    1
    22    23    22    1
    23    23    24    1
    24    24    25    1
    25    25    26    1
    26    26    27    1
    27    27    29    1
    28    29    30    1
    29    29    31    1
    30    27    28    1
    31    11     1   ar
    32    28    23    1
    33     8     3   ar
    34    18    12   ar
@<TRIPOS>MOLECULE
*****
 31 34 0 0 0
SMALL
GASTEIGER

@<TRIPOS>ATOM
      1 C           6.2486   -0.5618   19.4047 C.ar    1  UNL1        0.1220
      2 N           7.4698   -0.7788   20.2483 N.ar    1  UNL1       -0.2322
      3 C           7.5133   -1.9151   21.2266 C.ar    1  UNL1        0.0872
      4 C           8.7344   -2.1321   22.0702 C.ar    1  UNL1        0.0193
      5 C           8.7779   -3.2683   23.0484 C.ar    1  UNL1        0.0015
      6 C           7.6002   -4.1875   23.1831 C.ar    1  UNL1        0.0003
      7 C           6.3791   -3.9705   22.3396 C.ar    1  UNL1        0.0063
      8 C           6.3356   -2.8343   21.3613 C.ar    1  UNL1        0.0738
      9 C           5.1144   -2.6172   20.5177 C.ar    1  UNL1        0.2631
     10 O           3.9367   -3.5364   20.6524 O.2     1  UNL1       -0.2669
     11 N           5.0709   -1.4810   19.5394 N.ar    1  UNL1       -0.2840
     12 C           7.6438   -5.3238   24.1615 C.ar    1  UNL1        0.0001
     13 C           6.9734   -5.1900   25.4966 C.ar    1  UNL1        0.0023
     14 C           7.0169   -6.3263   26.4750 C.ar    1  UNL1        0.0296
     15 C           7.7309   -7.5963   26.1181 C.ar    1  UNL1        0.1401
     16 F           7.7744   -8.7326   27.0963 F       1  UNL1       -0.2042
     17 C           8.4012   -7.7301   24.7828 C.ar    1  UNL1        0.0296
     18 C           8.3577   -6.5938   23.8046 C.ar    1  UNL1        0.0023
     19 C           6.6156    0.3529   17.0008 C.3     1  UNL1        0.0079
     20 C           6.2051    0.5745   18.4264 C.3     1  UNL1        0.0570
     21 C           5.7510    1.9323   18.8737 C.3     1  UNL1        0.0079
     22 C           3.8497   -1.2639   18.6958 C.3     1  UNL1        0.1115
     23 C           2.7963   -0.2917   19.1373 C.3     1  UNL1        0.0388
     24 C           1.9728    0.4367   18.1168 C.3     1  UNL1        0.0048
     25 C           0.9194    1.4090   18.5583 C.3     1  UNL1        0.0174
     26 C           0.6894    1.6529   20.0204 C.3     1  UNL1        0.0720
     27 N           1.5129    0.9245   21.0409 N.3     1  UNL1       -0.2739
     28 C           2.5663   -0.0478   20.5994 C.3     1  UNL1        0.0739
     29 C           1.2829    1.1684   22.5029 C.3     1  UNL1        0.0576
     30 C           0.2130    2.1224   22.9450 C.3     1  UNL1        0.0173
     31 C           2.1227    0.4584   23.5230 C.3     1  UNL1        0.0173
@<TRIPOS>BOND
     1    19    20    1
     2    20    21    1
     3    20     1    1
     4     1     2   ar
     5     2     3   ar
     6     3     4   ar
     7     4     5   ar
     8     5     6   ar
     9     6    12    1
    10    12    13   ar
    11    13    14   ar
    12    14    15   ar
    13    15    16    1
    14    15    17   ar
    15    17    18   ar
    16     6     7   ar
    17     7     8   ar
    18     8     9   ar
    19     9    10    2
    20     9    11   ar
    21    11    22    1
    22    23    22    1
    23    23    24    1
    24    24    25    1
    25    25    26    1
    26    26    27    1
    27    27    29    1
    28    29    30    1
    29    29    31    1
    30    27    28    1
    31    11     1   ar
    32    28    23    1
    33     8     3   ar
    34    18    12   ar
@<TRIPOS>MOLECULE
*****
 31 34 0 0 0
SMALL
GASTEIGER

@<TRIPOS>ATOM
      1 C           0.2142    3.3548   24.5394 C.ar    1  UNL1        0.1220
      2 N           1.1621    2.3126   25.0543 N.ar    1  UNL1       -0.2322
      3 C           1.7191    1.2787   24.1210 C.ar    1  UNL1        0.0872
      4 C           2.6670    0.2365   24.6359 C.ar    1  UNL1        0.0193
      5 C           3.2240   -0.7973   23.7026 C.ar    1  UNL1        0.0015
      6 C           2.8331   -0.7889   22.2545 C.ar    1  UNL1        0.0003
      7 C           1.8852    0.2534   21.7396 C.ar    1  UNL1        0.0063
      8 C           1.3282    1.2872   22.6729 C.ar    1  UNL1        0.0738
      9 C           0.3803    2.3295   22.1580 C.ar    1  UNL1        0.2631
     10 O          -0.0107    2.3380   20.7099 O.2     1  UNL1       -0.2669
     11 N          -0.1767    3.3633   23.0913 N.ar    1  UNL1       -0.2840
     12 C           3.3901   -1.8227   21.3212 C.ar    1  UNL1        0.0001
     13 C           3.0021   -1.8120   19.8723 C.ar    1  UNL1        0.0023
     14 C           3.5592   -2.8459   18.9391 C.ar    1  UNL1        0.0296
     15 C           4.5042   -3.8904   19.4548 C.ar    1  UNL1        0.1401
     16 F           5.0612   -4.9242   18.5216 F       1  UNL1       -0.2042
     17 C           4.8922   -3.9011   20.9037 C.ar    1  UNL1        0.0296
     18 C           4.3351   -2.8672   21.8369 C.ar    1  UNL1        0.0023
     19 C           0.2116    5.7824   25.4651 C.3     1  UNL1        0.0079
     20 C          -0.3428    4.3887   25.4727 C.3     1  UNL1        0.0570
     21 C          -1.4543    4.0288   26.4134 C.3     1  UNL1        0.0079
     22 C          -1.1247    4.4056   22.5764 C.3     1  UNL1        0.1115
     23 C          -2.5911    4.1046   22.4819 C.3     1  UNL1        0.0388
     24 C          -3.1313    3.3737   21.2885 C.3     1  UNL1        0.0048
     25 C          -4.5978    3.0727   21.1940 C.3     1  UNL1        0.0174
     26 C          -5.5240    3.5026   22.2929 C.3     1  UNL1        0.0720
     27 N          -4.9837    4.2334   23.4862 N.3     1  UNL1       -0.2739
     28 C          -3.5173    4.5344   23.5807 C.3     1  UNL1        0.0739
     29 C          -5.9099    4.6632   24.5850 C.3     1  UNL1        0.0576
     30 C          -7.3621    4.8991   24.2925 C.3     1  UNL1        0.0173
     31 C          -5.3840    4.8571   25.9764 C.3     1  UNL1        0.0173
@<TRIPOS>BOND
     1    19    20    1
     2    20    21    1
     3    20     1    1
     4     1     2   ar
     5     2     3   ar
     6     3     4   ar
     7     4     5   ar
     8     5     6   ar
     9     6    12    1
    10    12    13   ar
    11    13    14   ar
    12    14    15   ar
    13    15    16    1
    14    15    17   ar
    15    17    18   ar
    16     6     7   ar
    17     7     8   ar
    18     8     9   ar
    19     9    10    2
    20     9    11   ar
    21    11    22    1
    22    23    22    1
    23    23    24    1
    24    24    25    1
    25    25    26    1
    26    26    27    1
    27    27    29    1
    28    29    30    1
    29    29    31    1
    30    27    28    1
    31    11     1   ar
    32    28    23    1
    33     8     3   ar
    34    18    12   ar
