@<TRIPOS>MOLECULE
*****
 31 35 0 0 0
SMALL
GASTEIGER

@<TRIPOS>ATOM
      1 N          -7.3317  -20.6573   20.9451 N.pl3   1  UNL1       -0.2927
      2 H          -7.5318  -21.6186   20.8732 H       1  UNL1        0.1541
      3 C          -8.4177  -19.6909   21.3149 C.ar    1  UNL1        0.1629
      4 N          -8.4701  -18.8582   22.5614 N.ar    1  UNL1       -0.2284
      5 C          -9.7267  -18.0401   22.5200 C.ar    1  UNL1        0.0666
      6 C         -10.4510  -18.3673   21.2478 C.ar    1  UNL1        0.0237
      7 S          -9.6420  -19.3875   20.5030 S.2     1  UNL1       -0.0561
      8 C         -11.7536  -17.6939   20.9319 C.3     1  UNL1        0.0343
      9 C         -12.3319  -16.6934   21.8882 C.3     1  UNL1        0.0060
     10 C         -11.6076  -16.3663   23.1604 C.3     1  UNL1        0.0107
     11 C         -10.3050  -17.0396   23.4763 C.3     1  UNL1        0.0627
     12 C          -9.5807  -16.7125   24.7484 C.ar    1  UNL1       -0.0169
     13 C          -9.5986  -17.6826   25.8924 C.ar    1  UNL1       -0.0039
     14 C          -8.8743  -17.3554   27.1645 C.ar    1  UNL1       -0.0003
     15 C          -8.1322  -16.0583   27.2928 C.ar    1  UNL1       -0.0000
     16 C          -8.1143  -15.0882   26.1488 C.ar    1  UNL1       -0.0003
     17 C          -8.8385  -15.4154   24.8766 C.ar    1  UNL1       -0.0039
     18 C          -4.0091  -18.5034   21.2103 C.ar    1  UNL1        0.1445
     19 C          -5.3998  -19.0015   21.4705 C.ar    1  UNL1        0.0517
     20 C          -5.9410  -20.1591   20.6849 C.ar    1  UNL1        0.0528
     21 C          -5.0915  -20.8185   19.6392 C.ar    1  UNL1        0.0150
     22 C          -3.7008  -20.3203   19.3790 C.ar    1  UNL1        0.0091
     23 C          -3.1596  -19.1627   20.1646 C.ar    1  UNL1        0.0900
     24 C          -1.7688  -18.6645   19.9044 C.ar    1  UNL1        0.2626
     25 N          -0.6750  -18.5320   20.9222 N.ar    1  UNL1       -0.1910
     26 C           0.5422  -17.9969   20.2277 C.ar    1  UNL1        0.1812
     27 C           1.8681  -17.7104   20.8677 C.3     1  UNL1        0.0773
     28 N           0.2004  -17.7987   18.7806 N.ar    1  UNL1       -0.0602
     29 O          -1.2278  -18.2113   18.5808 O.2     1  UNL1       -0.3327
     30 C          -3.9729  -17.0790   23.3829 C.3     1  UNL1        0.2525
     31 O          -3.4678  -17.3457   21.9959 O.3     1  UNL1       -0.4712
@<TRIPOS>BOND
     1    30    31    1
     2    31    18    1
     3    18    19   ar
     4    19    20   ar
     5    20     1    1
     6     1     3    1
     7     3     4   ar
     8     4     5   ar
     9     5     6   ar
    10     6     7   ar
    11     6     8    1
    12     8     9    1
    13     9    10    1
    14    10    11    1
    15    11    12    1
    16    12    13   ar
    17    13    14   ar
    18    14    15   ar
    19    15    16   ar
    20    16    17   ar
    21    20    21   ar
    22    21    22   ar
    23    22    23   ar
    24    23    24    1
    25    24    25   ar
    26    25    26   ar
    27    26    27    1
    28    26    28   ar
    29    28    29   ar
    30    23    18   ar
    31    29    24   ar
    32     7     3   ar
    33    17    12   ar
    34    11     5    1
    35     1     2    1
@<TRIPOS>MOLECULE
*****
 31 35 0 0 0
SMALL
GASTEIGER

@<TRIPOS>ATOM
      1 N          -7.5274  -19.7079   19.8920 N.pl3   1  UNL1       -0.2927
      2 H          -7.6167  -20.1229   19.0037 H       1  UNL1        0.1541
      3 C          -6.1699  -19.3462   20.4178 C.ar    1  UNL1        0.1629
      4 N          -5.8882  -18.5282   21.6432 N.ar    1  UNL1       -0.2284
      5 C          -4.4000  -18.4156   21.7933 C.ar    1  UNL1        0.0666
      6 C          -3.7619  -19.1639   20.6607 C.ar    1  UNL1        0.0237
      7 S          -4.8558  -19.7391   19.8106 S.2     1  UNL1       -0.0561
      8 C          -2.2673  -19.2250   20.5498 C.3     1  UNL1        0.0343
      9 C          -1.4108  -18.5376   21.5715 C.3     1  UNL1        0.0060
     10 C          -2.0489  -17.7892   22.7041 C.3     1  UNL1        0.0107
     11 C          -3.5435  -17.7282   22.8150 C.3     1  UNL1        0.0627
     12 C          -4.1816  -16.9798   23.9476 C.ar    1  UNL1       -0.0169
     13 C          -3.9456  -17.4172   25.3628 C.ar    1  UNL1       -0.0039
     14 C          -4.5837  -16.6688   26.4954 C.ar    1  UNL1       -0.0003
     15 C          -5.4578  -15.4831   26.2128 C.ar    1  UNL1       -0.0000
     16 C          -5.6938  -15.0457   24.7975 C.ar    1  UNL1       -0.0003
     17 C          -5.0557  -15.7941   23.6649 C.ar    1  UNL1       -0.0039
     18 C         -11.0963  -18.3546   20.9788 C.ar    1  UNL1        0.1445
     19 C          -9.8749  -18.6253   20.1513 C.ar    1  UNL1        0.0517
     20 C          -8.7488  -19.4372   20.7195 C.ar    1  UNL1        0.0528
     21 C          -8.8442  -19.9784   22.1152 C.ar    1  UNL1        0.0150
     22 C         -10.0657  -19.7077   22.9427 C.ar    1  UNL1        0.0091
     23 C         -11.1917  -18.8958   22.3745 C.ar    1  UNL1        0.0900
     24 C         -12.4132  -18.6251   23.2021 C.ar    1  UNL1        0.2626
     25 N         -12.5257  -18.7917   24.6885 N.ar    1  UNL1       -0.1910
     26 C         -13.9187  -18.4098   25.0936 C.ar    1  UNL1        0.1812
     27 C         -14.4670  -18.4274   26.4897 C.3     1  UNL1        0.0773
     28 N         -14.6670  -18.0073   23.8574 N.ar    1  UNL1       -0.0602
     29 O         -13.7365  -18.1403   22.6884 O.2     1  UNL1       -0.3327
     30 C         -11.9982  -16.1074   20.0371 C.3     1  UNL1        0.2525
     31 O         -12.2225  -17.5427   20.4106 O.3     1  UNL1       -0.4712
@<TRIPOS>BOND
     1    30    31    1
     2    31    18    1
     3    18    19   ar
     4    19    20   ar
     5    20     1    1
     6     1     3    1
     7     3     4   ar
     8     4     5   ar
     9     5     6   ar
    10     6     7   ar
    11     6     8    1
    12     8     9    1
    13     9    10    1
    14    10    11    1
    15    11    12    1
    16    12    13   ar
    17    13    14   ar
    18    14    15   ar
    19    15    16   ar
    20    16    17   ar
    21    20    21   ar
    22    21    22   ar
    23    22    23   ar
    24    23    24    1
    25    24    25   ar
    26    25    26   ar
    27    26    27    1
    28    26    28   ar
    29    28    29   ar
    30    23    18   ar
    31    29    24   ar
    32     7     3   ar
    33    17    12   ar
    34    11     5    1
    35     1     2    1
@<TRIPOS>MOLECULE
*****
 31 35 0 0 0
SMALL
GASTEIGER

@<TRIPOS>ATOM
      1 N           2.9487    0.6925   26.2091 N.pl3   1  UNL1       -0.2927
      2 H           2.5452    1.5670   26.0052 H       1  UNL1        0.1541
      3 C           3.3378   -0.2323   25.0941 C.ar    1  UNL1        0.1629
      4 N           2.9479   -0.0885   23.6528 N.ar    1  UNL1       -0.2284
      5 C           3.5542   -1.2306   22.8924 C.ar    1  UNL1        0.0666
      6 C           4.3187   -2.0802   23.8638 C.ar    1  UNL1        0.0237
      7 S           4.1850   -1.4632   25.2245 S.2     1  UNL1       -0.0561
      8 C           5.0379   -3.3059   23.3838 C.3     1  UNL1        0.0343
      9 C           4.9926   -3.6820   21.9324 C.3     1  UNL1        0.0060
     10 C           4.2280   -2.8323   20.9611 C.3     1  UNL1        0.0107
     11 C           3.5088   -1.6067   21.4410 C.3     1  UNL1        0.0627
     12 C           2.7443   -0.7570   20.4697 C.ar    1  UNL1       -0.0169
     13 C           3.4281   -0.2097   19.2520 C.ar    1  UNL1       -0.0039
     14 C           2.6636    0.6399   18.2806 C.ar    1  UNL1       -0.0003
     15 C           1.2152    0.9422   18.5269 C.ar    1  UNL1       -0.0000
     16 C           0.5313    0.3949   19.7445 C.ar    1  UNL1       -0.0003
     17 C           1.2959   -0.4547   20.7159 C.ar    1  UNL1       -0.0039
     18 C           4.7851   -0.1014   29.6366 C.ar    1  UNL1        0.1445
     19 C           4.5593    0.3062   28.2109 C.ar    1  UNL1        0.0517
     20 C           3.1744    0.2848   27.6349 C.ar    1  UNL1        0.0528
     21 C           2.0153   -0.1443   28.4847 C.ar    1  UNL1        0.0150
     22 C           2.2411   -0.5520   29.9106 C.ar    1  UNL1        0.0091
     23 C           3.6259   -0.5306   30.4865 C.ar    1  UNL1        0.0900
     24 C           3.8517   -0.9383   31.9123 C.ar    1  UNL1        0.2626
     25 N           4.2809   -0.0348   33.0301 N.ar    1  UNL1       -0.1910
     26 C           4.3824   -0.8591   34.2793 C.ar    1  UNL1        0.1812
     27 C           4.7804   -0.3585   35.6361 C.3     1  UNL1        0.0773
     28 N           4.0159   -2.2720   33.9333 N.ar    1  UNL1       -0.0602
     29 O           3.6879   -2.3209   32.4705 O.2     1  UNL1       -0.3327
     30 C           7.1845   -1.0897   29.7640 C.3     1  UNL1        0.2525
     31 O           6.1700   -0.0800   30.2126 O.3     1  UNL1       -0.4712
@<TRIPOS>BOND
     1    30    31    1
     2    31    18    1
     3    18    19   ar
     4    19    20   ar
     5    20     1    1
     6     1     3    1
     7     3     4   ar
     8     4     5   ar
     9     5     6   ar
    10     6     7   ar
    11     6     8    1
    12     8     9    1
    13     9    10    1
    14    10    11    1
    15    11    12    1
    16    12    13   ar
    17    13    14   ar
    18    14    15   ar
    19    15    16   ar
    20    16    17   ar
    21    20    21   ar
    22    21    22   ar
    23    22    23   ar
    24    23    24    1
    25    24    25   ar
    26    25    26   ar
    27    26    27    1
    28    26    28   ar
    29    28    29   ar
    30    23    18   ar
    31    29    24   ar
    32     7     3   ar
    33    17    12   ar
    34    11     5    1
    35     1     2    1
@<TRIPOS>MOLECULE
*****
 31 35 0 0 0
SMALL
GASTEIGER

@<TRIPOS>ATOM
      1 N           3.1230    0.9360   25.9987 N.pl3   1  UNL1       -0.2927
      2 H           3.7896    1.2122   26.6684 H       1  UNL1        0.1541
      3 C           3.4835   -0.0814   24.9570 C.ar    1  UNL1        0.1629
      4 N           3.0860   -0.0419   23.5112 N.ar    1  UNL1       -0.2284
      5 C           3.6617   -1.2530   22.8389 C.ar    1  UNL1        0.0666
      6 C           4.4150   -2.0409   23.8693 C.ar    1  UNL1        0.0237
      7 S           4.3049   -1.3169   25.1783 S.2     1  UNL1       -0.0561
      8 C           5.1039   -3.3160   23.4824 C.3     1  UNL1        0.0343
      9 C           5.0394   -3.8030   22.0651 C.3     1  UNL1        0.0060
     10 C           4.2861   -3.0150   21.0348 C.3     1  UNL1        0.0107
     11 C           3.5973   -1.7400   21.4217 C.3     1  UNL1        0.0627
     12 C           2.8440   -0.9520   20.3913 C.ar    1  UNL1       -0.0169
     13 C           1.4257   -0.5392   20.6521 C.ar    1  UNL1       -0.0039
     14 C           0.6724    0.2488   19.6217 C.ar    1  UNL1       -0.0003
     15 C           1.3374    0.6240   18.3306 C.ar    1  UNL1       -0.0000
     16 C           2.7557    0.2112   18.0699 C.ar    1  UNL1       -0.0003
     17 C           3.5090   -0.5768   19.1002 C.ar    1  UNL1       -0.0039
     18 C          -0.6358    1.6568   27.0482 C.ar    1  UNL1        0.1445
     19 C           0.7403    1.0604   27.0270 C.ar    1  UNL1        0.0517
     20 C           1.7469    1.5324   26.0199 C.ar    1  UNL1        0.0528
     21 C           1.3772    2.6007   25.0340 C.ar    1  UNL1        0.0150
     22 C           0.0010    3.1972   25.0553 C.ar    1  UNL1        0.0091
     23 C          -1.0055    2.7252   26.0623 C.ar    1  UNL1        0.0900
     24 C          -2.3817    3.3216   26.0836 C.ar    1  UNL1        0.2626
     25 N          -3.3749    3.2872   24.9600 N.ar    1  UNL1       -0.1910
     26 C          -4.6134    4.0015   25.4141 C.ar    1  UNL1        0.1812
     27 C          -5.8606    4.2043   24.6059 C.3     1  UNL1        0.0773
     28 N          -4.3855    4.4772   26.8183 N.ar    1  UNL1       -0.0602
     29 O          -3.0063    4.0571   27.2321 O.2     1  UNL1       -0.3327
     30 C          -1.3392   -0.0040   28.9183 C.3     1  UNL1        0.2525
     31 O          -1.6424    1.1849   28.0553 O.3     1  UNL1       -0.4712
@<TRIPOS>BOND
     1    30    31    1
     2    31    18    1
     3    18    19   ar
     4    19    20   ar
     5    20     1    1
     6     1     3    1
     7     3     4   ar
     8     4     5   ar
     9     5     6   ar
    10     6     7   ar
    11     6     8    1
    12     8     9    1
    13     9    10    1
    14    10    11    1
    15    11    12    1
    16    12    13   ar
    17    13    14   ar
    18    14    15   ar
    19    15    16   ar
    20    16    17   ar
    21    20    21   ar
    22    21    22   ar
    23    22    23   ar
    24    23    24    1
    25    24    25   ar
    26    25    26   ar
    27    26    27    1
    28    26    28   ar
    29    28    29   ar
    30    23    18   ar
    31    29    24   ar
    32     7     3   ar
    33    17    12   ar
    34    11     5    1
    35     1     2    1
@<TRIPOS>MOLECULE
*****
 31 35 0 0 0
SMALL
GASTEIGER

@<TRIPOS>ATOM
      1 N          -0.0653    3.0749   21.1278 N.pl3   1  UNL1       -0.2927
      2 H           0.0136    3.7866   20.4520 H       1  UNL1        0.1541
      3 C          -0.9978    3.2447   22.2903 C.ar    1  UNL1        0.1629
      4 N          -0.6629    3.0015   23.7321 N.ar    1  UNL1       -0.2284
      5 C          -1.8871    3.2940   24.5481 C.ar    1  UNL1        0.0666
      6 C          -2.9786    3.7180   23.6107 C.ar    1  UNL1        0.0237
      7 S          -2.4290    3.6876   22.2153 S.2     1  UNL1       -0.0561
      8 C          -4.3319    4.0770   24.1487 C.3     1  UNL1        0.0343
      9 C          -4.5937    4.0121   25.6243 C.3     1  UNL1        0.0060
     10 C          -3.5022    3.5880   26.5617 C.3     1  UNL1        0.0107
     11 C          -2.1489    3.2290   26.0236 C.3     1  UNL1        0.0627
     12 C          -1.0574    2.8050   26.9611 C.ar    1  UNL1       -0.0169
     13 C          -0.8437    1.3495   27.2540 C.ar    1  UNL1       -0.0039
     14 C           0.2478    0.9255   28.1914 C.ar    1  UNL1       -0.0003
     15 C           1.1257    1.9570   28.8359 C.ar    1  UNL1       -0.0000
     16 C           0.9120    3.4125   28.5430 C.ar    1  UNL1       -0.0003
     17 C          -0.1795    3.8365   27.6056 C.ar    1  UNL1       -0.0039
     18 C           2.9557    0.5166   21.4073 C.ar    1  UNL1        0.1445
     19 C           2.1434    1.7705   21.5403 C.ar    1  UNL1        0.0517
     20 C           0.7470    1.8210   20.9948 C.ar    1  UNL1        0.0528
     21 C           0.1629    0.6175   20.3162 C.ar    1  UNL1        0.0150
     22 C           0.9753   -0.6365   20.1832 C.ar    1  UNL1        0.0091
     23 C           2.3717   -0.6869   20.7288 C.ar    1  UNL1        0.0900
     24 C           3.1840   -1.9409   20.5958 C.ar    1  UNL1        0.2626
     25 N           3.3405   -2.7621   19.3503 N.ar    1  UNL1       -0.1910
     26 C           4.2357   -3.9226   19.6696 C.ar    1  UNL1        0.1812
     27 C           4.6597   -4.9982   18.7140 C.3     1  UNL1        0.0773
     28 N           4.6325   -3.8186   21.1125 N.ar    1  UNL1       -0.0602
     29 O           3.9825   -2.5939   21.6849 O.2     1  UNL1       -0.3327
     30 C           4.5940    0.6884   23.4164 C.3     1  UNL1        0.2525
     31 O           4.3521    0.4661   21.9528 O.3     1  UNL1       -0.4712
@<TRIPOS>BOND
     1    30    31    1
     2    31    18    1
     3    18    19   ar
     4    19    20   ar
     5    20     1    1
     6     1     3    1
     7     3     4   ar
     8     4     5   ar
     9     5     6   ar
    10     6     7   ar
    11     6     8    1
    12     8     9    1
    13     9    10    1
    14    10    11    1
    15    11    12    1
    16    12    13   ar
    17    13    14   ar
    18    14    15   ar
    19    15    16   ar
    20    16    17   ar
    21    20    21   ar
    22    21    22   ar
    23    22    23   ar
    24    23    24    1
    25    24    25   ar
    26    25    26   ar
    27    26    27    1
    28    26    28   ar
    29    28    29   ar
    30    23    18   ar
    31    29    24   ar
    32     7     3   ar
    33    17    12   ar
    34    11     5    1
    35     1     2    1
@<TRIPOS>MOLECULE
*****
 31 35 0 0 0
SMALL
GASTEIGER

@<TRIPOS>ATOM
      1 N          -0.1579    3.0151   19.6240 N.pl3   1  UNL1       -0.2927
      2 H           0.0679    3.7058   18.9598 H       1  UNL1        0.1541
      3 C          -1.3372    3.2043   20.5315 C.ar    1  UNL1        0.1629
      4 N          -1.2839    3.3952   22.0184 N.ar    1  UNL1       -0.2284
      5 C          -2.6906    3.5447   22.5173 C.ar    1  UNL1        0.0666
      6 C          -3.6133    3.4463   21.3387 C.ar    1  UNL1        0.0237
      7 S          -2.7768    3.2360   20.1115 S.2     1  UNL1       -0.0561
      8 C          -5.0959    3.5610   21.5354 C.3     1  UNL1        0.0343
      9 C          -5.6558    3.7740   22.9105 C.3     1  UNL1        0.0060
     10 C          -4.7331    3.8724   24.0890 C.3     1  UNL1        0.0107
     11 C          -3.2505    3.7578   23.8924 C.3     1  UNL1        0.0627
     12 C          -2.3277    3.8562   25.0709 C.ar    1  UNL1       -0.0169
     13 C          -2.2400    5.1349   25.8501 C.ar    1  UNL1       -0.0039
     14 C          -1.3173    5.2333   27.0286 C.ar    1  UNL1       -0.0003
     15 C          -0.4823    4.0530   27.4280 C.ar    1  UNL1       -0.0000
     16 C          -0.5701    2.7743   26.6489 C.ar    1  UNL1       -0.0003
     17 C          -1.4928    2.6759   25.4703 C.ar    1  UNL1       -0.0039
     18 C           2.9139    0.5235   19.2982 C.ar    1  UNL1        0.1445
     19 C           2.0787    1.7651   19.1937 C.ar    1  UNL1        0.0517
     20 C           0.6772    1.7735   19.7285 C.ar    1  UNL1        0.0528
     21 C           0.1110    0.5404   20.3677 C.ar    1  UNL1        0.0150
     22 C           0.9463   -0.7013   20.4722 C.ar    1  UNL1        0.0091
     23 C           2.3476   -0.7096   19.9374 C.ar    1  UNL1        0.0900
     24 C           3.1829   -1.9513   20.0419 C.ar    1  UNL1        0.2626
     25 N           3.3726   -2.9792   18.9661 N.ar    1  UNL1       -0.1910
     26 C           4.2820   -4.0462   19.4997 C.ar    1  UNL1        0.1812
     27 C           4.7389   -5.2673   18.7581 C.3     1  UNL1        0.0773
     28 N           4.6543   -3.6775   20.9053 N.ar    1  UNL1       -0.0602
     29 O           3.9750   -2.3828   21.2403 O.2     1  UNL1       -0.3327
     30 C           4.5824    0.0359   17.3673 C.3     1  UNL1        0.2525
     31 O           4.3153    0.5151   18.7634 O.3     1  UNL1       -0.4712
@<TRIPOS>BOND
     1    30    31    1
     2    31    18    1
     3    18    19   ar
     4    19    20   ar
     5    20     1    1
     6     1     3    1
     7     3     4   ar
     8     4     5   ar
     9     5     6   ar
    10     6     7   ar
    11     6     8    1
    12     8     9    1
    13     9    10    1
    14    10    11    1
    15    11    12    1
    16    12    13   ar
    17    13    14   ar
    18    14    15   ar
    19    15    16   ar
    20    16    17   ar
    21    20    21   ar
    22    21    22   ar
    23    22    23   ar
    24    23    24    1
    25    24    25   ar
    26    25    26   ar
    27    26    27    1
    28    26    28   ar
    29    28    29   ar
    30    23    18   ar
    31    29    24   ar
    32     7     3   ar
    33    17    12   ar
    34    11     5    1
    35     1     2    1
@<TRIPOS>MOLECULE
*****
 31 35 0 0 0
SMALL
GASTEIGER

@<TRIPOS>ATOM
      1 N           2.7783    1.0202   26.0784 N.pl3   1  UNL1       -0.2927
      2 H           3.3939    1.2771   26.8025 H       1  UNL1        0.1541
      3 C           3.2107    0.0226   25.0450 C.ar    1  UNL1        0.1629
      4 N           2.8768    0.0663   23.5833 N.ar    1  UNL1       -0.2284
      5 C           3.5126   -1.1231   22.9268 C.ar    1  UNL1        0.0666
      6 C           4.2395   -1.9020   23.9828 C.ar    1  UNL1        0.0237
      7 S           4.0528   -1.1938   25.2919 S.2     1  UNL1       -0.0561
      8 C           4.9773   -3.1553   23.6160 C.3     1  UNL1        0.0343
      9 C           4.9883   -3.6298   22.1931 C.3     1  UNL1        0.0060
     10 C           4.2615   -2.8510   21.1371 C.3     1  UNL1        0.0107
     11 C           3.5237   -1.5976   21.5039 C.3     1  UNL1        0.0627
     12 C           2.7969   -0.8188   20.4479 C.ar    1  UNL1       -0.0169
     13 C           3.5087   -0.4140   19.1912 C.ar    1  UNL1       -0.0039
     14 C           2.7819    0.3648   18.1352 C.ar    1  UNL1       -0.0003
     15 C           1.3432    0.7389   18.3359 C.ar    1  UNL1       -0.0000
     16 C           0.6314    0.3341   19.5927 C.ar    1  UNL1       -0.0003
     17 C           1.3582   -0.4447   20.6487 C.ar    1  UNL1       -0.0039
     18 C          -0.2965    3.2070   24.8483 C.ar    1  UNL1        0.1445
     19 C           1.0737    2.6009   24.9182 C.ar    1  UNL1        0.0517
     20 C           1.4081    1.6264   26.0085 C.ar    1  UNL1        0.0528
     21 C           0.3721    1.2582   27.0290 C.ar    1  UNL1        0.0150
     22 C          -0.9982    1.8645   26.9590 C.ar    1  UNL1        0.0091
     23 C          -1.3325    2.8389   25.8687 C.ar    1  UNL1        0.0900
     24 C          -2.7028    3.4451   25.7988 C.ar    1  UNL1        0.2626
     25 N          -3.3168    4.3564   26.8199 N.ar    1  UNL1       -0.1910
     26 C          -4.6931    4.7210   26.3477 C.ar    1  UNL1        0.1812
     27 C          -5.6626    5.6147   27.0628 C.3     1  UNL1        0.0773
     28 N          -4.9296    4.0351   25.0348 N.ar    1  UNL1       -0.0602
     29 O          -3.6995    3.2465   24.6956 O.2     1  UNL1       -0.3327
     30 C          -1.0131    3.6814   22.3964 C.3     1  UNL1        0.2525
     31 O          -0.6309    4.1815   23.7580 O.3     1  UNL1       -0.4712
@<TRIPOS>BOND
     1    30    31    1
     2    31    18    1
     3    18    19   ar
     4    19    20   ar
     5    20     1    1
     6     1     3    1
     7     3     4   ar
     8     4     5   ar
     9     5     6   ar
    10     6     7   ar
    11     6     8    1
    12     8     9    1
    13     9    10    1
    14    10    11    1
    15    11    12    1
    16    12    13   ar
    17    13    14   ar
    18    14    15   ar
    19    15    16   ar
    20    16    17   ar
    21    20    21   ar
    22    21    22   ar
    23    22    23   ar
    24    23    24    1
    25    24    25   ar
    26    25    26   ar
    27    26    27    1
    28    26    28   ar
    29    28    29   ar
    30    23    18   ar
    31    29    24   ar
    32     7     3   ar
    33    17    12   ar
    34    11     5    1
    35     1     2    1
@<TRIPOS>MOLECULE
*****
 31 35 0 0 0
SMALL
GASTEIGER

@<TRIPOS>ATOM
      1 N           5.8658   -1.4678   24.5258 N.pl3   1  UNL1       -0.2927
      2 H           6.8243   -1.4027   24.7406 H       1  UNL1        0.1541
      3 C           5.4300   -2.0167   23.1995 C.ar    1  UNL1        0.1629
      4 N           4.4568   -1.3742   22.2562 N.ar    1  UNL1       -0.2284
      5 C           4.3162   -2.2648   21.0574 C.ar    1  UNL1        0.0666
      6 C           5.2027   -3.4578   21.2599 C.ar    1  UNL1        0.0237
      7 S           5.8910   -3.3044   22.5838 S.2     1  UNL1       -0.0561
      8 C           5.2685   -4.5296   20.2127 C.3     1  UNL1        0.0343
      9 C           4.4479   -4.4085   18.9629 C.3     1  UNL1        0.0060
     10 C           3.5615   -3.2155   18.7604 C.3     1  UNL1        0.0107
     11 C           3.4957   -2.1436   19.8077 C.3     1  UNL1        0.0627
     12 C           2.6092   -0.9507   19.6052 C.ar    1  UNL1       -0.0169
     13 C           1.3303   -0.8265   20.3791 C.ar    1  UNL1       -0.0039
     14 C           0.4439    0.3664   20.1766 C.ar    1  UNL1       -0.0003
     15 C           0.8364    1.4353   19.2002 C.ar    1  UNL1       -0.0000
     16 C           2.1152    1.3112   18.4263 C.ar    1  UNL1       -0.0003
     17 C           3.0017    0.1182   18.6288 C.ar    1  UNL1       -0.0039
     18 C           2.8255    0.4956   26.1541 C.ar    1  UNL1        0.1445
     19 C           3.8501    0.0458   25.1553 C.ar    1  UNL1        0.0517
     20 C           4.8411   -1.0180   25.5246 C.ar    1  UNL1        0.0528
     21 C           4.8073   -1.6321   26.8927 C.ar    1  UNL1        0.0150
     22 C           3.7825   -1.1823   27.8916 C.ar    1  UNL1        0.0091
     23 C           2.7916   -0.1185   27.5223 C.ar    1  UNL1        0.0900
     24 C           1.7669    0.3313   28.5211 C.ar    1  UNL1        0.2626
     25 N           1.9436    1.4226   29.5349 N.ar    1  UNL1       -0.1910
     26 C           0.6714    1.5346   30.3219 C.ar    1  UNL1        0.1812
     27 C           0.4084    2.4992   31.4400 C.3     1  UNL1        0.0773
     28 N          -0.2914    0.5124   29.7944 N.ar    1  UNL1       -0.0602
     29 O           0.3856   -0.2312   28.6814 O.2     1  UNL1       -0.3327
     30 C           0.5982    1.1985   25.0159 C.3     1  UNL1        0.2525
     31 O           1.8345    1.5595   25.7849 O.3     1  UNL1       -0.4712
@<TRIPOS>BOND
     1    30    31    1
     2    31    18    1
     3    18    19   ar
     4    19    20   ar
     5    20     1    1
     6     1     3    1
     7     3     4   ar
     8     4     5   ar
     9     5     6   ar
    10     6     7   ar
    11     6     8    1
    12     8     9    1
    13     9    10    1
    14    10    11    1
    15    11    12    1
    16    12    13   ar
    17    13    14   ar
    18    14    15   ar
    19    15    16   ar
    20    16    17   ar
    21    20    21   ar
    22    21    22   ar
    23    22    23   ar
    24    23    24    1
    25    24    25   ar
    26    25    26   ar
    27    26    27    1
    28    26    28   ar
    29    28    29   ar
    30    23    18   ar
    31    29    24   ar
    32     7     3   ar
    33    17    12   ar
    34    11     5    1
    35     1     2    1
@<TRIPOS>MOLECULE
*****
 31 35 0 0 0
SMALL
GASTEIGER

@<TRIPOS>ATOM
      1 N           1.0798    3.4285   33.1886 N.pl3   1  UNL1       -0.2927
      2 H           0.4167    4.0853   33.5017 H       1  UNL1        0.1541
      3 C           2.0703    2.8449   34.1521 C.ar    1  UNL1        0.1629
      4 N           2.9522    1.6582   33.8994 N.ar    1  UNL1       -0.2284
      5 C           3.7798    1.4255   35.1287 C.ar    1  UNL1        0.0666
      6 C           3.4094    2.4685   36.1411 C.ar    1  UNL1        0.0237
      7 S           2.3529    3.3457   35.5375 S.2     1  UNL1       -0.0561
      8 C           4.0819    2.4846   37.4817 C.3     1  UNL1        0.0343
      9 C           5.1249    1.4578   37.8099 C.3     1  UNL1        0.0060
     10 C           5.4953    0.4148   36.7975 C.3     1  UNL1        0.0107
     11 C           4.8228    0.3987   35.4569 C.3     1  UNL1        0.0627
     12 C           5.1932   -0.6443   34.4445 C.ar    1  UNL1       -0.0169
     13 C           6.5334   -0.5949   33.7727 C.ar    1  UNL1       -0.0039
     14 C           6.9039   -1.6379   32.7603 C.ar    1  UNL1       -0.0003
     15 C           5.9340   -2.7303   32.4196 C.ar    1  UNL1       -0.0000
     16 C           4.5938   -2.7797   33.0914 C.ar    1  UNL1       -0.0003
     17 C           4.2234   -1.7367   34.1038 C.ar    1  UNL1       -0.0039
     18 C           0.4886    1.2979   29.8930 C.ar    1  UNL1        0.1445
     19 C           0.4687    1.7150   31.3336 C.ar    1  UNL1        0.0517
     20 C           1.0997    3.0113   31.7479 C.ar    1  UNL1        0.0528
     21 C           1.7506    3.8903   30.7215 C.ar    1  UNL1        0.0150
     22 C           1.7705    3.4731   29.2808 C.ar    1  UNL1        0.0091
     23 C           1.1395    2.1769   28.8665 C.ar    1  UNL1        0.0900
     24 C           1.1593    1.7597   27.4258 C.ar    1  UNL1        0.2626
     25 N           2.2701    1.0244   26.7362 N.ar    1  UNL1       -0.1910
     26 C           1.8692    0.8147   25.3059 C.ar    1  UNL1        0.1812
     27 C           2.6838    0.1211   24.2546 C.3     1  UNL1        0.0773
     28 N           0.5107    1.4205   25.1118 N.ar    1  UNL1       -0.0602
     29 O           0.0721    2.0045   26.4219 O.2     1  UNL1       -0.3327
     30 C          -1.5830   -0.0317   29.0618 C.3     1  UNL1        0.2525
     31 O          -0.1425    0.0016   29.4787 O.3     1  UNL1       -0.4712
@<TRIPOS>BOND
     1    30    31    1
     2    31    18    1
     3    18    19   ar
     4    19    20   ar
     5    20     1    1
     6     1     3    1
     7     3     4   ar
     8     4     5   ar
     9     5     6   ar
    10     6     7   ar
    11     6     8    1
    12     8     9    1
    13     9    10    1
    14    10    11    1
    15    11    12    1
    16    12    13   ar
    17    13    14   ar
    18    14    15   ar
    19    15    16   ar
    20    16    17   ar
    21    20    21   ar
    22    21    22   ar
    23    22    23   ar
    24    23    24    1
    25    24    25   ar
    26    25    26   ar
    27    26    27    1
    28    26    28   ar
    29    28    29   ar
    30    23    18   ar
    31    29    24   ar
    32     7     3   ar
    33    17    12   ar
    34    11     5    1
    35     1     2    1
