@<TRIPOS>MOLECULE
*****
 35 38 0 0 0
SMALL
GASTEIGER

@<TRIPOS>ATOM
      1 N           3.4154    0.2270   22.2130 N.am    1  UNL1       -0.2533
      2 C           2.0697    0.7773   22.5817 C.2     1  UNL1        0.3092
      3 O           0.8632    0.4179   21.7659 O.2     1  UNL1       -0.2521
      4 N           1.9301    1.6870   23.7662 N.am    1  UNL1       -0.2680
      5 H           4.2072    0.4629   22.7485 H       1  UNL1        0.1578
      6 H           2.7219    1.9229   24.3016 H       1  UNL1        0.1564
      7 C           0.5843    2.2373   24.1348 C.ar    1  UNL1        0.0517
      8 C          -0.0987    3.2183   23.2286 C.ar    1  UNL1        0.0162
      9 C          -1.4445    3.7686   23.5973 C.ar    1  UNL1        0.0189
     10 C          -2.1074    3.3380   24.8720 C.ar    1  UNL1        0.0663
     11 C          -1.4244    2.3569   25.7782 C.ar    1  UNL1        0.0189
     12 C          -0.0786    1.8066   25.4096 C.ar    1  UNL1        0.0162
     13 N          -3.4533    3.8882   25.2406 N.ar    1  UNL1       -0.2782
     14 C          -3.7878    4.6286   26.5016 C.ar    1  UNL1        0.1843
     15 N          -5.2422    4.9927   26.4533 N.ar    1  UNL1       -0.2111
     16 C          -5.8064    4.4774   25.1625 C.ar    1  UNL1        0.1669
     17 CL         -7.2269    4.6198   24.7020 Cl      1  UNL1       -0.0588
     18 C          -4.7008    3.7948   24.4130 C.ar    1  UNL1        0.1526
     19 CL         -4.8215    3.1347   23.0715 Cl      1  UNL1       -0.0602
     20 N           3.2486   -0.3282   19.6037 N.ar    1  UNL1       -0.2162
     21 N           3.5296   -1.5331   18.7556 N.ar    1  UNL1       -0.1683
     22 C           4.0097   -2.6323   19.6564 C.ar    1  UNL1        0.0810
     23 C           4.0253   -2.1067   21.0612 C.ar    1  UNL1        0.0509
     24 C           3.5549   -0.6828   21.0286 C.ar    1  UNL1        0.1380
     25 C           1.2498    4.9777   17.6409 C.3     1  UNL1        0.0310
     26 C           1.7495    3.6512   18.1316 C.ar    1  UNL1       -0.0218
     27 C           3.1735    3.5052   18.5796 C.ar    1  UNL1       -0.0027
     28 C           3.6732    2.1788   19.0703 C.ar    1  UNL1        0.0189
     29 C           2.7489    0.9982   19.1130 C.ar    1  UNL1        0.0842
     30 C           1.3248    1.1442   18.6649 C.ar    1  UNL1        0.0189
     31 C           0.8252    2.4707   18.1742 C.ar    1  UNL1       -0.0027
     32 C           4.4047   -4.0143   19.2276 C.3     1  UNL1        0.0372
     33 C           5.8488   -3.6663   19.4363 C.3     1  UNL1        0.0060
     34 C           2.9607   -4.3623   19.0188 C.3     1  UNL1        0.0060
     35 C           4.7998   -5.3964   18.7988 C.3     1  UNL1        0.0060
@<TRIPOS>BOND
     1    25    26    1
     2    26    27   ar
     3    27    28   ar
     4    28    29   ar
     5    29    20    1
     6    20    21   ar
     7    21    22   ar
     8    22    32    1
     9    32    33    1
    10    32    34    1
    11    32    35    1
    12    22    23   ar
    13    23    24   ar
    14    24     1    1
    15     1     2   am
    16     2     3    2
    17     2     4   am
    18     4     7    1
    19     7     8   ar
    20     8     9   ar
    21     9    10   ar
    22    10    13    1
    23    13    14   ar
    24    14    15   ar
    25    15    16   ar
    26    16    17    1
    27    16    18   ar
    28    18    19    1
    29    10    11   ar
    30    11    12   ar
    31    29    30   ar
    32    30    31   ar
    33    31    26   ar
    34    24    20   ar
    35    12     7   ar
    36    18    13   ar
    37     1     5    1
    38     4     6    1
@<TRIPOS>MOLECULE
*****
 35 38 0 0 0
SMALL
GASTEIGER

@<TRIPOS>ATOM
      1 N           3.6391    0.4407   22.1390 N.am    1  UNL1       -0.2533
      2 C           2.2638    0.9303   22.4835 C.2     1  UNL1        0.3092
      3 O           1.0840    0.4860   21.6706 O.2     1  UNL1       -0.2521
      4 N           2.0682    1.8642   23.6409 N.am    1  UNL1       -0.2680
      5 H           4.4134    0.7324   22.6725 H       1  UNL1        0.1578
      6 H           2.8424    2.1558   24.1744 H       1  UNL1        0.1564
      7 C           0.6928    2.3537   23.9854 C.ar    1  UNL1        0.0517
      8 C          -0.0379    3.2628   23.0422 C.ar    1  UNL1        0.0162
      9 C          -1.4132    3.7524   23.3867 C.ar    1  UNL1        0.0189
     10 C          -2.0580    3.3328   24.6743 C.ar    1  UNL1        0.0663
     11 C          -1.3274    2.4237   25.6176 C.ar    1  UNL1        0.0189
     12 C           0.0480    1.9342   25.2731 C.ar    1  UNL1        0.0162
     13 N          -3.4334    3.8224   25.0188 N.ar    1  UNL1       -0.2782
     14 C          -3.8410    4.4715   26.3082 C.ar    1  UNL1        0.1843
     15 N          -5.3022    4.7991   26.2207 N.ar    1  UNL1       -0.2111
     16 C          -5.7977    4.3523   24.8772 C.ar    1  UNL1        0.1669
     17 CL         -7.2016    4.4858   24.3662 Cl      1  UNL1       -0.0588
     18 C          -4.6427    3.7487   24.1344 C.ar    1  UNL1        0.1526
     19 CL         -4.6889    3.1725   22.7502 Cl      1  UNL1       -0.0602
     20 N           3.8383   -0.1109   19.5311 N.ar    1  UNL1       -0.2162
     21 N           4.0670   -1.3548   18.7246 N.ar    1  UNL1       -0.1683
     22 C           4.2048   -2.5058   19.6766 C.ar    1  UNL1        0.0810
     23 C           4.0613   -1.9732   21.0715 C.ar    1  UNL1        0.0509
     24 C           3.8348   -0.4932   20.9816 C.ar    1  UNL1        0.1380
     25 C           3.0722    5.4219   17.3400 C.3     1  UNL1        0.0310
     26 C           3.2637    4.0387   17.8878 C.ar    1  UNL1       -0.0218
     27 C           2.0771    3.2393   18.3380 C.ar    1  UNL1       -0.0027
     28 C           2.2686    1.8561   18.8858 C.ar    1  UNL1        0.0189
     29 C           3.6468    1.2723   18.9833 C.ar    1  UNL1        0.0842
     30 C           4.8335    2.0716   18.5331 C.ar    1  UNL1        0.0189
     31 C           4.6420    3.4548   17.9853 C.ar    1  UNL1       -0.0027
     32 C           4.4441   -3.9378   19.2998 C.3     1  UNL1        0.0372
     33 C           2.9864   -4.0985   18.9847 C.3     1  UNL1        0.0060
     34 C           5.9018   -3.7771   19.6149 C.3     1  UNL1        0.0060
     35 C           4.6834   -5.3698   18.9230 C.3     1  UNL1        0.0060
@<TRIPOS>BOND
     1    25    26    1
     2    26    27   ar
     3    27    28   ar
     4    28    29   ar
     5    29    20    1
     6    20    21   ar
     7    21    22   ar
     8    22    32    1
     9    32    33    1
    10    32    34    1
    11    32    35    1
    12    22    23   ar
    13    23    24   ar
    14    24     1    1
    15     1     2   am
    16     2     3    2
    17     2     4   am
    18     4     7    1
    19     7     8   ar
    20     8     9   ar
    21     9    10   ar
    22    10    13    1
    23    13    14   ar
    24    14    15   ar
    25    15    16   ar
    26    16    17    1
    27    16    18   ar
    28    18    19    1
    29    10    11   ar
    30    11    12   ar
    31    29    30   ar
    32    30    31   ar
    33    31    26   ar
    34    24    20   ar
    35    12     7   ar
    36    18    13   ar
    37     1     5    1
    38     4     6    1
@<TRIPOS>MOLECULE
*****
 35 38 0 0 0
SMALL
GASTEIGER

@<TRIPOS>ATOM
      1 N           0.4351    3.6217   24.9187 N.am    1  UNL1       -0.2533
      2 C           1.0258    2.4021   24.2757 C.2     1  UNL1        0.3092
      3 O           0.2223    1.1387   24.1840 O.2     1  UNL1       -0.2521
      4 N           2.4201    2.4458   23.7242 N.am    1  UNL1       -0.2680
      5 H           0.9625    4.4508   24.9789 H       1  UNL1        0.1578
      6 H           2.9475    3.2749   23.7843 H       1  UNL1        0.1564
      7 C           3.0108    1.2262   23.0811 C.ar    1  UNL1        0.0517
      8 C           3.5116    1.2910   21.6686 C.ar    1  UNL1        0.0162
      9 C           4.1023    0.0714   21.0255 C.ar    1  UNL1        0.0189
     10 C           4.1922   -1.2131   21.7948 C.ar    1  UNL1        0.0663
     11 C           3.6915   -1.2780   23.2073 C.ar    1  UNL1        0.0189
     12 C           3.1008   -0.0584   23.8504 C.ar    1  UNL1        0.0162
     13 N           4.7829   -2.4327   21.1517 N.ar    1  UNL1       -0.2782
     14 C           6.0693   -3.0991   21.5406 C.ar    1  UNL1        0.1843
     15 N           6.2724   -4.2783   20.6361 N.ar    1  UNL1       -0.2111
     16 C           5.1115   -4.3407   19.6882 C.ar    1  UNL1        0.1669
     17 CL          4.9071   -5.3641   18.6107 Cl      1  UNL1       -0.0588
     18 C           4.1910   -3.2000   20.0068 C.ar    1  UNL1        0.1526
     19 CL          2.9044   -2.8825   19.3041 Cl      1  UNL1       -0.0602
     20 N          -1.3804    2.9217   26.7516 N.ar    1  UNL1       -0.2162
     21 N          -2.8585    3.1211   26.9104 N.ar    1  UNL1       -0.1683
     22 C          -3.3509    3.9006   25.7272 C.ar    1  UNL1        0.0810
     23 C          -2.1770    4.1830   24.8371 C.ar    1  UNL1        0.0509
     24 C          -0.9592    3.5780   25.4702 C.ar    1  UNL1        0.1380
     25 C           2.2161    0.0101   30.5710 C.3     1  UNL1        0.0310
     26 C           1.3170    0.7380   29.6162 C.ar    1  UNL1       -0.0218
     27 C           0.3155   -0.0241   28.8001 C.ar    1  UNL1       -0.0027
     28 C          -0.5837    0.7038   27.8452 C.ar    1  UNL1        0.0189
     29 C          -0.4812    2.1938   27.7064 C.ar    1  UNL1        0.0842
     30 C           0.5203    2.9559   28.5225 C.ar    1  UNL1        0.0189
     31 C           1.4194    2.2280   29.4774 C.ar    1  UNL1       -0.0027
     32 C          -4.7683    4.3235   25.4779 C.3     1  UNL1        0.0372
     33 C          -4.7786    5.0596   26.7848 C.3     1  UNL1        0.0060
     34 C          -4.7581    3.5874   24.1710 C.3     1  UNL1        0.0060
     35 C          -6.1857    4.7464   25.2286 C.3     1  UNL1        0.0060
@<TRIPOS>BOND
     1    25    26    1
     2    26    27   ar
     3    27    28   ar
     4    28    29   ar
     5    29    20    1
     6    20    21   ar
     7    21    22   ar
     8    22    32    1
     9    32    33    1
    10    32    34    1
    11    32    35    1
    12    22    23   ar
    13    23    24   ar
    14    24     1    1
    15     1     2   am
    16     2     3    2
    17     2     4   am
    18     4     7    1
    19     7     8   ar
    20     8     9   ar
    21     9    10   ar
    22    10    13    1
    23    13    14   ar
    24    14    15   ar
    25    15    16   ar
    26    16    17    1
    27    16    18   ar
    28    18    19    1
    29    10    11   ar
    30    11    12   ar
    31    29    30   ar
    32    30    31   ar
    33    31    26   ar
    34    24    20   ar
    35    12     7   ar
    36    18    13   ar
    37     1     5    1
    38     4     6    1
@<TRIPOS>MOLECULE
*****
 35 38 0 0 0
SMALL
GASTEIGER

@<TRIPOS>ATOM
      1 N           0.4277    3.6615   23.0320 N.am    1  UNL1       -0.2533
      2 C           0.7932    2.8592   24.2454 C.2     1  UNL1        0.3092
      3 O          -0.1694    1.8479   24.7939 O.2     1  UNL1       -0.2521
      4 N           2.1213    3.0681   24.9107 N.am    1  UNL1       -0.2680
      5 H           1.0595    4.3252   22.6720 H       1  UNL1        0.1578
      6 H           2.7531    3.7319   24.5508 H       1  UNL1        0.1564
      7 C           2.4868    2.2658   26.1242 C.ar    1  UNL1        0.0517
      8 C           2.9288    0.8402   25.9756 C.ar    1  UNL1        0.0162
      9 C           3.2943    0.0378   27.1891 C.ar    1  UNL1        0.0189
     10 C           3.2177    0.6611   28.5513 C.ar    1  UNL1        0.0663
     11 C           2.7756    2.0867   28.6999 C.ar    1  UNL1        0.0189
     12 C           2.4102    2.8891   27.4864 C.ar    1  UNL1        0.0162
     13 N           3.5831   -0.1413   29.7648 N.ar    1  UNL1       -0.2782
     14 C           2.6308   -0.6444   30.8088 C.ar    1  UNL1        0.1843
     15 N           3.4242   -1.3954   31.8366 N.ar    1  UNL1       -0.2111
     16 C           4.8669   -1.3564   31.4280 C.ar    1  UNL1        0.1669
     17 CL          6.0106   -1.9826   32.1695 Cl      1  UNL1       -0.0588
     18 C           4.9652   -0.5813   30.1475 C.ar    1  UNL1        0.1526
     19 CL          6.2243   -0.2962   29.3838 Cl      1  UNL1       -0.0602
     20 N          -1.1411    2.6867   21.0997 N.ar    1  UNL1       -0.2162
     21 N          -2.6104    2.7337   20.8017 N.ar    1  UNL1       -0.1683
     22 C          -3.2779    3.5286   21.8846 C.ar    1  UNL1        0.0810
     23 C          -2.2210    3.9729   22.8519 C.ar    1  UNL1        0.0509
     24 C          -0.9004    3.4526   22.3667 C.ar    1  UNL1        0.1380
     25 C           3.0395   -0.0790   17.8022 C.3     1  UNL1        0.0310
     26 C           1.9943    0.6124   18.6266 C.ar    1  UNL1       -0.0218
     27 C           1.2460   -0.1484   19.6806 C.ar    1  UNL1       -0.0027
     28 C           0.2008    0.5430   20.5050 C.ar    1  UNL1        0.0189
     29 C          -0.0959    1.9953   20.2753 C.ar    1  UNL1        0.0842
     30 C           0.6524    2.7561   19.2212 C.ar    1  UNL1        0.0189
     31 C           1.6976    2.0647   18.3969 C.ar    1  UNL1       -0.0027
     32 C          -4.7446    3.8269   21.9830 C.3     1  UNL1        0.0372
     33 C          -4.7078    4.4569   20.6222 C.3     1  UNL1        0.0060
     34 C          -4.7815    3.1968   23.3437 C.3     1  UNL1        0.0060
     35 C          -6.2114    4.1251   22.0813 C.3     1  UNL1        0.0060
@<TRIPOS>BOND
     1    25    26    1
     2    26    27   ar
     3    27    28   ar
     4    28    29   ar
     5    29    20    1
     6    20    21   ar
     7    21    22   ar
     8    22    32    1
     9    32    33    1
    10    32    34    1
    11    32    35    1
    12    22    23   ar
    13    23    24   ar
    14    24     1    1
    15     1     2   am
    16     2     3    2
    17     2     4   am
    18     4     7    1
    19     7     8   ar
    20     8     9   ar
    21     9    10   ar
    22    10    13    1
    23    13    14   ar
    24    14    15   ar
    25    15    16   ar
    26    16    17    1
    27    16    18   ar
    28    18    19    1
    29    10    11   ar
    30    11    12   ar
    31    29    30   ar
    32    30    31   ar
    33    31    26   ar
    34    24    20   ar
    35    12     7   ar
    36    18    13   ar
    37     1     5    1
    38     4     6    1
@<TRIPOS>MOLECULE
*****
 35 38 0 0 0
SMALL
GASTEIGER

@<TRIPOS>ATOM
      1 N           2.0402    1.7131   22.4180 N.am    1  UNL1       -0.2533
      2 C           0.5856    2.0715   22.4931 C.2     1  UNL1        0.3092
      3 O          -0.4042    1.3796   21.6034 O.2     1  UNL1       -0.2521
      4 N           0.1207    3.1218   23.4579 N.am    1  UNL1       -0.2680
      5 H           2.6898    2.1673   23.0020 H       1  UNL1        0.1578
      6 H           0.7703    3.5759   24.0419 H       1  UNL1        0.1564
      7 C          -1.3339    3.4801   23.5329 C.ar    1  UNL1        0.0517
      8 C          -2.1078    3.2147   24.7902 C.ar    1  UNL1        0.0162
      9 C          -3.5625    3.5730   24.8652 C.ar    1  UNL1        0.0189
     10 C          -4.2432    4.1967   23.6831 C.ar    1  UNL1        0.0663
     11 C          -3.4693    4.4621   22.4258 C.ar    1  UNL1        0.0189
     12 C          -2.0147    4.1038   22.3508 C.ar    1  UNL1        0.0162
     13 N          -5.6979    4.5551   23.7581 N.ar    1  UNL1       -0.2782
     14 C          -6.7476    4.1960   22.7486 C.ar    1  UNL1        0.1843
     15 N          -8.0566    4.7544   23.2224 N.ar    1  UNL1       -0.2111
     16 C          -7.8160    5.4586   24.5248 C.ar    1  UNL1        0.1669
     17 CL         -8.8514    6.1624   25.3510 Cl      1  UNL1       -0.0588
     18 C          -6.3581    5.3354   24.8559 C.ar    1  UNL1        0.1526
     19 CL         -5.6798    5.8944   26.0713 Cl      1  UNL1       -0.0602
     20 N           2.5443    0.7932   19.9594 N.ar    1  UNL1       -0.2162
     21 N           3.0759   -0.4912   19.3959 N.ar    1  UNL1       -0.1683
     22 C           3.3652   -1.4154   20.5414 C.ar    1  UNL1        0.0810
     23 C           3.0125   -0.7021   21.8129 C.ar    1  UNL1        0.0509
     24 C           2.5051    0.6629   21.4532 C.ar    1  UNL1        0.1380
     25 C           0.8688    5.6072   16.7942 C.3     1  UNL1        0.0310
     26 C           1.2877    4.4037   17.5855 C.ar    1  UNL1       -0.0218
     27 C           2.6909    4.2989   18.1050 C.ar    1  UNL1       -0.0027
     28 C           3.1098    3.0954   18.8963 C.ar    1  UNL1        0.0189
     29 C           2.1254    1.9967   19.1681 C.ar    1  UNL1        0.0842
     30 C           0.7222    2.1015   18.6486 C.ar    1  UNL1        0.0189
     31 C           0.3033    3.3050   17.8573 C.ar    1  UNL1       -0.0027
     32 C           3.9114   -2.8083   20.4342 C.3     1  UNL1        0.0372
     33 C           4.2862   -2.7731   21.8862 C.3     1  UNL1        0.0060
     34 C           3.5367   -2.8435   18.9822 C.3     1  UNL1        0.0060
     35 C           4.4576   -4.2012   20.3269 C.3     1  UNL1        0.0060
@<TRIPOS>BOND
     1    25    26    1
     2    26    27   ar
     3    27    28   ar
     4    28    29   ar
     5    29    20    1
     6    20    21   ar
     7    21    22   ar
     8    22    32    1
     9    32    33    1
    10    32    34    1
    11    32    35    1
    12    22    23   ar
    13    23    24   ar
    14    24     1    1
    15     1     2   am
    16     2     3    2
    17     2     4   am
    18     4     7    1
    19     7     8   ar
    20     8     9   ar
    21     9    10   ar
    22    10    13    1
    23    13    14   ar
    24    14    15   ar
    25    15    16   ar
    26    16    17    1
    27    16    18   ar
    28    18    19    1
    29    10    11   ar
    30    11    12   ar
    31    29    30   ar
    32    30    31   ar
    33    31    26   ar
    34    24    20   ar
    35    12     7   ar
    36    18    13   ar
    37     1     5    1
    38     4     6    1
@<TRIPOS>MOLECULE
*****
 35 38 0 0 0
SMALL
GASTEIGER

@<TRIPOS>ATOM
      1 N           1.7393    0.5711   20.6942 N.am    1  UNL1       -0.2533
      2 C           1.8323    0.6181   22.1905 C.2     1  UNL1        0.3092
      3 O           2.8758   -0.1904   22.9030 O.2     1  UNL1       -0.2521
      4 N           0.8818    1.4736   22.9746 N.am    1  UNL1       -0.2680
      5 H           1.0544    1.1017   20.2267 H       1  UNL1        0.1578
      6 H           0.1969    2.0043   22.5070 H       1  UNL1        0.1564
      7 C           0.9748    1.5206   24.4709 C.ar    1  UNL1        0.0517
      8 C          -0.2196    1.1703   25.3080 C.ar    1  UNL1        0.0162
      9 C          -0.1266    1.2173   26.8044 C.ar    1  UNL1        0.0189
     10 C           1.1608    1.6146   27.4637 C.ar    1  UNL1        0.0663
     11 C           2.3551    1.9650   26.6267 C.ar    1  UNL1        0.0189
     12 C           2.2621    1.9180   25.1303 C.ar    1  UNL1        0.0162
     13 N           1.2538    1.6617   28.9601 N.ar    1  UNL1       -0.2782
     14 C           1.6867    0.5363   29.8524 C.ar    1  UNL1        0.1843
     15 N           1.6307    1.0214   31.2706 N.ar    1  UNL1       -0.2111
     16 C           1.1631    2.4466   31.2549 C.ar    1  UNL1        0.1669
     17 CL          0.9635    3.3223   32.4563 Cl      1  UNL1       -0.0588
     18 C           0.9302    2.8423   29.8269 C.ar    1  UNL1        0.1526
     19 CL          0.4567    4.1832   29.3495 Cl      1  UNL1       -0.0602
     20 N           3.6584    0.1979   18.8713 N.ar    1  UNL1       -0.2162
     21 N           4.4057   -0.9921   18.3465 N.ar    1  UNL1       -0.1683
     22 C           3.8991   -2.2098   19.0610 C.ar    1  UNL1        0.0810
     23 C           2.8385   -1.7725   20.0274 C.ar    1  UNL1        0.0509
     24 C           2.6898   -0.2844   19.9102 C.ar    1  UNL1        0.1380
     25 C           4.4111    5.8877   17.1224 C.3     1  UNL1        0.0310
     26 C           4.2229    4.4652   17.5596 C.ar    1  UNL1       -0.0218
     27 C           2.8749    3.9937   18.0183 C.ar    1  UNL1       -0.0027
     28 C           2.6867    2.5712   18.4555 C.ar    1  UNL1        0.0189
     29 C           3.8466    1.6203   18.4341 C.ar    1  UNL1        0.0842
     30 C           5.1946    2.0919   17.9754 C.ar    1  UNL1        0.0189
     31 C           5.3828    3.5143   17.5382 C.ar    1  UNL1       -0.0027
     32 C           4.3702   -3.6177   18.8466 C.3     1  UNL1        0.0372
     33 C           5.6996   -3.1019   18.3811 C.3     1  UNL1        0.0060
     34 C           3.0408   -4.1334   19.3122 C.3     1  UNL1        0.0060
     35 C           4.8413   -5.0255   18.6323 C.3     1  UNL1        0.0060
@<TRIPOS>BOND
     1    25    26    1
     2    26    27   ar
     3    27    28   ar
     4    28    29   ar
     5    29    20    1
     6    20    21   ar
     7    21    22   ar
     8    22    32    1
     9    32    33    1
    10    32    34    1
    11    32    35    1
    12    22    23   ar
    13    23    24   ar
    14    24     1    1
    15     1     2   am
    16     2     3    2
    17     2     4   am
    18     4     7    1
    19     7     8   ar
    20     8     9   ar
    21     9    10   ar
    22    10    13    1
    23    13    14   ar
    24    14    15   ar
    25    15    16   ar
    26    16    17    1
    27    16    18   ar
    28    18    19    1
    29    10    11   ar
    30    11    12   ar
    31    29    30   ar
    32    30    31   ar
    33    31    26   ar
    34    24    20   ar
    35    12     7   ar
    36    18    13   ar
    37     1     5    1
    38     4     6    1
@<TRIPOS>MOLECULE
*****
 35 38 0 0 0
SMALL
GASTEIGER

@<TRIPOS>ATOM
      1 N          -1.2126    3.9224   24.3024 N.am    1  UNL1       -0.2533
      2 C          -0.4871    3.1374   25.3546 C.2     1  UNL1        0.3092
      3 O           0.1678    1.8351   25.0008 O.2     1  UNL1       -0.2521
      4 N          -0.4163    3.6547   26.7609 N.am    1  UNL1       -0.2680
      5 H          -1.6424    4.7771   24.5347 H       1  UNL1        0.1578
      6 H          -0.8461    4.5094   26.9932 H       1  UNL1        0.1564
      7 C           0.3092    2.8697   27.8131 C.ar    1  UNL1        0.0517
      8 C           1.6897    3.2776   28.2347 C.ar    1  UNL1        0.0162
      9 C           2.4153    2.4926   29.2870 C.ar    1  UNL1        0.0189
     10 C           1.7604    1.2996   29.9177 C.ar    1  UNL1        0.0663
     11 C           0.3799    0.8916   29.4961 C.ar    1  UNL1        0.0189
     12 C          -0.3456    1.6767   28.4438 C.ar    1  UNL1        0.0162
     13 N           2.4860    0.5146   30.9700 N.ar    1  UNL1       -0.2782
     14 C           2.9285   -0.9141   30.8558 C.ar    1  UNL1        0.1843
     15 N           3.6124   -1.2913   32.1364 N.ar    1  UNL1       -0.2111
     16 C           3.5926   -0.0957   33.0420 C.ar    1  UNL1        0.1669
     17 CL          4.1680   -0.0280   34.4257 Cl      1  UNL1       -0.0588
     18 C           2.8965    1.0205   32.3211 C.ar    1  UNL1        0.1526
     19 CL          2.6534    2.4001   32.8572 Cl      1  UNL1       -0.0602
     20 N          -2.5285    3.2567   22.0729 N.ar    1  UNL1       -0.2162
     21 N          -2.1360    2.7053   20.7343 N.ar    1  UNL1       -0.1683
     22 C          -0.6484    2.5131   20.7302 C.ar    1  UNL1        0.0810
     23 C          -0.1214    2.9456   22.0663 C.ar    1  UNL1        0.0509
     24 C          -1.2834    3.4051   22.8961 C.ar    1  UNL1        0.1380
     25 C          -8.1003    4.6275   23.8268 C.3     1  UNL1        0.0310
     26 C          -6.7073    4.2848   23.3883 C.ar    1  UNL1       -0.0218
     27 C          -5.6726    3.9058   24.4060 C.ar    1  UNL1       -0.0027
     28 C          -4.2797    3.5631   23.9675 C.ar    1  UNL1        0.0189
     29 C          -3.9214    3.5994   22.5114 C.ar    1  UNL1        0.0842
     30 C          -4.9562    3.9784   21.4937 C.ar    1  UNL1        0.0189
     31 C          -6.3491    4.3211   21.9322 C.ar    1  UNL1       -0.0027
     32 C           0.1687    1.9816   19.5901 C.3     1  UNL1        0.0372
     33 C           0.2429    0.6448   20.2664 C.3     1  UNL1        0.0060
     34 C           0.0945    3.3184   18.9137 C.3     1  UNL1        0.0060
     35 C           0.9859    1.4501   18.4500 C.3     1  UNL1        0.0060
@<TRIPOS>BOND
     1    25    26    1
     2    26    27   ar
     3    27    28   ar
     4    28    29   ar
     5    29    20    1
     6    20    21   ar
     7    21    22   ar
     8    22    32    1
     9    32    33    1
    10    32    34    1
    11    32    35    1
    12    22    23   ar
    13    23    24   ar
    14    24     1    1
    15     1     2   am
    16     2     3    2
    17     2     4   am
    18     4     7    1
    19     7     8   ar
    20     8     9   ar
    21     9    10   ar
    22    10    13    1
    23    13    14   ar
    24    14    15   ar
    25    15    16   ar
    26    16    17    1
    27    16    18   ar
    28    18    19    1
    29    10    11   ar
    30    11    12   ar
    31    29    30   ar
    32    30    31   ar
    33    31    26   ar
    34    24    20   ar
    35    12     7   ar
    36    18    13   ar
    37     1     5    1
    38     4     6    1
@<TRIPOS>MOLECULE
*****
 35 38 0 0 0
SMALL
GASTEIGER

@<TRIPOS>ATOM
      1 N           4.9008    1.3899   21.1525 N.am    1  UNL1       -0.2533
      2 C           4.4678    1.0692   22.5523 C.2     1  UNL1        0.3092
      3 O           3.0082    1.0350   22.8967 O.2     1  UNL1       -0.2521
      4 N           5.4942    0.7827   23.6079 N.am    1  UNL1       -0.2680
      5 H           5.8587    1.4123   20.9266 H       1  UNL1        0.1578
      6 H           6.4522    0.8051   23.3820 H       1  UNL1        0.1564
      7 C           5.0612    0.4620   25.0078 C.ar    1  UNL1        0.0517
      8 C           4.6297   -0.9311   25.3589 C.ar    1  UNL1        0.0162
      9 C           4.1967   -1.2517   26.7587 C.ar    1  UNL1        0.0189
     10 C           4.1950   -0.1794   27.8075 C.ar    1  UNL1        0.0663
     11 C           4.6264    1.2136   27.4565 C.ar    1  UNL1        0.0189
     12 C           5.0595    1.5343   26.0566 C.ar    1  UNL1        0.0162
     13 N           3.7619   -0.5001   29.2074 N.ar    1  UNL1       -0.2782
     14 C           2.3493   -0.5147   29.7118 C.ar    1  UNL1        0.1843
     15 N           2.3798   -0.8861   31.1648 N.ar    1  UNL1       -0.2111
     16 C           3.8111   -1.1011   31.5583 C.ar    1  UNL1        0.1669
     17 CL          4.3021   -1.4870   32.9222 Cl      1  UNL1       -0.0588
     18 C           4.6654   -0.8626   30.3486 C.ar    1  UNL1        0.1526
     19 CL          6.1605   -0.9680   30.2903 Cl      1  UNL1       -0.0602
     20 N           3.3141    0.6856   19.1199 N.ar    1  UNL1       -0.2162
     21 N           2.3214    1.4009   18.2522 N.ar    1  UNL1       -0.1683
     22 C           2.2681    2.8337   18.6930 C.ar    1  UNL1        0.0810
     23 C           3.2278    3.0040   19.8331 C.ar    1  UNL1        0.0509
     24 C           3.8743    1.6764   20.0969 C.ar    1  UNL1        0.1380
     25 C           4.7856   -5.1192   18.7480 C.3     1  UNL1        0.0310
     26 C           4.4177   -3.6680   18.8410 C.ar    1  UNL1       -0.0218
     27 C           5.1903   -2.6469   18.0598 C.ar    1  UNL1       -0.0027
     28 C           4.8224   -1.1957   18.1527 C.ar    1  UNL1        0.0189
     29 C           3.6819   -0.7656   19.0270 C.ar    1  UNL1        0.0842
     30 C           2.9094   -1.7867   19.8082 C.ar    1  UNL1        0.0189
     31 C           3.2772   -3.2379   19.7152 C.ar    1  UNL1       -0.0027
     32 C           1.4063    3.9077   18.0980 C.3     1  UNL1        0.0372
     33 C           0.2070    3.0158   18.2251 C.3     1  UNL1        0.0060
     34 C           2.6056    4.7996   17.9709 C.3     1  UNL1        0.0060
     35 C           0.5446    4.9817   17.5031 C.3     1  UNL1        0.0060
@<TRIPOS>BOND
     1    25    26    1
     2    26    27   ar
     3    27    28   ar
     4    28    29   ar
     5    29    20    1
     6    20    21   ar
     7    21    22   ar
     8    22    32    1
     9    32    33    1
    10    32    34    1
    11    32    35    1
    12    22    23   ar
    13    23    24   ar
    14    24     1    1
    15     1     2   am
    16     2     3    2
    17     2     4   am
    18     4     7    1
    19     7     8   ar
    20     8     9   ar
    21     9    10   ar
    22    10    13    1
    23    13    14   ar
    24    14    15   ar
    25    15    16   ar
    26    16    17    1
    27    16    18   ar
    28    18    19    1
    29    10    11   ar
    30    11    12   ar
    31    29    30   ar
    32    30    31   ar
    33    31    26   ar
    34    24    20   ar
    35    12     7   ar
    36    18    13   ar
    37     1     5    1
    38     4     6    1
@<TRIPOS>MOLECULE
*****
 35 38 0 0 0
SMALL
GASTEIGER

@<TRIPOS>ATOM
      1 N           2.9547    2.6555   21.0261 N.am    1  UNL1       -0.2533
      2 C           2.7895    2.0966   22.4082 C.2     1  UNL1        0.3092
      3 O           1.4944    1.4533   22.8072 O.2     1  UNL1       -0.2521
      4 N           3.9192    2.1809   23.3914 N.am    1  UNL1       -0.2680
      5 H           3.8047    3.0777   20.7643 H       1  UNL1        0.1578
      6 H           4.7692    2.6031   23.1296 H       1  UNL1        0.1564
      7 C           3.7539    1.6220   24.7735 C.ar    1  UNL1        0.0517
      8 C           3.4800    2.5414   25.9266 C.ar    1  UNL1        0.0162
      9 C           3.3147    1.9825   27.3087 C.ar    1  UNL1        0.0189
     10 C           3.4232    0.5041   27.5378 C.ar    1  UNL1        0.0663
     11 C           3.6971   -0.4154   26.3848 C.ar    1  UNL1        0.0189
     12 C           3.8624    0.1436   25.0026 C.ar    1  UNL1        0.0162
     13 N           3.2579   -0.0548   28.9199 N.ar    1  UNL1       -0.2782
     14 C           1.9556   -0.2863   29.6275 C.ar    1  UNL1        0.1843
     15 N           2.2587   -0.8549   30.9820 N.ar    1  UNL1       -0.2111
     16 C           3.7483   -0.9749   31.1116 C.ar    1  UNL1        0.1669
     17 CL          4.4901   -1.4976   32.3060 Cl      1  UNL1       -0.0588
     18 C           4.3658   -0.4804   29.8372 C.ar    1  UNL1        0.1526
     19 CL          5.8336   -0.4218   29.5334 Cl      1  UNL1       -0.0602
     20 N           1.5591    1.4347   19.1009 N.ar    1  UNL1       -0.2162
     21 N           0.3326    1.7698   18.3049 N.ar    1  UNL1       -0.1683
     22 C          -0.1594    3.1134   18.7551 C.ar    1  UNL1        0.0810
     23 C           0.7630    3.6087   19.8292 C.ar    1  UNL1        0.0509
     24 C           1.8250    2.5712   20.0429 C.ar    1  UNL1        0.1380
     25 C           4.8271   -3.5726   18.6036 C.3     1  UNL1        0.0310
     26 C           4.0101   -2.3208   18.7279 C.ar    1  UNL1       -0.0218
     27 C           3.1627   -2.0960   19.9450 C.ar    1  UNL1       -0.0027
     28 C           2.3456   -0.8442   20.0693 C.ar    1  UNL1        0.0189
     29 C           2.3761    0.1829   18.9765 C.ar    1  UNL1        0.0842
     30 C           3.2235   -0.0419   17.7595 C.ar    1  UNL1        0.0189
     31 C           4.0405   -1.2937   17.6352 C.ar    1  UNL1       -0.0027
     32 C          -1.3625    3.8349   18.2242 C.3     1  UNL1        0.0372
     33 C          -0.6948    3.9649   16.8874 C.3     1  UNL1        0.0060
     34 C          -2.0303    3.7050   19.5611 C.3     1  UNL1        0.0060
     35 C          -2.5657    4.5565   17.6934 C.3     1  UNL1        0.0060
@<TRIPOS>BOND
     1    25    26    1
     2    26    27   ar
     3    27    28   ar
     4    28    29   ar
     5    29    20    1
     6    20    21   ar
     7    21    22   ar
     8    22    32    1
     9    32    33    1
    10    32    34    1
    11    32    35    1
    12    22    23   ar
    13    23    24   ar
    14    24     1    1
    15     1     2   am
    16     2     3    2
    17     2     4   am
    18     4     7    1
    19     7     8   ar
    20     8     9   ar
    21     9    10   ar
    22    10    13    1
    23    13    14   ar
    24    14    15   ar
    25    15    16   ar
    26    16    17    1
    27    16    18   ar
    28    18    19    1
    29    10    11   ar
    30    11    12   ar
    31    29    30   ar
    32    30    31   ar
    33    31    26   ar
    34    24    20   ar
    35    12     7   ar
    36    18    13   ar
    37     1     5    1
    38     4     6    1
