@<TRIPOS>MOLECULE
*****
 22 23 0 0 0
SMALL
GASTEIGER

@<TRIPOS>ATOM
      1 C          -9.3753  -19.4224   21.5495 C.ar    1  UNL1        0.0503
      2 C          -8.3212  -19.5180   22.6124 C.ar    1  UNL1        0.0148
      3 C          -6.8708  -19.5411   22.2305 C.ar    1  UNL1        0.0058
      4 C          -6.4745  -19.4686   20.7856 C.ar    1  UNL1        0.0538
      5 C          -7.5285  -19.3730   19.7227 C.ar    1  UNL1        0.0058
      6 C          -8.9789  -19.3499   20.1046 C.ar    1  UNL1        0.0148
      7 C         -11.5707  -18.0980   21.9688 C.2     1  UNL1        0.2261
      8 O         -10.8654  -16.8197   21.6244 O.2     1  UNL1       -0.2748
      9 N         -10.8256  -19.3993   21.9314 N.am    1  UNL1       -0.2839
     10 H         -11.2886  -20.2382   22.1574 H       1  UNL1        0.1549
     11 C         -13.0211  -18.0749   22.3507 C.3     1  UNL1        0.0854
     12 C         -14.4523  -18.3705   24.4989 C.3     1  UNL1        0.0005
     13 C         -13.4301  -17.6025   23.7144 C.3     1  UNL1        0.0096
     14 C          -5.0241  -19.4917   20.4037 C.2     1  UNL1        0.2509
     15 O          -4.4321  -20.7210   19.7806 O.2     1  UNL1       -0.2698
     16 N          -4.1657  -18.2855   20.6450 N.am    1  UNL1       -0.2606
     17 H          -4.5542  -17.4787   21.0540 H       1  UNL1        0.1571
     18 C          -2.7153  -18.3086   20.2631 C.ar    1  UNL1        0.1658
     19 N          -1.5987  -18.8938   21.0760 N.ar    1  UNL1       -0.2224
     20 C          -0.3202  -18.6974   20.3166 C.ar    1  UNL1        0.1079
     21 C          -0.6466  -17.9909   19.0343 C.ar    1  UNL1        0.0588
     22 S          -2.1269  -17.7506   19.0012 S.2     1  UNL1       -0.0508
@<TRIPOS>BOND
     1    12    13    1
     2    13    11    1
     3    11     7    1
     4     7     8    2
     5     7     9   am
     6     9     1    1
     7     1     2   ar
     8     2     3   ar
     9     3     4   ar
    10     4    14    1
    11    14    15    2
    12    14    16   am
    13    16    18    1
    14    18    19   ar
    15    19    20   ar
    16    20    21   ar
    17    21    22   ar
    18     4     5   ar
    19     5     6   ar
    20     6     1   ar
    21    22    18   ar
    22     9    10    1
    23    16    17    1
@<TRIPOS>MOLECULE
*****
 22 23 0 0 0
SMALL
GASTEIGER

@<TRIPOS>ATOM
      1 C         -10.5215  -17.6007   22.4152 C.ar    1  UNL1        0.0503
      2 C          -9.6036  -16.5738   23.0092 C.ar    1  UNL1        0.0148
      3 C          -8.1179  -16.7254   22.8694 C.ar    1  UNL1        0.0058
      4 C          -7.5500  -17.9040   22.1356 C.ar    1  UNL1        0.0538
      5 C          -8.4679  -18.9309   21.5416 C.ar    1  UNL1        0.0058
      6 C          -9.9537  -18.7792   21.6814 C.ar    1  UNL1        0.0148
      7 C         -12.7204  -18.0835   23.7120 C.2     1  UNL1        0.2261
      8 O         -11.9478  -18.8697   24.7294 O.2     1  UNL1       -0.2748
      9 N         -12.0073  -17.4490   22.5550 N.am    1  UNL1       -0.2839
     10 H         -12.5144  -16.9330   21.8873 H       1  UNL1        0.1549
     11 C         -14.2061  -17.9318   23.8518 C.3     1  UNL1        0.0854
     12 C         -14.5238  -18.3987   26.3878 C.3     1  UNL1        0.0005
     13 C         -14.9303  -18.6325   24.9630 C.3     1  UNL1        0.0096
     14 C          -6.0643  -18.0557   21.9958 C.2     1  UNL1        0.2509
     15 O          -5.1478  -17.4201   22.9989 O.2     1  UNL1       -0.2698
     16 N          -5.4950  -18.8429   20.8530 N.am    1  UNL1       -0.2606
     17 H          -6.0964  -19.2600   20.1946 H       1  UNL1        0.1571
     18 C          -4.0092  -18.9945   20.7132 C.ar    1  UNL1        0.1658
     19 N          -3.1037  -19.7200   21.6638 N.ar    1  UNL1       -0.2224
     20 C          -1.7029  -19.6212   21.1364 C.ar    1  UNL1        0.1079
     21 C          -1.7427  -18.8346   19.8598 C.ar    1  UNL1        0.0588
     22 S          -3.1681  -18.4473   19.5982 S.2     1  UNL1       -0.0508
@<TRIPOS>BOND
     1    12    13    1
     2    13    11    1
     3    11     7    1
     4     7     8    2
     5     7     9   am
     6     9     1    1
     7     1     2   ar
     8     2     3   ar
     9     3     4   ar
    10     4    14    1
    11    14    15    2
    12    14    16   am
    13    16    18    1
    14    18    19   ar
    15    19    20   ar
    16    20    21   ar
    17    21    22   ar
    18     4     5   ar
    19     5     6   ar
    20     6     1   ar
    21    22    18   ar
    22     9    10    1
    23    16    17    1
@<TRIPOS>MOLECULE
*****
 22 23 0 0 0
SMALL
GASTEIGER

@<TRIPOS>ATOM
      1 C          -4.6768  -18.4683   22.3886 C.ar    1  UNL1        0.0503
      2 C          -5.7455  -19.4226   21.9446 C.ar    1  UNL1        0.0148
      3 C          -7.1828  -19.1436   22.2708 C.ar    1  UNL1        0.0058
      4 C          -7.5513  -17.9104   23.0410 C.ar    1  UNL1        0.0538
      5 C          -6.4826  -16.9561   23.4850 C.ar    1  UNL1        0.0058
      6 C          -5.0454  -17.2351   23.1588 C.ar    1  UNL1        0.0148
      7 C          -2.7586  -18.6451   20.6453 C.2     1  UNL1        0.2261
      8 O          -3.7149  -18.2638   19.5543 O.2     1  UNL1       -0.2748
      9 N          -3.2395  -18.7473   22.0624 N.am    1  UNL1       -0.2839
     10 H          -2.6119  -18.9975   22.7784 H       1  UNL1        0.1549
     11 C          -1.3213  -18.9241   20.3191 C.3     1  UNL1        0.0854
     12 C           0.0199  -16.7347   19.9214 C.3     1  UNL1        0.0005
     13 C          -0.5705  -18.0100   19.3967 C.3     1  UNL1        0.0096
     14 C          -8.9886  -17.6314   23.3672 C.2     1  UNL1        0.2509
     15 O          -9.3878  -16.2920   23.9117 O.2     1  UNL1       -0.2698
     16 N         -10.0267  -18.6919   23.1489 N.am    1  UNL1       -0.2606
     17 H          -9.7648  -19.5710   22.7915 H       1  UNL1        0.1571
     18 C         -11.4640  -18.4129   23.4751 C.ar    1  UNL1        0.1658
     19 N         -12.1752  -18.8094   24.7348 N.ar    1  UNL1       -0.2224
     20 C         -13.5932  -18.3300   24.6372 C.ar    1  UNL1        0.1079
     21 C         -13.7584  -17.6372   23.3170 C.ar    1  UNL1        0.0588
     22 S         -12.4425  -17.6884   22.5988 S.2     1  UNL1       -0.0508
@<TRIPOS>BOND
     1    12    13    1
     2    13    11    1
     3    11     7    1
     4     7     8    2
     5     7     9   am
     6     9     1    1
     7     1     2   ar
     8     2     3   ar
     9     3     4   ar
    10     4    14    1
    11    14    15    2
    12    14    16   am
    13    16    18    1
    14    18    19   ar
    15    19    20   ar
    16    20    21   ar
    17    21    22   ar
    18     4     5   ar
    19     5     6   ar
    20     6     1   ar
    21    22    18   ar
    22     9    10    1
    23    16    17    1
@<TRIPOS>MOLECULE
*****
 22 23 0 0 0
SMALL
GASTEIGER

@<TRIPOS>ATOM
      1 C         -12.4172   -2.7728   19.3721 C.ar    1  UNL1        0.0503
      2 C         -13.4591   -3.2659   20.3319 C.ar    1  UNL1        0.0148
      3 C         -14.7917   -2.5816   20.4092 C.ar    1  UNL1        0.0058
      4 C         -15.0824   -1.4041   19.5266 C.ar    1  UNL1        0.0538
      5 C         -14.0405   -0.9109   18.5668 C.ar    1  UNL1        0.0058
      6 C         -12.7079   -1.5952   18.4896 C.ar    1  UNL1        0.0148
      7 C         -10.9508   -4.7572   18.5588 C.2     1  UNL1        0.2261
      8 O         -12.1495   -5.3730   17.8999 O.2     1  UNL1       -0.2748
      9 N         -11.0847   -3.4571   19.2949 N.am    1  UNL1       -0.2839
     10 H         -10.2980   -3.0530   19.7273 H       1  UNL1        0.1549
     11 C          -9.6182   -5.4415   18.4815 C.3     1  UNL1        0.0854
     12 C          -9.7849   -8.0259   18.2740 C.3     1  UNL1        0.0005
     13 C          -9.4406   -6.8068   19.0771 C.3     1  UNL1        0.0096
     14 C         -16.4149   -0.7197   19.6039 C.2     1  UNL1        0.2509
     15 O         -17.4130   -0.8944   18.4979 O.2     1  UNL1       -0.2698
     16 N         -16.7494    0.1393   20.7872 N.am    1  UNL1       -0.2606
     17 H         -16.0943    0.2539   21.5131 H       1  UNL1        0.1571
     18 C         -18.0820    0.8236   20.8644 C.ar    1  UNL1        0.1658
     19 N         -19.3808    0.1831   21.2552 N.ar    1  UNL1       -0.2224
     20 C         -20.4512    1.2322   21.1968 C.ar    1  UNL1        0.1079
     21 C         -19.8139    2.5213   20.7699 C.ar    1  UNL1        0.0588
     22 S         -18.3496    2.2688   20.5644 S.2     1  UNL1       -0.0508
@<TRIPOS>BOND
     1    12    13    1
     2    13    11    1
     3    11     7    1
     4     7     8    2
     5     7     9   am
     6     9     1    1
     7     1     2   ar
     8     2     3   ar
     9     3     4   ar
    10     4    14    1
    11    14    15    2
    12    14    16   am
    13    16    18    1
    14    18    19   ar
    15    19    20   ar
    16    20    21   ar
    17    21    22   ar
    18     4     5   ar
    19     5     6   ar
    20     6     1   ar
    21    22    18   ar
    22     9    10    1
    23    16    17    1
@<TRIPOS>MOLECULE
*****
 22 23 0 0 0
SMALL
GASTEIGER

@<TRIPOS>ATOM
      1 C           4.8701   -0.6080   34.2725 C.ar    1  UNL1        0.0503
      2 C           4.2943   -1.9528   33.9412 C.ar    1  UNL1        0.0148
      3 C           4.8804   -2.7653   32.8249 C.ar    1  UNL1        0.0058
      4 C           6.0424   -2.2330   32.0398 C.ar    1  UNL1        0.0538
      5 C           6.6183   -0.8882   32.3711 C.ar    1  UNL1        0.0058
      6 C           6.0321   -0.0757   33.4874 C.ar    1  UNL1        0.0148
      7 C           4.9553    0.2308   36.7300 C.2     1  UNL1        0.2261
      8 O           6.2128   -0.5555   36.9548 O.2     1  UNL1       -0.2748
      9 N           4.2840    0.2046   35.3888 N.am    1  UNL1       -0.2839
     10 H           3.4587    0.7206   35.2413 H       1  UNL1        0.1549
     11 C           4.3692    1.0433   37.8463 C.3     1  UNL1        0.0854
     12 C           2.0135    1.1265   38.9391 C.3     1  UNL1        0.0005
     13 C           2.9280    1.4564   37.7967 C.3     1  UNL1        0.0096
     14 C           6.6285   -3.0455   30.9234 C.2     1  UNL1        0.2509
     15 O           7.3564   -2.3648   29.8024 O.2     1  UNL1       -0.2698
     16 N           6.4869   -4.5388   30.9282 N.am    1  UNL1       -0.2606
     17 H           6.0092   -4.9856   31.6640 H       1  UNL1        0.1571
     18 C           7.0730   -5.3513   29.8118 C.ar    1  UNL1        0.1658
     19 N           6.5381   -5.4437   28.4135 N.ar    1  UNL1       -0.2224
     20 C           7.4314   -6.3636   27.6352 C.ar    1  UNL1        0.1079
     21 C           8.5185   -6.8398   28.5526 C.ar    1  UNL1        0.0588
     22 S           8.2971   -6.2142   29.8978 S.2     1  UNL1       -0.0508
@<TRIPOS>BOND
     1    12    13    1
     2    13    11    1
     3    11     7    1
     4     7     8    2
     5     7     9   am
     6     9     1    1
     7     1     2   ar
     8     2     3   ar
     9     3     4   ar
    10     4    14    1
    11    14    15    2
    12    14    16   am
    13    16    18    1
    14    18    19   ar
    15    19    20   ar
    16    20    21   ar
    17    21    22   ar
    18     4     5   ar
    19     5     6   ar
    20     6     1   ar
    21    22    18   ar
    22     9    10    1
    23    16    17    1
@<TRIPOS>MOLECULE
*****
 22 23 0 0 0
SMALL
GASTEIGER

@<TRIPOS>ATOM
      1 C           2.7010   -0.2229   19.7122 C.ar    1  UNL1        0.0503
      2 C           2.9818    1.2013   19.3343 C.ar    1  UNL1        0.0148
      3 C           1.8913    2.2279   19.4164 C.ar    1  UNL1        0.0058
      4 C           0.5200    1.8304   19.8765 C.ar    1  UNL1        0.0538
      5 C           0.2393    0.4063   20.2544 C.ar    1  UNL1        0.0058
      6 C           1.3298   -0.6204   20.1722 C.ar    1  UNL1        0.0148
      7 C           4.2573   -1.7436   18.2926 C.2     1  UNL1        0.2261
      8 O           3.6326   -1.2110   17.0371 O.2     1  UNL1       -0.2748
      9 N           3.7915   -1.2496   19.6301 N.am    1  UNL1       -0.2839
     10 H           4.2015   -1.5992   20.4541 H       1  UNL1        0.1549
     11 C           5.3478   -2.7703   18.2105 C.3     1  UNL1        0.0854
     12 C           3.7154   -4.6058   19.0568 C.3     1  UNL1        0.0005
     13 C           5.1070   -4.1623   18.7151 C.3     1  UNL1        0.0096
     14 C          -0.5705    2.8571   19.9586 C.2     1  UNL1        0.2509
     15 O          -0.4507    4.1414   19.1928 O.2     1  UNL1       -0.2698
     16 N          -1.7807    2.5996   20.8064 N.am    1  UNL1       -0.2606
     17 H          -1.8593    1.7567   21.3090 H       1  UNL1        0.1571
     18 C          -2.8712    3.6263   20.8885 C.ar    1  UNL1        0.1658
     19 N          -2.9139    4.7939   21.8292 N.ar    1  UNL1       -0.2224
     20 C          -4.1796    5.5549   21.5665 C.ar    1  UNL1        0.1079
     21 C          -4.9191    4.8576   20.4634 C.ar    1  UNL1        0.0588
     22 S          -4.1106    3.6656   20.0443 S.2     1  UNL1       -0.0508
@<TRIPOS>BOND
     1    12    13    1
     2    13    11    1
     3    11     7    1
     4     7     8    2
     5     7     9   am
     6     9     1    1
     7     1     2   ar
     8     2     3   ar
     9     3     4   ar
    10     4    14    1
    11    14    15    2
    12    14    16   am
    13    16    18    1
    14    18    19   ar
    15    19    20   ar
    16    20    21   ar
    17    21    22   ar
    18     4     5   ar
    19     5     6   ar
    20     6     1   ar
    21    22    18   ar
    22     9    10    1
    23    16    17    1
@<TRIPOS>MOLECULE
*****
 22 23 0 0 0
SMALL
GASTEIGER

@<TRIPOS>ATOM
      1 C           3.4464   -1.8401   20.9870 C.ar    1  UNL1        0.0503
      2 C           4.2486   -2.9915   20.4570 C.ar    1  UNL1        0.0148
      3 C           5.1497   -3.7632   21.3748 C.ar    1  UNL1        0.0058
      4 C           5.2486   -3.3837   22.8226 C.ar    1  UNL1        0.0538
      5 C           4.4465   -2.2324   23.3526 C.ar    1  UNL1        0.0058
      6 C           3.5454   -1.4606   22.4347 C.ar    1  UNL1        0.0148
      7 C           3.1160   -0.0085   19.1743 C.2     1  UNL1        0.2261
      8 O           4.5879    0.2797   19.1972 O.2     1  UNL1       -0.2748
      9 N           2.5453   -1.0684   20.0692 N.am    1  UNL1       -0.2839
     10 H           1.5792   -1.2575   20.0541 H       1  UNL1        0.1549
     11 C           2.2149    0.7633   18.2565 C.3     1  UNL1        0.0854
     12 C           0.3305    2.5518   18.2771 C.3     1  UNL1        0.0005
     13 C           0.8756    1.2337   18.7413 C.3     1  UNL1        0.0096
     14 C           6.1498   -4.1554   23.7404 C.2     1  UNL1        0.2509
     15 O           7.1392   -5.1306   23.1747 O.2     1  UNL1       -0.2698
     16 N           6.0614   -3.9521   25.2239 N.am    1  UNL1       -0.2606
     17 H           5.4120   -3.3120   25.5952 H       1  UNL1        0.1571
     18 C           6.9626   -4.7238   26.1417 C.ar    1  UNL1        0.1658
     19 N           6.6802   -6.0784   26.7209 N.ar    1  UNL1       -0.2224
     20 C           7.8474   -6.4683   27.5786 C.ar    1  UNL1        0.1079
     21 C           8.8511   -5.3547   27.5295 C.ar    1  UNL1        0.0588
     22 S           8.3043   -4.2765   26.6414 S.2     1  UNL1       -0.0508
@<TRIPOS>BOND
     1    12    13    1
     2    13    11    1
     3    11     7    1
     4     7     8    2
     5     7     9   am
     6     9     1    1
     7     1     2   ar
     8     2     3   ar
     9     3     4   ar
    10     4    14    1
    11    14    15    2
    12    14    16   am
    13    16    18    1
    14    18    19   ar
    15    19    20   ar
    16    20    21   ar
    17    21    22   ar
    18     4     5   ar
    19     5     6   ar
    20     6     1   ar
    21    22    18   ar
    22     9    10    1
    23    16    17    1
@<TRIPOS>MOLECULE
*****
 22 23 0 0 0
SMALL
GASTEIGER

@<TRIPOS>ATOM
      1 C           6.0269   -2.9097   32.5472 C.ar    1  UNL1        0.0503
      2 C           6.9768   -1.8058   32.9064 C.ar    1  UNL1        0.0148
      3 C           6.5347   -0.7048   33.8241 C.ar    1  UNL1        0.0058
      4 C           5.1426   -0.7076   34.3826 C.ar    1  UNL1        0.0538
      5 C           4.1926   -1.8115   34.0234 C.ar    1  UNL1        0.0058
      6 C           4.6348   -2.9125   33.1057 C.ar    1  UNL1        0.0148
      7 C           6.5266   -3.7756   30.1492 C.2     1  UNL1        0.2261
      8 O           6.1420   -2.4393   29.5865 O.2     1  UNL1       -0.2748
      9 N           6.4691   -4.0107   31.6295 N.am    1  UNL1       -0.2839
     10 H           6.7216   -4.8877   31.9988 H       1  UNL1        0.1549
     11 C           6.9688   -4.8766   29.2315 C.3     1  UNL1        0.0854
     12 C           8.4625   -6.9688   28.8553 C.3     1  UNL1        0.0005
     13 C           7.7120   -6.0580   29.7811 C.3     1  UNL1        0.0096
     14 C           4.7004    0.3934   35.3003 C.2     1  UNL1        0.2509
     15 O           4.7585    1.8205   34.8421 O.2     1  UNL1       -0.2698
     16 N           4.2001    0.0674   36.6763 N.am    1  UNL1       -0.2606
     17 H           4.1619   -0.8693   36.9771 H       1  UNL1        0.1571
     18 C           3.7579    1.1684   37.5940 C.ar    1  UNL1        0.1658
     19 N           2.3447    1.6231   37.8087 N.ar    1  UNL1       -0.2224
     20 C           2.3646    2.7438   38.8056 C.ar    1  UNL1        0.1079
     21 C           3.7902    2.9818   39.2070 C.ar    1  UNL1        0.0588
     22 S           4.6514    2.0081   38.4582 S.2     1  UNL1       -0.0508
@<TRIPOS>BOND
     1    12    13    1
     2    13    11    1
     3    11     7    1
     4     7     8    2
     5     7     9   am
     6     9     1    1
     7     1     2   ar
     8     2     3   ar
     9     3     4   ar
    10     4    14    1
    11    14    15    2
    12    14    16   am
    13    16    18    1
    14    18    19   ar
    15    19    20   ar
    16    20    21   ar
    17    21    22   ar
    18     4     5   ar
    19     5     6   ar
    20     6     1   ar
    21    22    18   ar
    22     9    10    1
    23    16    17    1
@<TRIPOS>MOLECULE
*****
 22 23 0 0 0
SMALL
GASTEIGER

@<TRIPOS>ATOM
      1 C           5.5526   -3.3524   21.0025 C.ar    1  UNL1        0.0503
      2 C           4.6205   -3.0511   22.1384 C.ar    1  UNL1        0.0148
      3 C           5.0563   -3.2994   23.5521 C.ar    1  UNL1        0.0058
      4 C           6.4240   -3.8490   23.8298 C.ar    1  UNL1        0.0538
      5 C           7.3560   -4.1503   22.6939 C.ar    1  UNL1        0.0058
      6 C           6.9203   -3.9020   21.2802 C.ar    1  UNL1        0.0148
      7 C           5.3603   -1.7676   18.9527 C.2     1  UNL1        0.2261
      8 O           6.0395   -0.6794   19.7303 O.2     1  UNL1       -0.2748
      9 N           5.1169   -3.1041   19.5888 N.am    1  UNL1       -0.2839
     10 H           4.6711   -3.8182   19.0784 H       1  UNL1        0.1549
     11 C           4.9246   -1.5193   17.5390 C.3     1  UNL1        0.0854
     12 C           2.9304   -0.0642   18.3490 C.3     1  UNL1        0.0005
     13 C           3.8480   -0.5151   17.2514 C.3     1  UNL1        0.0096
     14 C           6.8597   -4.0973   25.2435 C.2     1  UNL1        0.2509
     15 O           7.6870   -3.0744   25.9640 O.2     1  UNL1       -0.2698
     16 N           6.4681   -5.3686   25.9367 N.am    1  UNL1       -0.2606
     17 H           5.9252   -6.0400   25.4638 H       1  UNL1        0.1571
     18 C           6.9039   -5.6169   27.3504 C.ar    1  UNL1        0.1658
     19 N           6.2217   -5.1079   28.5856 N.ar    1  UNL1       -0.2224
     20 C           6.9945   -5.5942   29.7757 C.ar    1  UNL1        0.1079
     21 C           8.1542   -6.4038   29.2760 C.ar    1  UNL1        0.0588
     22 S           8.0983   -6.4178   27.7771 S.2     1  UNL1       -0.0508
@<TRIPOS>BOND
     1    12    13    1
     2    13    11    1
     3    11     7    1
     4     7     8    2
     5     7     9   am
     6     9     1    1
     7     1     2   ar
     8     2     3   ar
     9     3     4   ar
    10     4    14    1
    11    14    15    2
    12    14    16   am
    13    16    18    1
    14    18    19   ar
    15    19    20   ar
    16    20    21   ar
    17    21    22   ar
    18     4     5   ar
    19     5     6   ar
    20     6     1   ar
    21    22    18   ar
    22     9    10    1
    23    16    17    1
