@<TRIPOS>MOLECULE
*****
 46 52 0 0 0
SMALL
GASTEIGER

@<TRIPOS>ATOM
      1 N           2.9048    0.7985   31.5080 N.am    1  UNL1       -0.2222
      2 C           2.3560    0.7514   30.1126 C.2     1  UNL1        0.3219
      3 O           2.7523   -0.2214   29.0418 O.2     1  UNL1       -0.2512
      4 N           1.3414    1.8478   29.9763 N.am    1  UNL1       -0.1907
      5 C           1.2632    2.5725   31.2873 C.2     1  UNL1        0.2529
      6 O           0.3747    3.7406   31.5973 O.2     1  UNL1       -0.2724
      7 C           2.2294    1.9240   32.2339 C.3     1  UNL1        0.1391
      8 C           3.2317    1.1775   33.0633 C.3     1  UNL1        0.0449
      9 C           3.4790    1.5833   34.4860 C.3     1  UNL1        0.0746
     10 N           2.7241    2.7357   35.0793 N.3     1  UNL1       -0.2676
     11 C           1.7218    3.4823   34.2499 C.3     1  UNL1        0.0746
     12 C           1.4744    3.0764   32.8272 C.3     1  UNL1        0.0449
     13 C           6.4383   -0.6627   32.5705 C.ar    1  UNL1        0.2293
     14 C           5.3969    0.2546   32.0012 C.ar    1  UNL1        0.0924
     15 C           3.9462   -0.1188   32.0772 C.ar    1  UNL1        0.1453
     16 N           3.5367   -1.4095   32.7225 N.ar    1  UNL1       -0.2084
     17 C           4.5780   -2.3269   33.2918 C.ar    1  UNL1        0.2027
     18 N           6.0288   -1.9535   33.2158 N.ar    1  UNL1       -0.1892
     19 C           8.9368   -1.2507   32.9724 C.3     1  UNL1        0.2542
     20 O           7.8891   -0.2894   32.4946 O.3     1  UNL1       -0.4560
     21 C           0.5450    2.1639   28.7453 C.ar    1  UNL1        0.0622
     22 C           0.4610    3.5768   28.2487 C.ar    1  UNL1        0.0154
     23 C          -0.3355    3.8930   27.0175 C.ar    1  UNL1        0.0013
     24 C          -1.0479    2.7962   26.2830 C.ar    1  UNL1        0.0001
     25 C          -0.9639    1.3832   26.7796 C.ar    1  UNL1        0.0013
     26 C          -0.1674    1.0672   28.0107 C.ar    1  UNL1        0.0154
     27 C          -1.8444    3.1123   25.0518 C.ar    1  UNL1        0.0000
     28 C          -1.1522    3.2687   23.7303 C.ar    1  UNL1        0.0000
     29 C          -1.9486    3.5848   22.4992 C.ar    1  UNL1        0.0015
     30 C          -3.4374    3.7446   22.5896 C.ar    1  UNL1        0.0171
     31 C          -4.1296    3.5883   23.9111 C.ar    1  UNL1        0.0015
     32 C          -3.3332    3.2722   25.1422 C.ar    1  UNL1        0.0000
     33 C          -4.2338    4.0607   21.3585 C.ar    1  UNL1        0.0754
     34 C          -5.0772    5.2824   21.1436 C.ar    1  UNL1        0.0409
     35 C          -5.6914    5.1874   19.7784 C.ar    1  UNL1        0.1214
     36 N          -5.2276    3.9070   19.1495 N.ar    1  UNL1       -0.1711
     37 N          -4.3268    3.2106   20.1261 N.ar    1  UNL1       -0.2757
     38 H          -3.8757    2.3473   19.9832 H       1  UNL1        0.1889
     39 C           2.9714    3.1415   36.5021 C.3     1  UNL1        0.1183
     40 C           2.2012    2.4904   37.6124 C.ar    1  UNL1        0.0712
     41 N           0.9294    3.1123   38.1080 N.ar    1  UNL1       -0.2471
     42 C           0.1591    2.4612   39.2184 C.ar    1  UNL1        0.0985
     43 C           0.6608    1.1883   39.8331 C.ar    1  UNL1        0.0203
     44 C           1.9326    0.5664   39.3375 C.ar    1  UNL1       -0.0015
     45 C           2.7029    1.2174   38.2272 C.ar    1  UNL1       -0.0069
     46 C           3.9747    0.5955   37.7316 C.3     1  UNL1        0.0323
@<TRIPOS>BOND
     1    19    20    1
     2    20    13    1
     3    13    14   ar
     4    14    15   ar
     5    15     1    1
     6     1     2   am
     7     2     3    2
     8     2     4   am
     9     4    21    1
    10    21    22   ar
    11    22    23   ar
    12    23    24   ar
    13    24    27    1
    14    27    28   ar
    15    28    29   ar
    16    29    30   ar
    17    30    33    1
    18    33    34   ar
    19    34    35   ar
    20    35    36   ar
    21    36    37   ar
    22    30    31   ar
    23    31    32   ar
    24    24    25   ar
    25    25    26   ar
    26     4     5   am
    27     5     6    2
    28     5     7    1
    29     7     8    1
    30     8     9    1
    31     9    10    1
    32    10    39    1
    33    39    40    1
    34    40    41   ar
    35    41    42   ar
    36    42    43   ar
    37    43    44   ar
    38    44    45   ar
    39    45    46    1
    40    10    11    1
    41    11    12    1
    42    15    16   ar
    43    16    17   ar
    44    17    18   ar
    45    18    13   ar
    46     7     1    1
    47    45    40   ar
    48    26    21   ar
    49    12     7    1
    50    32    27   ar
    51    37    33   ar
    52    37    38    1
@<TRIPOS>MOLECULE
*****
 46 52 0 0 0
SMALL
GASTEIGER

@<TRIPOS>ATOM
      1 N           3.1491    0.3394   31.5067 N.am    1  UNL1       -0.2222
      2 C           2.4750    0.4416   30.1705 C.2     1  UNL1        0.3219
      3 O           2.7795   -0.3947   28.9631 O.2     1  UNL1       -0.2512
      4 N           1.4430    1.5270   30.2538 N.am    1  UNL1       -0.1907
      5 C           1.4793    2.0956   31.6414 C.2     1  UNL1        0.2529
      6 O           0.6132    3.2036   32.1631 O.2     1  UNL1       -0.2724
      7 C           2.5336    1.3616   32.4158 C.3     1  UNL1        0.1391
      8 C           3.6140    0.5442   33.0596 C.3     1  UNL1        0.0449
      9 C           3.9874    0.7894   34.4915 C.3     1  UNL1        0.0746
     10 N           3.2803    1.8520   35.2796 N.3     1  UNL1       -0.2676
     11 C           2.2000    2.6693   34.6357 C.3     1  UNL1        0.0746
     12 C           1.8266    2.4242   33.2038 C.3     1  UNL1        0.0449
     13 C           6.7700   -1.2299   31.9258 C.ar    1  UNL1        0.2293
     14 C           5.6732   -0.2734   31.5625 C.ar    1  UNL1        0.0924
     15 C           4.2459   -0.6172   31.8700 C.ar    1  UNL1        0.1453
     16 N           3.9154   -1.9174   32.5409 N.ar    1  UNL1       -0.2084
     17 C           5.0122   -2.8740   32.9043 C.ar    1  UNL1        0.2027
     18 N           6.4396   -2.5302   32.5967 N.ar    1  UNL1       -0.1892
     19 C           9.2871   -1.8735   31.9149 C.3     1  UNL1        0.2542
     20 O           8.1973   -0.8863   31.6182 O.3     1  UNL1       -0.4560
     21 C           0.5344    1.9666   29.1443 C.ar    1  UNL1        0.0622
     22 C           0.6032    3.3747   28.6320 C.ar    1  UNL1        0.0154
     23 C          -0.3054    3.8144   27.5224 C.ar    1  UNL1        0.0013
     24 C          -1.2829    2.8459   26.9252 C.ar    1  UNL1        0.0001
     25 C          -1.3517    1.4378   27.4376 C.ar    1  UNL1        0.0013
     26 C          -0.4430    0.9982   28.5471 C.ar    1  UNL1        0.0154
     27 C          -2.1915    3.2856   25.8157 C.ar    1  UNL1        0.0000
     28 C          -1.6765    3.3585   24.4088 C.ar    1  UNL1        0.0000
     29 C          -2.5851    3.7981   23.2992 C.ar    1  UNL1        0.0015
     30 C          -4.0089    4.1648   23.5967 C.ar    1  UNL1        0.0171
     31 C          -4.5240    4.0919   25.0036 C.ar    1  UNL1        0.0015
     32 C          -3.6154    3.6523   26.1131 C.ar    1  UNL1        0.0000
     33 C          -4.9175    4.6045   22.4872 C.ar    1  UNL1        0.0754
     34 C          -6.4171    4.5815   22.5142 C.ar    1  UNL1        0.0409
     35 C          -6.9125    5.1071   21.1995 C.ar    1  UNL1        0.1214
     36 N          -5.7192    5.4549   20.3599 N.ar    1  UNL1       -0.1711
     37 N          -4.4861    5.1443   21.1557 N.ar    1  UNL1       -0.2757
     38 H          -3.5569    5.2722   20.8567 H       1  UNL1        0.1889
     39 C           3.6538    2.0971   36.7116 C.3     1  UNL1        0.1183
     40 C           2.6510    1.8542   37.8003 C.ar    1  UNL1        0.0712
     41 N           2.5628    0.5059   38.4516 N.ar    1  UNL1       -0.2471
     42 C           1.5600    0.2630   39.5404 C.ar    1  UNL1        0.0985
     43 C           0.6453    1.3684   39.9778 C.ar    1  UNL1        0.0203
     44 C           0.7334    2.7167   39.3265 C.ar    1  UNL1       -0.0015
     45 C           1.7362    2.9597   38.2378 C.ar    1  UNL1       -0.0069
     46 C           1.8244    4.3080   37.5865 C.3     1  UNL1        0.0323
@<TRIPOS>BOND
     1    19    20    1
     2    20    13    1
     3    13    14   ar
     4    14    15   ar
     5    15     1    1
     6     1     2   am
     7     2     3    2
     8     2     4   am
     9     4    21    1
    10    21    22   ar
    11    22    23   ar
    12    23    24   ar
    13    24    27    1
    14    27    28   ar
    15    28    29   ar
    16    29    30   ar
    17    30    33    1
    18    33    34   ar
    19    34    35   ar
    20    35    36   ar
    21    36    37   ar
    22    30    31   ar
    23    31    32   ar
    24    24    25   ar
    25    25    26   ar
    26     4     5   am
    27     5     6    2
    28     5     7    1
    29     7     8    1
    30     8     9    1
    31     9    10    1
    32    10    39    1
    33    39    40    1
    34    40    41   ar
    35    41    42   ar
    36    42    43   ar
    37    43    44   ar
    38    44    45   ar
    39    45    46    1
    40    10    11    1
    41    11    12    1
    42    15    16   ar
    43    16    17   ar
    44    17    18   ar
    45    18    13   ar
    46     7     1    1
    47    45    40   ar
    48    26    21   ar
    49    12     7    1
    50    32    27   ar
    51    37    33   ar
    52    37    38    1
@<TRIPOS>MOLECULE
*****
 46 52 0 0 0
SMALL
GASTEIGER

@<TRIPOS>ATOM
      1 N           3.5089   -0.5566   22.1129 N.am    1  UNL1       -0.2222
      2 C           2.2504    0.2581   22.1658 C.2     1  UNL1        0.3219
      3 O           1.4332    0.6959   20.9866 O.2     1  UNL1       -0.2512
      4 N           1.9526    0.5580   23.6051 N.am    1  UNL1       -0.1907
      5 C           3.0270   -0.0712   24.4416 C.2     1  UNL1        0.2529
      6 O           3.1228   -0.0205   25.9376 O.2     1  UNL1       -0.2724
      7 C           3.9888   -0.7601   23.5194 C.3     1  UNL1        0.1391
      8 C           4.8599   -1.3994   22.4790 C.3     1  UNL1        0.0449
      9 C           6.0863   -2.1585   22.8909 C.3     1  UNL1        0.0746
     10 N           6.4416   -2.2782   24.3433 N.3     1  UNL1       -0.2676
     11 C           5.5705   -1.6389   25.3837 C.3     1  UNL1        0.0746
     12 C           4.3441   -0.8799   24.9718 C.3     1  UNL1        0.0449
     13 C           4.5240   -2.9791   19.1379 C.ar    1  UNL1        0.2293
     14 C           3.8619   -2.4593   20.3794 C.ar    1  UNL1        0.0924
     15 C           4.1710   -1.0764   20.8714 C.ar    1  UNL1        0.1453
     16 N           5.1424   -0.2134   20.1219 N.ar    1  UNL1       -0.2084
     17 C           5.8046   -0.7332   18.8805 C.ar    1  UNL1        0.2027
     18 N           5.4954   -2.1161   18.3884 N.ar    1  UNL1       -0.1892
     19 C           3.4849   -5.3275   19.5318 C.3     1  UNL1        0.2542
     20 O           4.2149   -4.3620   18.6458 O.3     1  UNL1       -0.4560
     21 C           0.7855    1.3484   24.1177 C.ar    1  UNL1        0.0622
     22 C           0.2337    1.0704   25.4845 C.ar    1  UNL1        0.0154
     23 C          -0.9336    1.8608   25.9972 C.ar    1  UNL1        0.0013
     24 C          -1.5490    2.9293   25.1431 C.ar    1  UNL1        0.0001
     25 C          -0.9972    3.2074   23.7762 C.ar    1  UNL1        0.0013
     26 C           0.1701    2.4169   23.2636 C.ar    1  UNL1        0.0154
     27 C          -2.7162    3.7198   25.6558 C.ar    1  UNL1        0.0000
     28 C          -2.5299    4.6813   26.7919 C.ar    1  UNL1        0.0000
     29 C          -3.6971    5.4717   27.3046 C.ar    1  UNL1        0.0015
     30 C          -5.0506    5.3005   26.6810 C.ar    1  UNL1        0.0171
     31 C          -5.2369    4.3390   25.5449 C.ar    1  UNL1        0.0015
     32 C          -4.0698    3.5486   25.0323 C.ar    1  UNL1        0.0000
     33 C          -6.2178    6.0910   27.1937 C.ar    1  UNL1        0.0754
     34 C          -6.9130    7.2065   26.4709 C.ar    1  UNL1        0.0409
     35 C          -8.0196    7.7096   27.3497 C.ar    1  UNL1        0.1214
     36 N          -8.0085    6.9051   28.6156 N.ar    1  UNL1       -0.1711
     37 N          -6.8949    5.9047   28.5193 N.ar    1  UNL1       -0.2757
     38 H          -6.6511    5.2422   29.2055 H       1  UNL1        0.1889
     39 C           7.6680   -3.0374   24.7553 C.3     1  UNL1        0.1183
     40 C           7.5666   -4.4917   25.1083 C.ar    1  UNL1        0.0712
     41 N           6.9436   -4.9062   26.4084 N.ar    1  UNL1       -0.2471
     42 C           6.8422   -6.3606   26.7614 C.ar    1  UNL1        0.0985
     43 C           7.3638   -7.4003   25.8144 C.ar    1  UNL1        0.0203
     44 C           7.9867   -6.9858   24.5144 C.ar    1  UNL1       -0.0015
     45 C           8.0881   -5.5315   24.1613 C.ar    1  UNL1       -0.0069
     46 C           8.7111   -5.1170   22.8613 C.3     1  UNL1        0.0323
@<TRIPOS>BOND
     1    19    20    1
     2    20    13    1
     3    13    14   ar
     4    14    15   ar
     5    15     1    1
     6     1     2   am
     7     2     3    2
     8     2     4   am
     9     4    21    1
    10    21    22   ar
    11    22    23   ar
    12    23    24   ar
    13    24    27    1
    14    27    28   ar
    15    28    29   ar
    16    29    30   ar
    17    30    33    1
    18    33    34   ar
    19    34    35   ar
    20    35    36   ar
    21    36    37   ar
    22    30    31   ar
    23    31    32   ar
    24    24    25   ar
    25    25    26   ar
    26     4     5   am
    27     5     6    2
    28     5     7    1
    29     7     8    1
    30     8     9    1
    31     9    10    1
    32    10    39    1
    33    39    40    1
    34    40    41   ar
    35    41    42   ar
    36    42    43   ar
    37    43    44   ar
    38    44    45   ar
    39    45    46    1
    40    10    11    1
    41    11    12    1
    42    15    16   ar
    43    16    17   ar
    44    17    18   ar
    45    18    13   ar
    46     7     1    1
    47    45    40   ar
    48    26    21   ar
    49    12     7    1
    50    32    27   ar
    51    37    33   ar
    52    37    38    1
@<TRIPOS>MOLECULE
*****
 46 52 0 0 0
SMALL
GASTEIGER

@<TRIPOS>ATOM
      1 N           4.3136   -0.1624   31.4555 N.am    1  UNL1       -0.2222
      2 C           3.5667    0.0538   30.1727 C.2     1  UNL1        0.3219
      3 O           3.9220   -0.5284   28.8367 O.2     1  UNL1       -0.2512
      4 N           2.4022    0.9545   30.4605 N.am    1  UNL1       -0.1907
      5 C           2.4294    1.2950   31.9211 C.2     1  UNL1        0.2529
      6 O           1.4477    2.1717   32.6405 O.2     1  UNL1       -0.2724
      7 C           3.6107    0.6047   32.5361 C.3     1  UNL1        0.1391
      8 C           4.8226   -0.1426   33.0080 C.3     1  UNL1        0.0449
      9 C           5.2296   -0.0773   34.4502 C.3     1  UNL1        0.0746
     10 N           4.4246    0.7353   35.4206 N.3     1  UNL1       -0.2676
     11 C           3.2127    1.4827   34.9487 C.3     1  UNL1        0.0746
     12 C           2.8057    1.4173   33.5064 C.3     1  UNL1        0.0449
     13 C           6.6574   -3.3055   32.0694 C.ar    1  UNL1        0.2293
     14 C           5.4242   -2.4691   31.8974 C.ar    1  UNL1        0.0924
     15 C           5.5469   -0.9987   31.6275 C.ar    1  UNL1        0.1453
     16 N           6.9028   -0.3647   31.5295 N.ar    1  UNL1       -0.2084
     17 C           8.1360   -1.2010   31.7015 C.ar    1  UNL1        0.2027
     18 N           8.0133   -2.6715   31.9714 N.ar    1  UNL1       -0.1892
     19 C           7.0846   -5.7671   31.3568 C.3     1  UNL1        0.2542
     20 O           6.5348   -4.7759   32.3393 O.3     1  UNL1       -0.4560
     21 C           1.3886    1.4311   29.4629 C.ar    1  UNL1        0.0622
     22 C           1.3270    2.8830   29.0913 C.ar    1  UNL1        0.0154
     23 C           0.3133    3.3595   28.0936 C.ar    1  UNL1        0.0013
     24 C          -0.6389    2.3842   27.4676 C.ar    1  UNL1        0.0001
     25 C          -0.5774    0.9321   27.8391 C.ar    1  UNL1        0.0013
     26 C           0.4364    0.4557   28.8368 C.ar    1  UNL1        0.0154
     27 C          -1.6526    2.8607   26.4699 C.ar    1  UNL1        0.0000
     28 C          -2.9593    3.4272   26.9406 C.ar    1  UNL1        0.0000
     29 C          -3.9730    3.9038   25.9429 C.ar    1  UNL1        0.0015
     30 C          -3.6799    3.8138   24.4746 C.ar    1  UNL1        0.0171
     31 C          -2.3732    3.2472   24.0039 C.ar    1  UNL1        0.0015
     32 C          -1.3595    2.7707   25.0015 C.ar    1  UNL1        0.0000
     33 C          -4.6936    4.2903   23.4769 C.ar    1  UNL1        0.0754
     34 C          -4.6135    5.5548   22.6739 C.ar    1  UNL1        0.0409
     35 C          -5.8358    5.6320   21.8078 C.ar    1  UNL1        0.1214
     36 N          -6.6713    4.4153   22.0754 N.ar    1  UNL1       -0.1711
     37 N          -5.9653    3.5860   23.1070 N.ar    1  UNL1       -0.2757
     38 H          -6.2812    2.7299   23.4765 H       1  UNL1        0.1889
     39 C           4.8316    0.8006   36.8629 C.3     1  UNL1        0.1183
     40 C           4.5606    2.0400   37.6632 C.ar    1  UNL1        0.0712
     41 N           5.5104    3.1990   37.5955 N.ar    1  UNL1       -0.2471
     42 C           5.2394    4.4384   38.3960 C.ar    1  UNL1        0.0985
     43 C           4.0188    4.5187   39.2640 C.ar    1  UNL1        0.0203
     44 C           3.0690    3.3596   39.3317 C.ar    1  UNL1       -0.0015
     45 C           3.3399    2.1203   38.5313 C.ar    1  UNL1       -0.0069
     46 C           2.3902    0.9612   38.5990 C.3     1  UNL1        0.0323
@<TRIPOS>BOND
     1    19    20    1
     2    20    13    1
     3    13    14   ar
     4    14    15   ar
     5    15     1    1
     6     1     2   am
     7     2     3    2
     8     2     4   am
     9     4    21    1
    10    21    22   ar
    11    22    23   ar
    12    23    24   ar
    13    24    27    1
    14    27    28   ar
    15    28    29   ar
    16    29    30   ar
    17    30    33    1
    18    33    34   ar
    19    34    35   ar
    20    35    36   ar
    21    36    37   ar
    22    30    31   ar
    23    31    32   ar
    24    24    25   ar
    25    25    26   ar
    26     4     5   am
    27     5     6    2
    28     5     7    1
    29     7     8    1
    30     8     9    1
    31     9    10    1
    32    10    39    1
    33    39    40    1
    34    40    41   ar
    35    41    42   ar
    36    42    43   ar
    37    43    44   ar
    38    44    45   ar
    39    45    46    1
    40    10    11    1
    41    11    12    1
    42    15    16   ar
    43    16    17   ar
    44    17    18   ar
    45    18    13   ar
    46     7     1    1
    47    45    40   ar
    48    26    21   ar
    49    12     7    1
    50    32    27   ar
    51    37    33   ar
    52    37    38    1
@<TRIPOS>MOLECULE
*****
 46 52 0 0 0
SMALL
GASTEIGER

@<TRIPOS>ATOM
      1 N           6.0937   -2.2480   25.9075 N.am    1  UNL1       -0.2222
      2 C           6.1957   -1.9869   27.3811 C.2     1  UNL1        0.3219
      3 O           7.2822   -2.4791   28.2907 O.2     1  UNL1       -0.2512
      4 N           5.0204   -1.1471   27.7854 N.am    1  UNL1       -0.1907
      5 C           4.1921   -0.8892   26.5618 C.2     1  UNL1        0.2529
      6 O           2.9232   -0.0911   26.5081 O.2     1  UNL1       -0.2724
      7 C           4.8554   -1.5697   25.4011 C.3     1  UNL1        0.1391
      8 C           5.6287   -2.2978   24.3419 C.3     1  UNL1        0.0449
      9 C           5.1396   -2.2995   22.9239 C.3     1  UNL1        0.0746
     10 N           3.8773   -1.5731   22.5651 N.3     1  UNL1       -0.2676
     11 C           3.1040   -0.8449   23.6242 C.3     1  UNL1        0.0746
     12 C           3.5931   -0.8432   25.0422 C.3     1  UNL1        0.0449
     13 C           7.8757   -5.3356   24.1635 C.ar    1  UNL1        0.2293
     14 C           6.9091   -4.5363   24.9862 C.ar    1  UNL1        0.0924
     15 C           7.0604   -3.0473   25.0848 C.ar    1  UNL1        0.1453
     16 N           8.1783   -2.3574   24.3606 N.ar    1  UNL1       -0.2084
     17 C           9.1449   -3.1565   23.5379 C.ar    1  UNL1        0.2027
     18 N           8.9936   -4.6457   23.4393 N.ar    1  UNL1       -0.1892
     19 C           7.9393   -7.6821   25.2768 C.3     1  UNL1        0.2542
     20 O           7.7246   -6.8246   24.0649 O.3     1  UNL1       -0.4560
     21 C           4.7253   -0.6521   29.1702 C.ar    1  UNL1        0.0622
     22 C           5.7804    0.0791   29.9461 C.ar    1  UNL1        0.0154
     23 C           5.4852    0.5741   31.3310 C.ar    1  UNL1        0.0013
     24 C           4.1349    0.3379   31.9400 C.ar    1  UNL1        0.0001
     25 C           3.0797   -0.3933   31.1641 C.ar    1  UNL1        0.0013
     26 C           3.3749   -0.8882   29.7792 C.ar    1  UNL1        0.0154
     27 C           3.8398    0.8329   33.3249 C.ar    1  UNL1        0.0000
     28 C           4.6001    0.2840   34.4955 C.ar    1  UNL1        0.0000
     29 C           4.3050    0.7790   35.8804 C.ar    1  UNL1        0.0015
     30 C           3.2494    1.8230   36.0945 C.ar    1  UNL1        0.0171
     31 C           2.4890    2.3719   34.9239 C.ar    1  UNL1        0.0015
     32 C           2.7841    1.8770   33.5391 C.ar    1  UNL1        0.0000
     33 C           2.9542    2.3180   37.4794 C.ar    1  UNL1        0.0754
     34 C           3.7097    3.3856   38.2138 C.ar    1  UNL1        0.0409
     35 C           3.0742    3.5597   39.5612 C.ar    1  UNL1        0.1214
     36 N           1.9258    2.5997   39.6598 N.ar    1  UNL1       -0.1711
     37 N           1.8517    1.8322   38.3730 N.ar    1  UNL1       -0.2757
     38 H           1.1948    1.1325   38.1536 H       1  UNL1        0.1889
     39 C           3.3882   -1.5748   21.1470 C.3     1  UNL1        0.1183
     40 C           4.3715   -1.6000   20.0146 C.ar    1  UNL1        0.0712
     41 N           5.2043   -0.3883   19.7173 N.ar    1  UNL1       -0.2471
     42 C           6.1877   -0.4136   18.5848 C.ar    1  UNL1        0.0985
     43 C           6.3381   -1.6504   17.7496 C.ar    1  UNL1        0.0203
     44 C           5.5053   -2.8620   18.0469 C.ar    1  UNL1       -0.0015
     45 C           4.5220   -2.8368   19.1793 C.ar    1  UNL1       -0.0069
     46 C           3.6892   -4.0485   19.4766 C.3     1  UNL1        0.0323
@<TRIPOS>BOND
     1    19    20    1
     2    20    13    1
     3    13    14   ar
     4    14    15   ar
     5    15     1    1
     6     1     2   am
     7     2     3    2
     8     2     4   am
     9     4    21    1
    10    21    22   ar
    11    22    23   ar
    12    23    24   ar
    13    24    27    1
    14    27    28   ar
    15    28    29   ar
    16    29    30   ar
    17    30    33    1
    18    33    34   ar
    19    34    35   ar
    20    35    36   ar
    21    36    37   ar
    22    30    31   ar
    23    31    32   ar
    24    24    25   ar
    25    25    26   ar
    26     4     5   am
    27     5     6    2
    28     5     7    1
    29     7     8    1
    30     8     9    1
    31     9    10    1
    32    10    39    1
    33    39    40    1
    34    40    41   ar
    35    41    42   ar
    36    42    43   ar
    37    43    44   ar
    38    44    45   ar
    39    45    46    1
    40    10    11    1
    41    11    12    1
    42    15    16   ar
    43    16    17   ar
    44    17    18   ar
    45    18    13   ar
    46     7     1    1
    47    45    40   ar
    48    26    21   ar
    49    12     7    1
    50    32    27   ar
    51    37    33   ar
    52    37    38    1
@<TRIPOS>MOLECULE
*****
 46 52 0 0 0
SMALL
GASTEIGER

@<TRIPOS>ATOM
      1 N           3.7821   -0.6878   24.1791 N.am    1  UNL1       -0.2222
      2 C           4.1963   -0.7252   25.6204 C.2     1  UNL1        0.3219
      3 O           5.3948   -1.4363   26.1752 O.2     1  UNL1       -0.2512
      4 N           3.2014    0.0735   26.4095 N.am    1  UNL1       -0.1907
      5 C           2.1724    0.6044   25.4559 C.2     1  UNL1        0.2529
      6 O           0.9919    1.4563   25.8172 O.2     1  UNL1       -0.2724
      7 C           2.5313    0.1340   24.0775 C.3     1  UNL1        0.1391
      8 C           3.0135   -0.4082   22.7647 C.3     1  UNL1        0.0449
      9 C           2.2548   -0.1094   21.5057 C.3     1  UNL1        0.0746
     10 N           1.0139    0.7316   21.5595 N.3     1  UNL1       -0.2676
     11 C           0.5317    1.2738   22.8723 C.3     1  UNL1        0.0746
     12 C           1.2904    0.9750   24.1313 C.3     1  UNL1        0.0449
     13 C           4.7837   -3.3895   21.4503 C.ar    1  UNL1        0.2293
     14 C           4.0721   -2.7223   22.5897 C.ar    1  UNL1        0.0924
     15 C           4.4937   -1.3550   23.0397 C.ar    1  UNL1        0.1453
     16 N           5.6271   -0.6548   22.3502 N.ar    1  UNL1       -0.2084
     17 C           6.3388   -1.3219   21.2108 C.ar    1  UNL1        0.2027
     18 N           5.9171   -2.6893   20.7608 N.ar    1  UNL1       -0.1892
     19 C           3.6969   -4.9358   19.6677 C.3     1  UNL1        0.2542
     20 O           4.3622   -4.7568   21.0002 O.3     1  UNL1       -0.4560
     21 C           3.2305    0.3012   27.8917 C.ar    1  UNL1        0.0622
     22 C           4.0771    1.3984   28.4655 C.ar    1  UNL1        0.0154
     23 C           4.1061    1.6261   29.9479 C.ar    1  UNL1        0.0013
     24 C           3.2886    0.7566   30.8564 C.ar    1  UNL1        0.0001
     25 C           2.4419   -0.3408   30.2826 C.ar    1  UNL1        0.0013
     26 C           2.4129   -0.5684   28.8003 C.ar    1  UNL1        0.0154
     27 C           3.3176    0.9842   32.3388 C.ar    1  UNL1        0.0000
     28 C           2.3982    1.9930   32.9608 C.ar    1  UNL1        0.0000
     29 C           2.4272    2.2207   34.4431 C.ar    1  UNL1        0.0015
     30 C           3.3758    1.4395   35.3034 C.ar    1  UNL1        0.0171
     31 C           4.2952    0.4307   34.6814 C.ar    1  UNL1        0.0015
     32 C           4.2662    0.2031   33.1991 C.ar    1  UNL1        0.0000
     33 C           3.4048    1.6672   36.7857 C.ar    1  UNL1        0.0754
     34 C           3.0772    2.9521   37.4870 C.ar    1  UNL1        0.0409
     35 C           3.2365    2.7290   38.9617 C.ar    1  UNL1        0.1214
     36 N           3.6626    1.3062   39.1720 N.ar    1  UNL1       -0.1711
     37 N           3.7666    0.6499   37.8271 N.ar    1  UNL1       -0.2757
     38 H           4.0266   -0.2843   37.6576 H       1  UNL1        0.1889
     39 C           0.2552    1.0304   20.3005 C.3     1  UNL1        0.1183
     40 C          -0.3809    2.3753   20.1094 C.ar    1  UNL1        0.0712
     41 N          -1.7698    2.6271   20.6169 N.ar    1  UNL1       -0.2471
     42 C          -2.4058    3.9721   20.4258 C.ar    1  UNL1        0.0985
     43 C          -1.6529    5.0652   19.7271 C.ar    1  UNL1        0.0203
     44 C          -0.2641    4.8135   19.2196 C.ar    1  UNL1       -0.0015
     45 C           0.3720    3.4685   19.4107 C.ar    1  UNL1       -0.0069
     46 C           1.7609    3.2168   18.9031 C.3     1  UNL1        0.0323
@<TRIPOS>BOND
     1    19    20    1
     2    20    13    1
     3    13    14   ar
     4    14    15   ar
     5    15     1    1
     6     1     2   am
     7     2     3    2
     8     2     4   am
     9     4    21    1
    10    21    22   ar
    11    22    23   ar
    12    23    24   ar
    13    24    27    1
    14    27    28   ar
    15    28    29   ar
    16    29    30   ar
    17    30    33    1
    18    33    34   ar
    19    34    35   ar
    20    35    36   ar
    21    36    37   ar
    22    30    31   ar
    23    31    32   ar
    24    24    25   ar
    25    25    26   ar
    26     4     5   am
    27     5     6    2
    28     5     7    1
    29     7     8    1
    30     8     9    1
    31     9    10    1
    32    10    39    1
    33    39    40    1
    34    40    41   ar
    35    41    42   ar
    36    42    43   ar
    37    43    44   ar
    38    44    45   ar
    39    45    46    1
    40    10    11    1
    41    11    12    1
    42    15    16   ar
    43    16    17   ar
    44    17    18   ar
    45    18    13   ar
    46     7     1    1
    47    45    40   ar
    48    26    21   ar
    49    12     7    1
    50    32    27   ar
    51    37    33   ar
    52    37    38    1
@<TRIPOS>MOLECULE
*****
 46 52 0 0 0
SMALL
GASTEIGER

@<TRIPOS>ATOM
      1 N           5.8323   -2.5216   25.8723 N.am    1  UNL1       -0.2222
      2 C           5.4758   -1.7950   27.1353 C.2     1  UNL1        0.3219
      3 O           6.1461   -1.9605   28.4669 O.2     1  UNL1       -0.2512
      4 N           4.3313   -0.8738   26.8327 N.am    1  UNL1       -0.1907
      5 C           3.9804   -1.0311   25.3828 C.2     1  UNL1        0.2529
      6 O           2.8929   -0.2986   24.6543 O.2     1  UNL1       -0.2724
      7 C           4.9081   -2.0495   24.7892 C.3     1  UNL1        0.1391
      8 C           5.9008   -3.0796   24.3381 C.3     1  UNL1        0.0449
      9 C           5.9038   -3.5443   22.9120 C.3     1  UNL1        0.0746
     10 N           4.9141   -2.9789   21.9369 N.3     1  UNL1       -0.2676
     11 C           3.9214   -1.9488   22.3879 C.3     1  UNL1        0.0746
     12 C           3.9185   -1.4841   23.8141 C.3     1  UNL1        0.0449
     13 C           7.7078   -6.0172   25.7593 C.ar    1  UNL1        0.2293
     14 C           6.6184   -4.9976   25.9123 C.ar    1  UNL1        0.0924
     15 C           6.9217   -3.5413   25.7193 C.ar    1  UNL1        0.1453
     16 N           8.3145   -3.1047   25.3733 N.ar    1  UNL1       -0.2084
     17 C           9.4039   -4.1243   25.2204 C.ar    1  UNL1        0.2027
     18 N           9.1006   -5.5807   25.4134 N.ar    1  UNL1       -0.1892
     19 C           8.3793   -8.3527   26.6782 C.3     1  UNL1        0.2542
     20 O           7.4046   -7.4735   25.9523 O.3     1  UNL1       -0.4560
     21 C           3.6562    0.0436   27.8086 C.ar    1  UNL1        0.0622
     22 C           2.2247   -0.1904   28.1910 C.ar    1  UNL1        0.0154
     23 C           1.5496    0.7270   29.1670 C.ar    1  UNL1        0.0013
     24 C           2.3059    1.8785   29.7606 C.ar    1  UNL1        0.0001
     25 C           3.7374    2.1125   29.3782 C.ar    1  UNL1        0.0013
     26 C           4.4124    1.1950   28.4022 C.ar    1  UNL1        0.0154
     27 C           1.6307    2.7959   30.7366 C.ar    1  UNL1        0.0000
     28 C           1.7628    2.5513   32.2106 C.ar    1  UNL1        0.0000
     29 C           1.0877    3.4687   33.1866 C.ar    1  UNL1        0.0015
     30 C           0.2804    4.6307   32.6884 C.ar    1  UNL1        0.0171
     31 C           0.1483    4.8753   31.2144 C.ar    1  UNL1        0.0015
     32 C           0.8234    3.9579   30.2385 C.ar    1  UNL1        0.0000
     33 C          -0.3947    5.5481   33.6644 C.ar    1  UNL1        0.0754
     34 C           0.2543    6.2170   34.8397 C.ar    1  UNL1        0.0409
     35 C          -0.7872    7.0400   35.5381 C.ar    1  UNL1        0.1214
     36 N          -2.0801    6.8798   34.7945 N.ar    1  UNL1       -0.1711
     37 N          -1.8375    5.9577   33.6364 N.ar    1  UNL1       -0.2757
     38 H          -2.5075    5.6716   32.9743 H       1  UNL1        0.1889
     39 C           4.9171   -3.4436   20.5106 C.3     1  UNL1        0.1183
     40 C           4.9921   -2.4428   19.3959 C.ar    1  UNL1        0.0712
     41 N           3.7323   -1.8987   18.7903 N.ar    1  UNL1       -0.2471
     42 C           3.8074   -0.8978   17.6755 C.ar    1  UNL1        0.0985
     43 C           5.1423   -0.4412   17.1663 C.ar    1  UNL1        0.0203
     44 C           6.4022   -0.9853   17.7718 C.ar    1  UNL1       -0.0015
     45 C           6.3271   -1.9861   18.8866 C.ar    1  UNL1       -0.0069
     46 C           7.5870   -2.5302   19.4921 C.3     1  UNL1        0.0323
@<TRIPOS>BOND
     1    19    20    1
     2    20    13    1
     3    13    14   ar
     4    14    15   ar
     5    15     1    1
     6     1     2   am
     7     2     3    2
     8     2     4   am
     9     4    21    1
    10    21    22   ar
    11    22    23   ar
    12    23    24   ar
    13    24    27    1
    14    27    28   ar
    15    28    29   ar
    16    29    30   ar
    17    30    33    1
    18    33    34   ar
    19    34    35   ar
    20    35    36   ar
    21    36    37   ar
    22    30    31   ar
    23    31    32   ar
    24    24    25   ar
    25    25    26   ar
    26     4     5   am
    27     5     6    2
    28     5     7    1
    29     7     8    1
    30     8     9    1
    31     9    10    1
    32    10    39    1
    33    39    40    1
    34    40    41   ar
    35    41    42   ar
    36    42    43   ar
    37    43    44   ar
    38    44    45   ar
    39    45    46    1
    40    10    11    1
    41    11    12    1
    42    15    16   ar
    43    16    17   ar
    44    17    18   ar
    45    18    13   ar
    46     7     1    1
    47    45    40   ar
    48    26    21   ar
    49    12     7    1
    50    32    27   ar
    51    37    33   ar
    52    37    38    1
@<TRIPOS>MOLECULE
*****
 46 52 0 0 0
SMALL
GASTEIGER

@<TRIPOS>ATOM
      1 N           3.3105   -0.0414   31.5768 N.am    1  UNL1       -0.2222
      2 C           2.5597    0.1009   30.2860 C.2     1  UNL1        0.3219
      3 O           2.7457   -0.7432   29.0601 O.2     1  UNL1       -0.2512
      4 N           1.5902    1.2357   30.4364 N.am    1  UNL1       -0.1907
      5 C           1.7419    1.7946   31.8201 C.2     1  UNL1        0.2529
      6 O           0.9666    2.9414   32.3976 O.2     1  UNL1       -0.2724
      7 C           2.8051    1.0053   32.5249 C.3     1  UNL1        0.1391
      8 C           3.8819    0.1321   33.0977 C.3     1  UNL1        0.0449
      9 C           4.3563    0.3511   34.5037 C.3     1  UNL1        0.0746
     10 N           3.7539    1.4433   35.3370 N.3     1  UNL1       -0.2676
     11 C           2.6772    2.3165   34.7642 C.3     1  UNL1        0.0746
     12 C           2.2028    2.0975   33.3582 C.3     1  UNL1        0.0449
     13 C           6.8577   -1.8159   31.7124 C.ar    1  UNL1        0.2293
     14 C           5.7891   -0.8044   31.4209 C.ar    1  UNL1        0.0924
     15 C           4.3791   -1.0529   31.8683 C.ar    1  UNL1        0.1453
     16 N           4.0377   -2.3130   32.6070 N.ar    1  UNL1       -0.2084
     17 C           5.1062   -3.3245   32.8985 C.ar    1  UNL1        0.2027
     18 N           6.5163   -3.0760   32.4512 N.ar    1  UNL1       -0.1892
     19 C           8.5718   -1.3911   29.8069 C.3     1  UNL1        0.2542
     20 O           8.2677   -1.5675   31.2651 O.3     1  UNL1       -0.4560
     21 C           0.6366    1.7255   29.3873 C.ar    1  UNL1        0.0622
     22 C          -0.4165    0.8064   28.8432 C.ar    1  UNL1        0.0154
     23 C          -1.3702    1.2962   27.7941 C.ar    1  UNL1        0.0013
     24 C          -1.2707    2.7051   27.2891 C.ar    1  UNL1        0.0001
     25 C          -0.2174    3.6243   27.8332 C.ar    1  UNL1        0.0013
     26 C           0.7362    3.1344   28.8823 C.ar    1  UNL1        0.0154
     27 C          -2.2243    3.1950   26.2400 C.ar    1  UNL1        0.0000
     28 C          -1.8004    3.2367   24.8017 C.ar    1  UNL1        0.0000
     29 C          -2.7541    3.7265   23.7526 C.ar    1  UNL1        0.0015
     30 C          -4.1316    4.1746   24.1419 C.ar    1  UNL1        0.0171
     31 C          -4.5556    4.1329   25.5801 C.ar    1  UNL1        0.0015
     32 C          -3.6020    3.6431   26.6292 C.ar    1  UNL1        0.0000
     33 C          -5.0853    4.6644   23.0927 C.ar    1  UNL1        0.0754
     34 C          -4.7723    5.6538   22.0096 C.ar    1  UNL1        0.0409
     35 C          -6.0130    5.8517   21.1900 C.ar    1  UNL1        0.1214
     36 N          -7.0927    4.9847   21.7666 N.ar    1  UNL1       -0.1711
     37 N          -6.5194    4.2509   22.9426 N.ar    1  UNL1       -0.2757
     38 H          -6.9999    3.6104   23.5154 H       1  UNL1        0.1889
     39 C           4.2284    1.6623   36.7430 C.3     1  UNL1        0.1183
     40 C           5.6696    1.4363   37.0920 C.ar    1  UNL1        0.0712
     41 N           6.2709    0.0697   36.9477 N.ar    1  UNL1       -0.2471
     42 C           7.7122   -0.1562   37.2967 C.ar    1  UNL1        0.0985
     43 C           8.5521    0.9844   37.7900 C.ar    1  UNL1        0.0203
     44 C           7.9508    2.3510   37.9344 C.ar    1  UNL1       -0.0015
     45 C           6.5096    2.5770   37.5854 C.ar    1  UNL1       -0.0069
     46 C           5.9083    3.9436   37.7298 C.3     1  UNL1        0.0323
@<TRIPOS>BOND
     1    19    20    1
     2    20    13    1
     3    13    14   ar
     4    14    15   ar
     5    15     1    1
     6     1     2   am
     7     2     3    2
     8     2     4   am
     9     4    21    1
    10    21    22   ar
    11    22    23   ar
    12    23    24   ar
    13    24    27    1
    14    27    28   ar
    15    28    29   ar
    16    29    30   ar
    17    30    33    1
    18    33    34   ar
    19    34    35   ar
    20    35    36   ar
    21    36    37   ar
    22    30    31   ar
    23    31    32   ar
    24    24    25   ar
    25    25    26   ar
    26     4     5   am
    27     5     6    2
    28     5     7    1
    29     7     8    1
    30     8     9    1
    31     9    10    1
    32    10    39    1
    33    39    40    1
    34    40    41   ar
    35    41    42   ar
    36    42    43   ar
    37    43    44   ar
    38    44    45   ar
    39    45    46    1
    40    10    11    1
    41    11    12    1
    42    15    16   ar
    43    16    17   ar
    44    17    18   ar
    45    18    13   ar
    46     7     1    1
    47    45    40   ar
    48    26    21   ar
    49    12     7    1
    50    32    27   ar
    51    37    33   ar
    52    37    38    1
@<TRIPOS>MOLECULE
*****
 46 52 0 0 0
SMALL
GASTEIGER

@<TRIPOS>ATOM
      1 N           2.4830    1.0951   24.1352 N.am    1  UNL1       -0.2222
      2 C           2.3315    1.6510   25.5203 C.2     1  UNL1        0.3219
      3 O           1.6709    2.9481   25.8823 O.2     1  UNL1       -0.2512
      4 N           2.9566    0.6819   26.4796 N.am    1  UNL1       -0.1907
      5 C           3.4944   -0.4728   25.6875 C.2     1  UNL1        0.2529
      6 O           4.2008   -1.6723   26.2461 O.2     1  UNL1       -0.2724
      7 C           3.2017   -0.2174   24.2386 C.3     1  UNL1        0.1391
      8 C           2.8415    0.1721   22.8356 C.3     1  UNL1        0.0449
      9 C           3.2039   -0.7272   21.6911 C.3     1  UNL1        0.0746
     10 N           3.9264   -2.0160   21.9496 N.3     1  UNL1       -0.2676
     11 C           4.2866   -2.4056   23.3526 C.3     1  UNL1        0.0746
     12 C           3.9242   -1.5063   24.4971 C.3     1  UNL1        0.0449
     13 C           0.0892    2.2197   21.1764 C.ar    1  UNL1        0.2293
     14 C           0.5717    1.5760   22.4424 C.ar    1  UNL1        0.0924
     15 C           2.0004    1.7388   22.8692 C.ar    1  UNL1        0.1453
     16 N           2.9467    2.5454   22.0301 N.ar    1  UNL1       -0.2084
     17 C           2.4642    3.1891   20.7641 C.ar    1  UNL1        0.2027
     18 N           1.0354    3.0262   20.3372 N.ar    1  UNL1       -0.1892
     19 C          -2.2729    3.2304   20.7909 C.3     1  UNL1        0.2542
     20 O          -1.3395    2.0569   20.7494 O.3     1  UNL1       -0.4560
     21 C           3.0308    0.8399   27.9693 C.ar    1  UNL1        0.0622
     22 C           4.2080    1.5295   28.5927 C.ar    1  UNL1        0.0154
     23 C           4.2823    1.6874   30.0825 C.ar    1  UNL1        0.0013
     24 C           3.1793    1.1558   30.9490 C.ar    1  UNL1        0.0001
     25 C           2.0020    0.4661   30.3256 C.ar    1  UNL1        0.0013
     26 C           1.9278    0.3082   28.8358 C.ar    1  UNL1        0.0154
     27 C           3.2535    1.3137   32.4388 C.ar    1  UNL1        0.0000
     28 C           2.2610    2.1840   33.1511 C.ar    1  UNL1        0.0000
     29 C           2.3353    2.3420   34.6409 C.ar    1  UNL1        0.0015
     30 C           3.4021    1.6296   35.4184 C.ar    1  UNL1        0.0171
     31 C           4.3946    0.7592   34.7060 C.ar    1  UNL1        0.0015
     32 C           4.3204    0.6013   33.2163 C.ar    1  UNL1        0.0000
     33 C           3.4763    1.7875   36.9082 C.ar    1  UNL1        0.0754
     34 C           3.6149    3.0829   37.6517 C.ar    1  UNL1        0.0409
     35 C           3.6492    2.7738   39.1190 C.ar    1  UNL1        0.1214
     36 N           3.5319    1.2873   39.2826 N.ar    1  UNL1       -0.1711
     37 N           3.4250    0.6777   37.9161 N.ar    1  UNL1       -0.2757
     38 H           3.3367   -0.2822   37.7160 H       1  UNL1        0.1889
     39 C           4.2888   -2.9153   20.8050 C.3     1  UNL1        0.1183
     40 C           5.6232   -2.7751   20.1345 C.ar    1  UNL1        0.0712
     41 N           6.8676   -3.2292   20.8382 N.ar    1  UNL1       -0.2471
     42 C           8.2021   -3.0890   20.1675 C.ar    1  UNL1        0.0985
     43 C           8.2921   -2.4948   18.7932 C.ar    1  UNL1        0.0203
     44 C           7.0476   -2.0407   18.0895 C.ar    1  UNL1       -0.0015
     45 C           5.7132   -2.1809   18.7601 C.ar    1  UNL1       -0.0069
     46 C           4.4688   -1.7268   18.0563 C.3     1  UNL1        0.0323
@<TRIPOS>BOND
     1    19    20    1
     2    20    13    1
     3    13    14   ar
     4    14    15   ar
     5    15     1    1
     6     1     2   am
     7     2     3    2
     8     2     4   am
     9     4    21    1
    10    21    22   ar
    11    22    23   ar
    12    23    24   ar
    13    24    27    1
    14    27    28   ar
    15    28    29   ar
    16    29    30   ar
    17    30    33    1
    18    33    34   ar
    19    34    35   ar
    20    35    36   ar
    21    36    37   ar
    22    30    31   ar
    23    31    32   ar
    24    24    25   ar
    25    25    26   ar
    26     4     5   am
    27     5     6    2
    28     5     7    1
    29     7     8    1
    30     8     9    1
    31     9    10    1
    32    10    39    1
    33    39    40    1
    34    40    41   ar
    35    41    42   ar
    36    42    43   ar
    37    43    44   ar
    38    44    45   ar
    39    45    46    1
    40    10    11    1
    41    11    12    1
    42    15    16   ar
    43    16    17   ar
    44    17    18   ar
    45    18    13   ar
    46     7     1    1
    47    45    40   ar
    48    26    21   ar
    49    12     7    1
    50    32    27   ar
    51    37    33   ar
    52    37    38    1
